MODEL 1
REMARK VINA RESULT:    -9.419      0.000      0.000
REMARK INTER + INTRA:         -13.779
REMARK INTER:                 -12.722
REMARK INTRA:                  -1.057
REMARK UNBOUND:                -1.057
REMARK  Name = 
REMARK  8 active torsions:
REMARK  status: ('A' for Active; 'I' for Inactive)
REMARK    1  A    between atoms: C_1  and  C_2
REMARK    2  A    between atoms: C_9  and  C_10
REMARK    3  A    between atoms: C_13  and  O_14
REMARK    4  A    between atoms: O_14  and  C_15
REMARK    5  A    between atoms: C_15  and  N_16
REMARK    6  A    between atoms: N_16  and  C_17
REMARK    7  A    between atoms: C_20  and  C_21
REMARK    8  A    between atoms: C_32  and  C_33
REMARK                            x       y       z     vdW  Elec       q    Type
REMARK                         _______ _______ _______ _____ _____    ______ ____
ROOT
ATOM      1  C   UNL     1      47.478   7.282  13.341  0.00  0.00    +0.000 C 
ATOM      2  C   UNL     1      48.177   7.007  12.070  0.00  0.00    +0.000 C 
ATOM      3  C   UNL     1      47.104   6.669  11.194  0.00  0.00    +0.000 C 
ATOM      4  C   UNL     1      45.984   6.729  11.924  0.00  0.00    +0.000 C 
ATOM      5  N   UNL     1      46.189   7.129  13.236  0.00  0.00    +0.000 NA
ENDROOT
BRANCH   1  14
ATOM      6  C   UNL     1      50.274   2.263  17.312  0.00  0.00    +0.000 C 
ATOM      7  C   UNL     1      50.500   3.765  17.420  0.00  0.00    +0.000 C 
ATOM      8  C   UNL     1      49.192   4.548  17.159  0.00  0.00    +0.000 C 
ATOM      9  N   UNL     1      49.427   5.960  17.427  0.00  0.00    +0.000 N 
ATOM     10  C   UNL     1      49.094   6.949  16.547  0.00  0.00    +0.000 A 
ATOM     11  N   UNL     1      49.390   8.219  16.872  0.00  0.00    +0.000 NA
ATOM     12  C   UNL     1      49.102   9.193  15.994  0.00  0.00    +0.000 A 
ATOM     13  C   UNL     1      48.508   8.952  14.789  0.00  0.00    +0.000 A 
ATOM     14  C   UNL     1      48.215   7.633  14.560  0.00  0.00    +0.000 A 
ATOM     15  N   UNL     1      48.504   6.621  15.398  0.00  0.00    +0.000 NA
ATOM     16  C   UNL     1      50.031   6.283  18.712  0.00  0.00    +0.000 C 
ATOM     17  C   UNL     1      51.306   5.442  18.898  0.00  0.00    +0.000 C 
ATOM     18  C   UNL     1      51.878   5.661  20.291  0.00  0.00    +0.000 C 
ATOM     19  O   UNL     1      51.021   4.037  18.741  0.00  0.00    +0.000 OA
ENDBRANCH   1  14
BRANCH   4  20
ATOM     20  O   UNL     1      44.762   6.511  11.340  0.00  0.00    +0.000 OA
BRANCH  20  21
ATOM     21  C   UNL     1      44.087   5.235  11.377  0.00  0.00    +0.000 C 
ATOM     22  C   UNL     1      43.066   5.125  12.501  0.00  0.00    +0.000 C 
ATOM     23  C   UNL     1      44.243   4.203  12.467  0.00  0.00    +0.000 C 
BRANCH  21  24
ATOM     24  N   UNL     1      43.720   4.814   9.995  0.00  0.00    +0.000 N 
ATOM     25  H   UNL     1      43.530   5.643   9.432  0.00  0.00    +0.000 HD
BRANCH  24  26
ATOM     26  C   UNL     1      44.666   4.063   9.242  0.00  0.00    +0.000 A 
ATOM     27  N   UNL     1      45.510   4.711   8.400  0.00  0.00    +0.000 NA
ATOM     28  C   UNL     1      46.386   3.973   7.672  0.00  0.00    +0.000 A 
ATOM     29  C   UNL     1      46.500   2.597   7.748  0.00  0.00    +0.000 A 
ATOM     30  C   UNL     1      45.652   1.931   8.635  0.00  0.00    +0.000 A 
ATOM     31  C   UNL     1      44.729   2.667   9.371  0.00  0.00    +0.000 A 
ATOM     32  F   UNL     1      43.883   2.012  10.183  0.00  0.00    +0.000 F 
BRANCH  29  33
ATOM     33  C   UNL     1      47.453   1.805   6.933  0.00  0.00    +0.000 C 
ATOM     34  N   UNL     1      48.563   2.411   6.423  0.00  0.00    +0.000 N 
ATOM     35  O   UNL     1      47.248   0.615   6.707  0.00  0.00    +0.000 OA
ATOM     36  H   UNL     1      48.829   3.377   6.535  0.00  0.00    +0.000 HD
ATOM     37  H   UNL     1      49.177   1.826   5.859  0.00  0.00    +0.000 HD
ENDBRANCH  29  33
ENDBRANCH  24  26
ENDBRANCH  21  24
ENDBRANCH  20  21
ENDBRANCH   4  20
TORSDOF 6
ENDMDL
MODEL 2
REMARK VINA RESULT:    -9.405      1.440      2.473
REMARK INTER + INTRA:         -13.760
REMARK INTER:                 -13.247
REMARK INTRA:                  -0.514
REMARK UNBOUND:                -1.057
REMARK  Name = 
REMARK  8 active torsions:
REMARK  status: ('A' for Active; 'I' for Inactive)
REMARK    1  A    between atoms: C_1  and  C_2
REMARK    2  A    between atoms: C_9  and  C_10
REMARK    3  A    between atoms: C_13  and  O_14
REMARK    4  A    between atoms: O_14  and  C_15
REMARK    5  A    between atoms: C_15  and  N_16
REMARK    6  A    between atoms: N_16  and  C_17
REMARK    7  A    between atoms: C_20  and  C_21
REMARK    8  A    between atoms: C_32  and  C_33
REMARK                            x       y       z     vdW  Elec       q    Type
REMARK                         _______ _______ _______ _____ _____    ______ ____
ROOT
ATOM      1  C   UNL     1      47.130   5.615  13.905  0.00  0.00    +0.000 C 
ATOM      2  C   UNL     1      47.988   6.293  12.914  0.00  0.00    +0.000 C 
ATOM      3  C   UNL     1      47.087   6.524  11.832  0.00  0.00    +0.000 C 
ATOM      4  C   UNL     1      45.910   6.003  12.200  0.00  0.00    +0.000 C 
ATOM      5  N   UNL     1      45.908   5.465  13.478  0.00  0.00    +0.000 NA
ENDROOT
BRANCH   1  14
ATOM      6  C   UNL     1      51.322   9.736  17.676  0.00  0.00    +0.000 C 
ATOM      7  C   UNL     1      50.682   8.423  18.105  0.00  0.00    +0.000 C 
ATOM      8  C   UNL     1      50.674   7.399  16.946  0.00  0.00    +0.000 C 
ATOM      9  N   UNL     1      50.197   6.119  17.452  0.00  0.00    +0.000 N 
ATOM     10  C   UNL     1      49.203   5.405  16.848  0.00  0.00    +0.000 A 
ATOM     11  N   UNL     1      48.807   4.254  17.416  0.00  0.00    +0.000 NA
ATOM     12  C   UNL     1      47.803   3.566  16.850  0.00  0.00    +0.000 A 
ATOM     13  C   UNL     1      47.173   3.978  15.712  0.00  0.00    +0.000 A 
ATOM     14  C   UNL     1      47.666   5.144  15.187  0.00  0.00    +0.000 A 
ATOM     15  N   UNL     1      48.654   5.879  15.730  0.00  0.00    +0.000 NA
ATOM     16  C   UNL     1      50.852   5.612  18.649  0.00  0.00    +0.000 C 
ATOM     17  C   UNL     1      50.837   6.702  19.735  0.00  0.00    +0.000 C 
ATOM     18  C   UNL     1      51.638   6.243  20.946  0.00  0.00    +0.000 C 
ATOM     19  O   UNL     1      51.422   7.925  19.243  0.00  0.00    +0.000 OA
ENDBRANCH   1  14
BRANCH   4  20
ATOM     20  O   UNL     1      44.813   6.121  11.385  0.00  0.00    +0.000 OA
BRANCH  20  21
ATOM     21  C   UNL     1      43.820   5.083  11.243  0.00  0.00    +0.000 C 
ATOM     22  C   UNL     1      42.628   5.257  12.173  0.00  0.00    +0.000 C 
ATOM     23  C   UNL     1      43.496   4.045  12.290  0.00  0.00    +0.000 C 
BRANCH  21  24
ATOM     24  N   UNL     1      43.600   4.782   9.800  0.00  0.00    +0.000 N 
ATOM     25  H   UNL     1      43.517   5.659   9.285  0.00  0.00    +0.000 HD
BRANCH  24  26
ATOM     26  C   UNL     1      44.594   4.037   9.103  0.00  0.00    +0.000 A 
ATOM     27  N   UNL     1      45.461   4.687   8.286  0.00  0.00    +0.000 NA
ATOM     28  C   UNL     1      46.383   3.953   7.612  0.00  0.00    +0.000 A 
ATOM     29  C   UNL     1      46.520   2.582   7.721  0.00  0.00    +0.000 A 
ATOM     30  C   UNL     1      45.648   1.915   8.583  0.00  0.00    +0.000 A 
ATOM     31  C   UNL     1      44.679   2.645   9.263  0.00  0.00    +0.000 A 
ATOM     32  F   UNL     1      43.811   1.989  10.051  0.00  0.00    +0.000 F 
BRANCH  29  33
ATOM     33  C   UNL     1      47.524   1.794   6.964  0.00  0.00    +0.000 C 
ATOM     34  N   UNL     1      48.606   2.427   6.427  0.00  0.00    +0.000 N 
ATOM     35  O   UNL     1      47.385   0.584   6.810  0.00  0.00    +0.000 OA
ATOM     36  H   UNL     1      48.819   3.411   6.482  0.00  0.00    +0.000 HD
ATOM     37  H   UNL     1      49.257   1.843   5.905  0.00  0.00    +0.000 HD
ENDBRANCH  29  33
ENDBRANCH  24  26
ENDBRANCH  21  24
ENDBRANCH  20  21
ENDBRANCH   4  20
TORSDOF 6
ENDMDL
MODEL 3
REMARK VINA RESULT:    -8.638      1.935      2.252
REMARK INTER + INTRA:         -12.725
REMARK INTER:                 -12.649
REMARK INTRA:                  -0.076
REMARK UNBOUND:                -1.057
REMARK  Name = 
REMARK  8 active torsions:
REMARK  status: ('A' for Active; 'I' for Inactive)
REMARK    1  A    between atoms: C_1  and  C_2
REMARK    2  A    between atoms: C_9  and  C_10
REMARK    3  A    between atoms: C_13  and  O_14
REMARK    4  A    between atoms: O_14  and  C_15
REMARK    5  A    between atoms: C_15  and  N_16
REMARK    6  A    between atoms: N_16  and  C_17
REMARK    7  A    between atoms: C_20  and  C_21
REMARK    8  A    between atoms: C_32  and  C_33
REMARK                            x       y       z     vdW  Elec       q    Type
REMARK                         _______ _______ _______ _____ _____    ______ ____
ROOT
ATOM      1  C   UNL     1      47.794   6.668  12.711  0.00  0.00    +0.000 C 
ATOM      2  C   UNL     1      47.239   5.614  13.582  0.00  0.00    +0.000 C 
ATOM      3  C   UNL     1      45.948   5.393  13.019  0.00  0.00    +0.000 C 
ATOM      4  C   UNL     1      45.828   6.250  11.996  0.00  0.00    +0.000 C 
ATOM      5  N   UNL     1      46.960   7.021  11.774  0.00  0.00    +0.000 NA
ENDROOT
BRANCH   1  14
ATOM      6  C   UNL     1      51.481   4.722  18.314  0.00  0.00    +0.000 C 
ATOM      7  C   UNL     1      51.959   5.554  17.131  0.00  0.00    +0.000 C 
ATOM      8  C   UNL     1      50.861   6.533  16.655  0.00  0.00    +0.000 C 
ATOM      9  N   UNL     1      51.421   7.406  15.632  0.00  0.00    +0.000 N 
ATOM     10  C   UNL     1      50.821   7.615  14.424  0.00  0.00    +0.000 A 
ATOM     11  N   UNL     1      51.439   8.409  13.533  0.00  0.00    +0.000 NA
ATOM     12  C   UNL     1      50.875   8.588  12.329  0.00  0.00    +0.000 A 
ATOM     13  C   UNL     1      49.692   8.009  11.972  0.00  0.00    +0.000 A 
ATOM     14  C   UNL     1      49.120   7.245  12.956  0.00  0.00    +0.000 A 
ATOM     15  N   UNL     1      49.657   7.019  14.168  0.00  0.00    +0.000 NA
ATOM     16  C   UNL     1      52.669   8.077  15.967  0.00  0.00    +0.000 C 
ATOM     17  C   UNL     1      53.690   7.033  16.454  0.00  0.00    +0.000 C 
ATOM     18  C   UNL     1      54.955   7.727  16.939  0.00  0.00    +0.000 C 
ATOM     19  O   UNL     1      53.151   6.259  17.545  0.00  0.00    +0.000 OA
ENDBRANCH   1  14
BRANCH   4  20
ATOM     20  O   UNL     1      44.705   6.239  11.209  0.00  0.00    +0.000 OA
BRANCH  20  21
ATOM     21  C   UNL     1      43.835   5.093  11.091  0.00  0.00    +0.000 C 
ATOM     22  C   UNL     1      42.642   5.143  12.036  0.00  0.00    +0.000 C 
ATOM     23  C   UNL     1      43.644   4.039  12.154  0.00  0.00    +0.000 C 
BRANCH  21  24
ATOM     24  N   UNL     1      43.633   4.752   9.655  0.00  0.00    +0.000 N 
ATOM     25  H   UNL     1      43.494   5.613   9.123  0.00  0.00    +0.000 HD
BRANCH  24  26
ATOM     26  C   UNL     1      44.670   4.058   8.970  0.00  0.00    +0.000 A 
ATOM     27  N   UNL     1      45.542   4.757   8.200  0.00  0.00    +0.000 NA
ATOM     28  C   UNL     1      46.507   4.071   7.536  0.00  0.00    +0.000 A 
ATOM     29  C   UNL     1      46.683   2.702   7.610  0.00  0.00    +0.000 A 
ATOM     30  C   UNL     1      45.806   1.984   8.424  0.00  0.00    +0.000 A 
ATOM     31  C   UNL     1      44.793   2.665   9.093  0.00  0.00    +0.000 A 
ATOM     32  F   UNL     1      43.921   1.961   9.833  0.00  0.00    +0.000 F 
BRANCH  29  33
ATOM     33  C   UNL     1      47.735   1.967   6.865  0.00  0.00    +0.000 C 
ATOM     34  N   UNL     1      48.749   2.663   6.275  0.00  0.00    +0.000 N 
ATOM     35  O   UNL     1      47.695   0.744   6.766  0.00  0.00    +0.000 OA
ATOM     36  H   UNL     1      48.879   3.663   6.283  0.00  0.00    +0.000 HD
ATOM     37  H   UNL     1      49.436   2.112   5.764  0.00  0.00    +0.000 HD
ENDBRANCH  29  33
ENDBRANCH  24  26
ENDBRANCH  21  24
ENDBRANCH  20  21
ENDBRANCH   4  20
TORSDOF 6
ENDMDL
MODEL 4
REMARK VINA RESULT:    -8.315      4.278      5.121
REMARK INTER + INTRA:         -12.288
REMARK INTER:                 -12.077
REMARK INTRA:                  -0.212
REMARK UNBOUND:                -1.057
REMARK  Name = 
REMARK  8 active torsions:
REMARK  status: ('A' for Active; 'I' for Inactive)
REMARK    1  A    between atoms: C_1  and  C_2
REMARK    2  A    between atoms: C_9  and  C_10
REMARK    3  A    between atoms: C_13  and  O_14
REMARK    4  A    between atoms: O_14  and  C_15
REMARK    5  A    between atoms: C_15  and  N_16
REMARK    6  A    between atoms: N_16  and  C_17
REMARK    7  A    between atoms: C_20  and  C_21
REMARK    8  A    between atoms: C_32  and  C_33
REMARK                            x       y       z     vdW  Elec       q    Type
REMARK                         _______ _______ _______ _____ _____    ______ ____
ROOT
ATOM      1  C   UNL     1      46.994   7.910  12.055  0.00  0.00    +0.000 C 
ATOM      2  C   UNL     1      45.657   8.244  12.584  0.00  0.00    +0.000 C 
ATOM      3  C   UNL     1      44.989   6.985  12.552  0.00  0.00    +0.000 C 
ATOM      4  C   UNL     1      45.858   6.105  12.039  0.00  0.00    +0.000 C 
ATOM      5  N   UNL     1      47.103   6.648  11.753  0.00  0.00    +0.000 NA
ENDROOT
BRANCH   1  14
ATOM      6  C   UNL     1      53.118   6.253   9.136  0.00  0.00    +0.000 C 
ATOM      7  C   UNL     1      52.582   7.645   9.441  0.00  0.00    +0.000 C 
ATOM      8  C   UNL     1      51.823   7.671  10.788  0.00  0.00    +0.000 C 
ATOM      9  N   UNL     1      51.470   9.048  11.104  0.00  0.00    +0.000 N 
ATOM     10  C   UNL     1      50.207   9.430  11.453  0.00  0.00    +0.000 A 
ATOM     11  N   UNL     1      49.976  10.733  11.687  0.00  0.00    +0.000 NA
ATOM     12  C   UNL     1      48.729  11.122  11.992  0.00  0.00    +0.000 A 
ATOM     13  C   UNL     1      47.684  10.250  12.090  0.00  0.00    +0.000 A 
ATOM     14  C   UNL     1      48.022   8.940  11.868  0.00  0.00    +0.000 A 
ATOM     15  N   UNL     1      49.252   8.505  11.537  0.00  0.00    +0.000 NA
ATOM     16  C   UNL     1      52.551  10.022  11.046  0.00  0.00    +0.000 C 
ATOM     17  C   UNL     1      53.265   9.907   9.688  0.00  0.00    +0.000 C 
ATOM     18  C   UNL     1      54.483  10.820   9.659  0.00  0.00    +0.000 C 
ATOM     19  O   UNL     1      53.706   8.555   9.452  0.00  0.00    +0.000 OA
ENDBRANCH   1  14
BRANCH   4  20
ATOM     20  O   UNL     1      45.525   4.779  11.934  0.00  0.00    +0.000 OA
BRANCH  20  21
ATOM     21  C   UNL     1      44.232   4.324  11.481  0.00  0.00    +0.000 C 
ATOM     22  C   UNL     1      43.104   4.653  12.449  0.00  0.00    +0.000 C 
ATOM     23  C   UNL     1      43.424   3.227  12.131  0.00  0.00    +0.000 C 
BRANCH  21  24
ATOM     24  N   UNL     1      44.072   4.610  10.028  0.00  0.00    +0.000 N 
ATOM     25  H   UNL     1      44.140   5.617   9.875  0.00  0.00    +0.000 HD
BRANCH  24  26
ATOM     26  C   UNL     1      45.003   4.034   9.117  0.00  0.00    +0.000 A 
ATOM     27  N   UNL     1      45.847   4.844   8.430  0.00  0.00    +0.000 NA
ATOM     28  C   UNL     1      46.709   4.276   7.548  0.00  0.00    +0.000 A 
ATOM     29  C   UNL     1      46.806   2.916   7.318  0.00  0.00    +0.000 A 
ATOM     30  C   UNL     1      45.959   2.079   8.044  0.00  0.00    +0.000 A 
ATOM     31  C   UNL     1      45.050   2.644   8.934  0.00  0.00    +0.000 A 
ATOM     32  F   UNL     1      44.203   1.834   9.592  0.00  0.00    +0.000 F 
BRANCH  29  33
ATOM     33  C   UNL     1      47.744   2.314   6.338  0.00  0.00    +0.000 C 
ATOM     34  N   UNL     1      47.930   2.919   5.129  0.00  0.00    +0.000 N 
ATOM     35  O   UNL     1      48.342   1.274   6.600  0.00  0.00    +0.000 OA
ATOM     36  H   UNL     1      47.489   3.765   4.803  0.00  0.00    +0.000 HD
ATOM     37  H   UNL     1      48.572   2.457   4.489  0.00  0.00    +0.000 HD
ENDBRANCH  29  33
ENDBRANCH  24  26
ENDBRANCH  21  24
ENDBRANCH  20  21
ENDBRANCH   4  20
TORSDOF 6
ENDMDL
MODEL 5
REMARK VINA RESULT:    -8.244      3.354      4.197
REMARK INTER + INTRA:         -12.192
REMARK INTER:                 -11.165
REMARK INTRA:                  -1.027
REMARK UNBOUND:                -1.057
REMARK  Name = 
REMARK  8 active torsions:
REMARK  status: ('A' for Active; 'I' for Inactive)
REMARK    1  A    between atoms: C_1  and  C_2
REMARK    2  A    between atoms: C_9  and  C_10
REMARK    3  A    between atoms: C_13  and  O_14
REMARK    4  A    between atoms: O_14  and  C_15
REMARK    5  A    between atoms: C_15  and  N_16
REMARK    6  A    between atoms: N_16  and  C_17
REMARK    7  A    between atoms: C_20  and  C_21
REMARK    8  A    between atoms: C_32  and  C_33
REMARK                            x       y       z     vdW  Elec       q    Type
REMARK                         _______ _______ _______ _____ _____    ______ ____
ROOT
ATOM      1  C   UNL     1      46.487   7.866  12.743  0.00  0.00    +0.000 C 
ATOM      2  C   UNL     1      45.756   8.686  11.757  0.00  0.00    +0.000 C 
ATOM      3  C   UNL     1      44.657   7.846  11.409  0.00  0.00    +0.000 C 
ATOM      4  C   UNL     1      44.811   6.712  12.105  0.00  0.00    +0.000 C 
ATOM      5  N   UNL     1      45.912   6.715  12.949  0.00  0.00    +0.000 NA
ENDROOT
BRANCH   1  14
ATOM      6  C   UNL     1      52.395   7.845   9.020  0.00  0.00    +0.000 C 
ATOM      7  C   UNL     1      52.159   8.486  10.380  0.00  0.00    +0.000 C 
ATOM      8  C   UNL     1      51.256   7.598  11.268  0.00  0.00    +0.000 C 
ATOM      9  N   UNL     1      51.190   8.179  12.602  0.00  0.00    +0.000 N 
ATOM     10  C   UNL     1      50.014   8.408  13.256  0.00  0.00    +0.000 A 
ATOM     11  N   UNL     1      50.060   8.985  14.468  0.00  0.00    +0.000 NA
ATOM     12  C   UNL     1      48.906   9.250  15.101  0.00  0.00    +0.000 A 
ATOM     13  C   UNL     1      47.685   8.947  14.572  0.00  0.00    +0.000 A 
ATOM     14  C   UNL     1      47.740   8.331  13.348  0.00  0.00    +0.000 A 
ATOM     15  N   UNL     1      48.869   8.066  12.667  0.00  0.00    +0.000 NA
ATOM     16  C   UNL     1      52.464   8.497  13.232  0.00  0.00    +0.000 C 
ATOM     17  C   UNL     1      53.304   9.356  12.271  0.00  0.00    +0.000 C 
ATOM     18  C   UNL     1      54.692   9.584  12.852  0.00  0.00    +0.000 C 
ATOM     19  O   UNL     1      53.449   8.703  10.993  0.00  0.00    +0.000 OA
ENDBRANCH   1  14
BRANCH   4  20
ATOM     20  O   UNL     1      43.869   5.718  12.029  0.00  0.00    +0.000 OA
BRANCH  20  21
ATOM     21  C   UNL     1      44.157   4.395  11.527  0.00  0.00    +0.000 C 
ATOM     22  C   UNL     1      43.710   3.284  12.467  0.00  0.00    +0.000 C 
ATOM     23  C   UNL     1      45.159   3.440  12.128  0.00  0.00    +0.000 C 
BRANCH  21  24
ATOM     24  N   UNL     1      43.829   4.318  10.075  0.00  0.00    +0.000 N 
ATOM     25  H   UNL     1      43.587   5.251   9.738  0.00  0.00    +0.000 HD
BRANCH  24  26
ATOM     26  C   UNL     1      44.829   3.847   9.178  0.00  0.00    +0.000 A 
ATOM     27  N   UNL     1      45.644   4.741   8.564  0.00  0.00    +0.000 NA
ATOM     28  C   UNL     1      46.574   4.272   7.693  0.00  0.00    +0.000 A 
ATOM     29  C   UNL     1      46.768   2.934   7.405  0.00  0.00    +0.000 A 
ATOM     30  C   UNL     1      45.949   2.010   8.058  0.00  0.00    +0.000 A 
ATOM     31  C   UNL     1      44.973   2.473   8.935  0.00  0.00    +0.000 A 
ATOM     32  F   UNL     1      44.156   1.581   9.519  0.00  0.00    +0.000 F 
BRANCH  29  33
ATOM     33  C   UNL     1      47.779   2.439   6.438  0.00  0.00    +0.000 C 
ATOM     34  N   UNL     1      47.793   2.941   5.169  0.00  0.00    +0.000 N 
ATOM     35  O   UNL     1      48.592   1.580   6.765  0.00  0.00    +0.000 OA
ATOM     36  H   UNL     1      47.173   3.638   4.788  0.00  0.00    +0.000 HD
ATOM     37  H   UNL     1      48.497   2.557   4.542  0.00  0.00    +0.000 HD
ENDBRANCH  29  33
ENDBRANCH  24  26
ENDBRANCH  21  24
ENDBRANCH  20  21
ENDBRANCH   4  20
TORSDOF 6
ENDMDL
MODEL 6
REMARK VINA RESULT:    -7.916      2.973      3.667
REMARK INTER + INTRA:         -11.749
REMARK INTER:                 -10.756
REMARK INTRA:                  -0.993
REMARK UNBOUND:                -1.057
REMARK  Name = 
REMARK  8 active torsions:
REMARK  status: ('A' for Active; 'I' for Inactive)
REMARK    1  A    between atoms: C_1  and  C_2
REMARK    2  A    between atoms: C_9  and  C_10
REMARK    3  A    between atoms: C_13  and  O_14
REMARK    4  A    between atoms: O_14  and  C_15
REMARK    5  A    between atoms: C_15  and  N_16
REMARK    6  A    between atoms: N_16  and  C_17
REMARK    7  A    between atoms: C_20  and  C_21
REMARK    8  A    between atoms: C_32  and  C_33
REMARK                            x       y       z     vdW  Elec       q    Type
REMARK                         _______ _______ _______ _____ _____    ______ ____
ROOT
ATOM      1  C   UNL     1      48.201   7.266  13.189  0.00  0.00    +0.000 C 
ATOM      2  C   UNL     1      48.606   7.353  11.772  0.00  0.00    +0.000 C 
ATOM      3  C   UNL     1      47.395   7.048  11.084  0.00  0.00    +0.000 C 
ATOM      4  C   UNL     1      46.475   6.800  12.025  0.00  0.00    +0.000 C 
ATOM      5  N   UNL     1      46.942   6.955  13.322  0.00  0.00    +0.000 NA
ENDROOT
BRANCH   1  14
ATOM      6  C   UNL     1      54.400  10.200  11.871  0.00  0.00    +0.000 C 
ATOM      7  C   UNL     1      53.783   9.905  13.232  0.00  0.00    +0.000 C 
ATOM      8  C   UNL     1      53.030   8.554  13.225  0.00  0.00    +0.000 C 
ATOM      9  N   UNL     1      52.597   8.249  14.581  0.00  0.00    +0.000 N 
ATOM     10  C   UNL     1      51.315   7.896  14.891  0.00  0.00    +0.000 A 
ATOM     11  N   UNL     1      51.008   7.673  16.179  0.00  0.00    +0.000 NA
ATOM     12  C   UNL     1      49.741   7.365  16.497  0.00  0.00    +0.000 A 
ATOM     13  C   UNL     1      48.751   7.255  15.565  0.00  0.00    +0.000 A 
ATOM     14  C   UNL     1      49.165   7.467  14.275  0.00  0.00    +0.000 A 
ATOM     15  N   UNL     1      50.417   7.800  13.912  0.00  0.00    +0.000 NA
ATOM     16  C   UNL     1      53.618   8.320  15.617  0.00  0.00    +0.000 C 
ATOM     17  C   UNL     1      54.331   9.681  15.533  0.00  0.00    +0.000 C 
ATOM     18  C   UNL     1      55.493   9.724  16.515  0.00  0.00    +0.000 C 
ATOM     19  O   UNL     1      54.851   9.907  14.207  0.00  0.00    +0.000 OA
ENDBRANCH   1  14
BRANCH   4  20
ATOM     20  O   UNL     1      45.177   6.532  11.674  0.00  0.00    +0.000 OA
BRANCH  20  21
ATOM     21  C   UNL     1      44.663   5.192  11.517  0.00  0.00    +0.000 C 
ATOM     22  C   UNL     1      43.782   4.745  12.675  0.00  0.00    +0.000 C 
ATOM     23  C   UNL     1      45.049   4.010  12.373  0.00  0.00    +0.000 C 
BRANCH  21  24
ATOM     24  N   UNL     1      44.210   4.981  10.113  0.00  0.00    +0.000 N 
ATOM     25  H   UNL     1      44.114   5.887   9.653  0.00  0.00    +0.000 HD
BRANCH  24  26
ATOM     26  C   UNL     1      45.032   4.210   9.244  0.00  0.00    +0.000 A 
ATOM     27  N   UNL     1      45.915   4.842   8.430  0.00  0.00    +0.000 NA
ATOM     28  C   UNL     1      46.671   4.089   7.591  0.00  0.00    +0.000 A 
ATOM     29  C   UNL     1      46.623   2.708   7.525  0.00  0.00    +0.000 A 
ATOM     30  C   UNL     1      45.736   2.054   8.382  0.00  0.00    +0.000 A 
ATOM     31  C   UNL     1      44.934   2.810   9.231  0.00  0.00    +0.000 A 
ATOM     32  F   UNL     1      44.047   2.175  10.015  0.00  0.00    +0.000 F 
BRANCH  29  33
ATOM     33  C   UNL     1      47.445   1.901   6.590  0.00  0.00    +0.000 C 
ATOM     34  N   UNL     1      48.361   2.525   5.794  0.00  0.00    +0.000 N 
ATOM     35  O   UNL     1      47.303   0.684   6.520  0.00  0.00    +0.000 OA
ATOM     36  H   UNL     1      48.558   3.513   5.760  0.00  0.00    +0.000 HD
ATOM     37  H   UNL     1      48.889   1.927   5.161  0.00  0.00    +0.000 HD
ENDBRANCH  29  33
ENDBRANCH  24  26
ENDBRANCH  21  24
ENDBRANCH  20  21
ENDBRANCH   4  20
TORSDOF 6
ENDMDL
MODEL 7
REMARK VINA RESULT:    -7.663      1.800      2.291
REMARK INTER + INTRA:         -11.407
REMARK INTER:                 -12.004
REMARK INTRA:                   0.597
REMARK UNBOUND:                -1.057
REMARK  Name = 
REMARK  8 active torsions:
REMARK  status: ('A' for Active; 'I' for Inactive)
REMARK    1  A    between atoms: C_1  and  C_2
REMARK    2  A    between atoms: C_9  and  C_10
REMARK    3  A    between atoms: C_13  and  O_14
REMARK    4  A    between atoms: O_14  and  C_15
REMARK    5  A    between atoms: C_15  and  N_16
REMARK    6  A    between atoms: N_16  and  C_17
REMARK    7  A    between atoms: C_20  and  C_21
REMARK    8  A    between atoms: C_32  and  C_33
REMARK                            x       y       z     vdW  Elec       q    Type
REMARK                         _______ _______ _______ _____ _____    ______ ____
ROOT
ATOM      1  C   UNL     1      47.065   4.887  14.258  0.00  0.00    +0.000 C 
ATOM      2  C   UNL     1      47.218   3.471  13.871  0.00  0.00    +0.000 C 
ATOM      3  C   UNL     1      46.106   3.265  13.003  0.00  0.00    +0.000 C 
ATOM      4  C   UNL     1      45.434   4.423  12.965  0.00  0.00    +0.000 C 
ATOM      5  N   UNL     1      46.021   5.438  13.706  0.00  0.00    +0.000 NA
ENDROOT
BRANCH   1  14
ATOM      6  C   UNL     1      51.791   1.055  17.686  0.00  0.00    +0.000 C 
ATOM      7  C   UNL     1      51.703   2.574  17.615  0.00  0.00    +0.000 C 
ATOM      8  C   UNL     1      50.233   3.052  17.661  0.00  0.00    +0.000 C 
ATOM      9  N   UNL     1      50.214   4.506  17.747  0.00  0.00    +0.000 N 
ATOM     10  C   UNL     1      49.464   5.290  16.919  0.00  0.00    +0.000 A 
ATOM     11  N   UNL     1      49.547   6.624  17.054  0.00  0.00    +0.000 NA
ATOM     12  C   UNL     1      48.843   7.402  16.217  0.00  0.00    +0.000 A 
ATOM     13  C   UNL     1      48.034   6.898  15.241  0.00  0.00    +0.000 A 
ATOM     14  C   UNL     1      47.988   5.528  15.200  0.00  0.00    +0.000 A 
ATOM     15  N   UNL     1      48.692   4.708  16.002  0.00  0.00    +0.000 NA
ATOM     16  C   UNL     1      51.035   5.103  18.791  0.00  0.00    +0.000 C 
ATOM     17  C   UNL     1      52.468   4.551  18.686  0.00  0.00    +0.000 C 
ATOM     18  C   UNL     1      53.308   5.055  19.851  0.00  0.00    +0.000 C 
ATOM     19  O   UNL     1      52.466   3.109  18.719  0.00  0.00    +0.000 OA
ENDBRANCH   1  14
BRANCH   4  20
ATOM     20  O   UNL     1      44.333   4.561  12.158  0.00  0.00    +0.000 OA
BRANCH  20  21
ATOM     21  C   UNL     1      44.240   5.553  11.114  0.00  0.00    +0.000 C 
ATOM     22  C   UNL     1      45.430   6.502  11.076  0.00  0.00    +0.000 C 
ATOM     23  C   UNL     1      44.058   7.035  11.340  0.00  0.00    +0.000 C 
BRANCH  21  24
ATOM     24  N   UNL     1      43.750   4.924   9.855  0.00  0.00    +0.000 N 
ATOM     25  H   UNL     1      43.647   5.644   9.139  0.00  0.00    +0.000 HD
BRANCH  24  26
ATOM     26  C   UNL     1      44.546   3.911   9.249  0.00  0.00    +0.000 A 
ATOM     27  N   UNL     1      44.207   2.608   9.421  0.00  0.00    +0.000 NA
ATOM     28  C   UNL     1      44.994   1.658   8.856  0.00  0.00    +0.000 A 
ATOM     29  C   UNL     1      46.113   1.926   8.089  0.00  0.00    +0.000 A 
ATOM     30  C   UNL     1      46.447   3.266   7.887  0.00  0.00    +0.000 A 
ATOM     31  C   UNL     1      45.668   4.255   8.479  0.00  0.00    +0.000 A 
ATOM     32  F   UNL     1      46.026   5.540   8.323  0.00  0.00    +0.000 F 
BRANCH  29  33
ATOM     33  C   UNL     1      46.972   0.874   7.492  0.00  0.00    +0.000 C 
ATOM     34  N   UNL     1      46.711  -0.437   7.763  0.00  0.00    +0.000 N 
ATOM     35  O   UNL     1      47.917   1.173   6.767  0.00  0.00    +0.000 OA
ATOM     36  H   UNL     1      45.973  -0.798   8.346  0.00  0.00    +0.000 HD
ATOM     37  H   UNL     1      47.339  -1.118   7.340  0.00  0.00    +0.000 HD
ENDBRANCH  29  33
ENDBRANCH  24  26
ENDBRANCH  21  24
ENDBRANCH  20  21
ENDBRANCH   4  20
TORSDOF 6
ENDMDL
MODEL 8
REMARK VINA RESULT:    -7.420      2.391      2.970
REMARK INTER + INTRA:         -11.080
REMARK INTER:                 -10.739
REMARK INTRA:                  -0.341
REMARK UNBOUND:                -1.057
REMARK  Name = 
REMARK  8 active torsions:
REMARK  status: ('A' for Active; 'I' for Inactive)
REMARK    1  A    between atoms: C_1  and  C_2
REMARK    2  A    between atoms: C_9  and  C_10
REMARK    3  A    between atoms: C_13  and  O_14
REMARK    4  A    between atoms: O_14  and  C_15
REMARK    5  A    between atoms: C_15  and  N_16
REMARK    6  A    between atoms: N_16  and  C_17
REMARK    7  A    between atoms: C_20  and  C_21
REMARK    8  A    between atoms: C_32  and  C_33
REMARK                            x       y       z     vdW  Elec       q    Type
REMARK                         _______ _______ _______ _____ _____    ______ ____
ROOT
ATOM      1  C   UNL     1      47.319   7.131  12.689  0.00  0.00    +0.000 C 
ATOM      2  C   UNL     1      45.952   7.654  12.500  0.00  0.00    +0.000 C 
ATOM      3  C   UNL     1      45.187   6.464  12.322  0.00  0.00    +0.000 C 
ATOM      4  C   UNL     1      46.053   5.444  12.378  0.00  0.00    +0.000 C 
ATOM      5  N   UNL     1      47.361   5.830  12.630  0.00  0.00    +0.000 NA
ENDROOT
BRANCH   1  14
ATOM      6  C   UNL     1      52.303   5.570  17.326  0.00  0.00    +0.000 C 
ATOM      7  C   UNL     1      52.331   6.664  16.267  0.00  0.00    +0.000 C 
ATOM      8  C   UNL     1      50.946   7.338  16.123  0.00  0.00    +0.000 C 
ATOM      9  N   UNL     1      51.067   8.472  15.217  0.00  0.00    +0.000 N 
ATOM     10  C   UNL     1      50.233   8.667  14.154  0.00  0.00    +0.000 A 
ATOM     11  N   UNL     1      50.454   9.724  13.355  0.00  0.00    +0.000 NA
ATOM     12  C   UNL     1      49.663   9.901  12.285  0.00  0.00    +0.000 A 
ATOM     13  C   UNL     1      48.634   9.059  11.979  0.00  0.00    +0.000 A 
ATOM     14  C   UNL     1      48.465   8.029  12.868  0.00  0.00    +0.000 A 
ATOM     15  N   UNL     1      49.245   7.800  13.940  0.00  0.00    +0.000 NA
ATOM     16  C   UNL     1      52.130   9.423  15.511  0.00  0.00    +0.000 C 
ATOM     17  C   UNL     1      53.460   8.665  15.664  0.00  0.00    +0.000 C 
ATOM     18  C   UNL     1      54.559   9.621  16.107  0.00  0.00    +0.000 C 
ATOM     19  O   UNL     1      53.344   7.620  16.652  0.00  0.00    +0.000 OA
ENDBRANCH   1  14
BRANCH   4  20
ATOM     20  O   UNL     1      45.607   4.149  12.298  0.00  0.00    +0.000 OA
BRANCH  20  21
ATOM     21  C   UNL     1      44.281   3.798  11.848  0.00  0.00    +0.000 C 
ATOM     22  C   UNL     1      43.203   4.055  12.892  0.00  0.00    +0.000 C 
ATOM     23  C   UNL     1      43.451   2.665  12.400  0.00  0.00    +0.000 C 
BRANCH  21  24
ATOM     24  N   UNL     1      44.081   4.257  10.444  0.00  0.00    +0.000 N 
ATOM     25  H   UNL     1      44.200   5.270  10.403  0.00  0.00    +0.000 HD
BRANCH  24  26
ATOM     26  C   UNL     1      44.941   3.742   9.434  0.00  0.00    +0.000 A 
ATOM     27  N   UNL     1      44.939   2.410   9.174  0.00  0.00    +0.000 NA
ATOM     28  C   UNL     1      45.786   1.938   8.225  0.00  0.00    +0.000 A 
ATOM     29  C   UNL     1      46.640   2.728   7.478  0.00  0.00    +0.000 A 
ATOM     30  C   UNL     1      46.624   4.102   7.723  0.00  0.00    +0.000 A 
ATOM     31  C   UNL     1      45.781   4.603   8.710  0.00  0.00    +0.000 A 
ATOM     32  F   UNL     1      45.809   5.920   8.975  0.00  0.00    +0.000 F 
BRANCH  29  33
ATOM     33  C   UNL     1      47.571   2.193   6.454  0.00  0.00    +0.000 C 
ATOM     34  N   UNL     1      47.875   2.952   5.362  0.00  0.00    +0.000 N 
ATOM     35  O   UNL     1      48.061   1.073   6.576  0.00  0.00    +0.000 OA
ATOM     36  H   UNL     1      47.529   3.875   5.154  0.00  0.00    +0.000 HD
ATOM     37  H   UNL     1      48.507   2.532   4.683  0.00  0.00    +0.000 HD
ENDBRANCH  29  33
ENDBRANCH  24  26
ENDBRANCH  21  24
ENDBRANCH  20  21
ENDBRANCH   4  20
TORSDOF 6
ENDMDL
MODEL 9
REMARK VINA RESULT:    -6.870      2.048      2.325
REMARK INTER + INTRA:         -10.336
REMARK INTER:                  -9.227
REMARK INTRA:                  -1.109
REMARK UNBOUND:                -1.057
REMARK  Name = 
REMARK  8 active torsions:
REMARK  status: ('A' for Active; 'I' for Inactive)
REMARK    1  A    between atoms: C_1  and  C_2
REMARK    2  A    between atoms: C_9  and  C_10
REMARK    3  A    between atoms: C_13  and  O_14
REMARK    4  A    between atoms: O_14  and  C_15
REMARK    5  A    between atoms: C_15  and  N_16
REMARK    6  A    between atoms: N_16  and  C_17
REMARK    7  A    between atoms: C_20  and  C_21
REMARK    8  A    between atoms: C_32  and  C_33
REMARK                            x       y       z     vdW  Elec       q    Type
REMARK                         _______ _______ _______ _____ _____    ______ ____
ROOT
ATOM      1  C   UNL     1      48.628   7.406  13.404  0.00  0.00    +0.000 C 
ATOM      2  C   UNL     1      48.922   7.449  11.958  0.00  0.00    +0.000 C 
ATOM      3  C   UNL     1      47.686   7.033  11.379  0.00  0.00    +0.000 C 
ATOM      4  C   UNL     1      46.857   6.773  12.398  0.00  0.00    +0.000 C 
ATOM      5  N   UNL     1      47.407   7.022  13.647  0.00  0.00    +0.000 NA
ENDROOT
BRANCH   1  14
ATOM      6  C   UNL     1      47.526   5.934  20.141  0.00  0.00    +0.000 C 
ATOM      7  C   UNL     1      48.829   6.376  19.489  0.00  0.00    +0.000 C 
ATOM      8  C   UNL     1      48.577   7.446  18.402  0.00  0.00    +0.000 C 
ATOM      9  N   UNL     1      49.859   7.943  17.924  0.00  0.00    +0.000 N 
ATOM     10  C   UNL     1      50.181   8.018  16.600  0.00  0.00    +0.000 A 
ATOM     11  N   UNL     1      51.406   8.454  16.264  0.00  0.00    +0.000 NA
ATOM     12  C   UNL     1      51.744   8.493  14.965  0.00  0.00    +0.000 A 
ATOM     13  C   UNL     1      50.891   8.121  13.967  0.00  0.00    +0.000 A 
ATOM     14  C   UNL     1      49.654   7.722  14.404  0.00  0.00    +0.000 A 
ATOM     15  N   UNL     1      49.278   7.645  15.693  0.00  0.00    +0.000 NA
ATOM     16  C   UNL     1      50.802   8.384  18.943  0.00  0.00    +0.000 C 
ATOM     17  C   UNL     1      50.971   7.272  19.993  0.00  0.00    +0.000 C 
ATOM     18  C   UNL     1      51.844   7.763  21.138  0.00  0.00    +0.000 C 
ATOM     19  O   UNL     1      49.693   6.879  20.533  0.00  0.00    +0.000 OA
ENDBRANCH   1  14
BRANCH   4  20
ATOM     20  O   UNL     1      45.558   6.404  12.159  0.00  0.00    +0.000 OA
BRANCH  20  21
ATOM     21  C   UNL     1      45.110   5.032  12.187  0.00  0.00    +0.000 C 
ATOM     22  C   UNL     1      44.623   4.585  13.558  0.00  0.00    +0.000 C 
ATOM     23  C   UNL     1      45.799   3.911  12.926  0.00  0.00    +0.000 C 
BRANCH  21  24
ATOM     24  N   UNL     1      44.293   4.738  10.976  0.00  0.00    +0.000 N 
ATOM     25  H   UNL     1      43.979   5.618  10.563  0.00  0.00    +0.000 HD
BRANCH  24  26
ATOM     26  C   UNL     1      44.902   4.023   9.905  0.00  0.00    +0.000 A 
ATOM     27  N   UNL     1      44.721   2.681   9.816  0.00  0.00    +0.000 NA
ATOM     28  C   UNL     1      45.332   2.016   8.802  0.00  0.00    +0.000 A 
ATOM     29  C   UNL     1      46.109   2.618   7.830  0.00  0.00    +0.000 A 
ATOM     30  C   UNL     1      46.273   4.002   7.904  0.00  0.00    +0.000 A 
ATOM     31  C   UNL     1      45.677   4.699   8.950  0.00  0.00    +0.000 A 
ATOM     32  F   UNL     1      45.881   6.024   9.043  0.00  0.00    +0.000 F 
BRANCH  29  33
ATOM     33  C   UNL     1      46.782   1.873   6.738  0.00  0.00    +0.000 C 
ATOM     34  N   UNL     1      47.147   0.573   6.939  0.00  0.00    +0.000 N 
ATOM     35  O   UNL     1      47.021   2.415   5.663  0.00  0.00    +0.000 OA
ATOM     36  H   UNL     1      47.011   0.031   7.777  0.00  0.00    +0.000 HD
ATOM     37  H   UNL     1      47.618   0.113   6.163  0.00  0.00    +0.000 HD
ENDBRANCH  29  33
ENDBRANCH  24  26
ENDBRANCH  21  24
ENDBRANCH  20  21
ENDBRANCH   4  20
TORSDOF 6
ENDMDL
