MODEL 1
REMARK VINA RESULT:    -9.246      0.000      0.000
REMARK INTER + INTRA:         -12.178
REMARK INTER:                 -12.219
REMARK INTRA:                   0.041
REMARK UNBOUND:                 0.041
REMARK  Name = 
REMARK  6 active torsions:
REMARK  status: ('A' for Active; 'I' for Inactive)
REMARK    1  A    between atoms: N_1  and  C_2
REMARK    2  A    between atoms: C_5  and  C_6
REMARK    3  A    between atoms: C_6  and  C_7
REMARK    4  A    between atoms: C_10  and  C_11
REMARK    5  A    between atoms: C_11  and  N_12
REMARK    6  A    between atoms: C_13  and  C_15
REMARK                            x       y       z     vdW  Elec       q    Type
REMARK                         _______ _______ _______ _____ _____    ______ ____
ROOT
ATOM      1  C   UNL     1      44.950   4.076  10.364  0.00  0.00    +0.000 A 
ATOM      2  C   UNL     1      45.176   3.839  11.717  0.00  0.00    +0.000 A 
ATOM      3  C   UNL     1      45.701   4.861  12.509  0.00  0.00    +0.000 A 
ATOM      4  C   UNL     1      46.007   6.096  11.938  0.00  0.00    +0.000 A 
ATOM      5  C   UNL     1      45.748   6.244  10.580  0.00  0.00    +0.000 A 
ATOM      6  N   UNL     1      45.229   5.271   9.788  0.00  0.00    +0.000 NA
ENDROOT
BRANCH   1   7
ATOM      7  C   UNL     1      44.335   3.002   9.491  0.00  0.00    +0.000 C 
BRANCH   7  11
ATOM      8  C   UNL     1      47.723   2.191   6.776  0.00  0.00    +0.000 C 
ATOM      9  C   UNL     1      46.841   3.418   6.532  0.00  0.00    +0.000 C 
ATOM     10  C   UNL     1      46.065   3.802   7.791  0.00  0.00    +0.000 C 
ATOM     11  C   UNL     1      45.188   2.631   8.263  0.00  0.00    +0.000 C 
ATOM     12  C   UNL     1      46.087   1.416   8.559  0.00  0.00    +0.000 C 
ATOM     13  C   UNL     1      46.909   1.015   7.329  0.00  0.00    +0.000 C 
BRANCH   8  14
ATOM     14  N   UNL     1      48.393   1.796   5.537  0.00  0.00    +0.000 NA
ATOM     15  H   UNL     1      47.709   1.401   4.892  0.00  0.00    +0.000 HD
ATOM     16  H   UNL     1      49.053   1.042   5.730  0.00  0.00    +0.000 HD
ENDBRANCH   8  14
ENDBRANCH   7  11
ENDBRANCH   1   7
BRANCH   4  17
ATOM     17  C   UNL     1      46.546   7.227  12.764  0.00  0.00    +0.000 C 
BRANCH  17  18
ATOM     18  N   UNL     1      46.962   6.780  14.071  0.00  0.00    +0.000 N 
ATOM     19  C   UNL     1      48.289   6.567  14.355  0.00  0.00    +0.000 C 
ATOM     20  O   UNL     1      49.168   6.772  13.521  0.00  0.00    +0.000 OA
ATOM     21  H   UNL     1      46.252   6.390  14.684  0.00  0.00    +0.000 HD
BRANCH  19  22
ATOM     22  C   UNL     1      48.617   6.141  15.723  0.00  0.00    +0.000 A 
ATOM     23  C   UNL     1      49.420   6.949  16.517  0.00  0.00    +0.000 A 
ATOM     24  S   UNL     1      49.663   6.340  18.091  0.00  0.00    +0.000 S 
ATOM     25  C   UNL     1      48.749   4.947  17.753  0.00  0.00    +0.000 A 
ATOM     26  N   UNL     1      48.580   3.976  18.691  0.00  0.00    +0.000 NA
ATOM     27  C   UNL     1      47.888   2.963  18.292  0.00  0.00    +0.000 A 
ATOM     28  N   UNL     1      47.344   2.833  17.042  0.00  0.00    +0.000 N 
ATOM     29  C   UNL     1      47.465   3.801  16.070  0.00  0.00    +0.000 A 
ATOM     30  O   UNL     1      46.933   3.674  14.973  0.00  0.00    +0.000 OA
ATOM     31  C   UNL     1      48.245   4.957  16.464  0.00  0.00    +0.000 A 
ATOM     32  H   UNL     1      46.804   2.017  16.795  0.00  0.00    +0.000 HD
ENDBRANCH  19  22
ENDBRANCH  17  18
ENDBRANCH   4  17
TORSDOF 6
ENDMDL
MODEL 2
REMARK VINA RESULT:    -8.993      1.580      2.155
REMARK INTER + INTRA:         -11.843
REMARK INTER:                 -11.517
REMARK INTRA:                  -0.327
REMARK UNBOUND:                 0.041
REMARK  Name = 
REMARK  6 active torsions:
REMARK  status: ('A' for Active; 'I' for Inactive)
REMARK    1  A    between atoms: N_1  and  C_2
REMARK    2  A    between atoms: C_5  and  C_6
REMARK    3  A    between atoms: C_6  and  C_7
REMARK    4  A    between atoms: C_10  and  C_11
REMARK    5  A    between atoms: C_11  and  N_12
REMARK    6  A    between atoms: C_13  and  C_15
REMARK                            x       y       z     vdW  Elec       q    Type
REMARK                         _______ _______ _______ _____ _____    ______ ____
ROOT
ATOM      1  C   UNL     1      44.956   4.208  10.407  0.00  0.00    +0.000 A 
ATOM      2  C   UNL     1      45.176   3.633  11.656  0.00  0.00    +0.000 A 
ATOM      3  C   UNL     1      45.826   4.376  12.643  0.00  0.00    +0.000 A 
ATOM      4  C   UNL     1      46.258   5.673  12.365  0.00  0.00    +0.000 A 
ATOM      5  C   UNL     1      45.995   6.167  11.092  0.00  0.00    +0.000 A 
ATOM      6  N   UNL     1      45.357   5.470  10.117  0.00  0.00    +0.000 NA
ENDROOT
BRANCH   1   7
ATOM      7  C   UNL     1      44.211   3.442   9.334  0.00  0.00    +0.000 C 
BRANCH   7  11
ATOM      8  C   UNL     1      47.703   2.206   6.929  0.00  0.00    +0.000 C 
ATOM      9  C   UNL     1      46.913   3.453   6.522  0.00  0.00    +0.000 C 
ATOM     10  C   UNL     1      46.086   3.990   7.689  0.00  0.00    +0.000 C 
ATOM     11  C   UNL     1      45.113   2.917   8.201  0.00  0.00    +0.000 C 
ATOM     12  C   UNL     1      45.917   1.685   8.659  0.00  0.00    +0.000 C 
ATOM     13  C   UNL     1      46.786   1.131   7.526  0.00  0.00    +0.000 C 
BRANCH   8  14
ATOM     14  N   UNL     1      48.422   1.665   5.775  0.00  0.00    +0.000 NA
ATOM     15  H   UNL     1      49.157   2.316   5.498  0.00  0.00    +0.000 HD
ATOM     16  H   UNL     1      47.792   1.608   4.976  0.00  0.00    +0.000 HD
ENDBRANCH   8  14
ENDBRANCH   7  11
ENDBRANCH   1   7
BRANCH   4  17
ATOM     17  C   UNL     1      46.934   6.511  13.410  0.00  0.00    +0.000 C 
BRANCH  17  18
ATOM     18  N   UNL     1      47.093   5.791  14.650  0.00  0.00    +0.000 N 
ATOM     19  C   UNL     1      48.267   5.855  15.358  0.00  0.00    +0.000 C 
ATOM     20  O   UNL     1      49.212   6.543  14.980  0.00  0.00    +0.000 OA
ATOM     21  H   UNL     1      46.427   5.051  14.853  0.00  0.00    +0.000 HD
BRANCH  19  22
ATOM     22  C   UNL     1      48.322   5.110  16.624  0.00  0.00    +0.000 A 
ATOM     23  C   UNL     1      48.189   3.728  16.612  0.00  0.00    +0.000 A 
ATOM     24  S   UNL     1      48.328   3.011  18.152  0.00  0.00    +0.000 S 
ATOM     25  C   UNL     1      48.518   4.525  18.901  0.00  0.00    +0.000 A 
ATOM     26  N   UNL     1      48.662   4.625  20.250  0.00  0.00    +0.000 NA
ATOM     27  C   UNL     1      48.769   5.835  20.687  0.00  0.00    +0.000 A 
ATOM     28  N   UNL     1      48.751   6.954  19.898  0.00  0.00    +0.000 N 
ATOM     29  C   UNL     1      48.634   6.900  18.527  0.00  0.00    +0.000 A 
ATOM     30  O   UNL     1      48.661   7.917  17.844  0.00  0.00    +0.000 OA
ATOM     31  C   UNL     1      48.499   5.563  17.985  0.00  0.00    +0.000 A 
ATOM     32  H   UNL     1      48.849   7.873  20.302  0.00  0.00    +0.000 HD
ENDBRANCH  19  22
ENDBRANCH  17  18
ENDBRANCH   4  17
TORSDOF 6
ENDMDL
MODEL 3
REMARK VINA RESULT:    -8.972      2.462      4.305
REMARK INTER + INTRA:         -11.816
REMARK INTER:                 -11.034
REMARK INTRA:                  -0.782
REMARK UNBOUND:                 0.041
REMARK  Name = 
REMARK  6 active torsions:
REMARK  status: ('A' for Active; 'I' for Inactive)
REMARK    1  A    between atoms: N_1  and  C_2
REMARK    2  A    between atoms: C_5  and  C_6
REMARK    3  A    between atoms: C_6  and  C_7
REMARK    4  A    between atoms: C_10  and  C_11
REMARK    5  A    between atoms: C_11  and  N_12
REMARK    6  A    between atoms: C_13  and  C_15
REMARK                            x       y       z     vdW  Elec       q    Type
REMARK                         _______ _______ _______ _____ _____    ______ ____
ROOT
ATOM      1  C   UNL     1      44.767   3.969  10.350  0.00  0.00    +0.000 A 
ATOM      2  C   UNL     1      45.244   5.272  10.476  0.00  0.00    +0.000 A 
ATOM      3  C   UNL     1      45.902   5.646  11.648  0.00  0.00    +0.000 A 
ATOM      4  C   UNL     1      46.061   4.722  12.681  0.00  0.00    +0.000 A 
ATOM      5  C   UNL     1      45.555   3.445  12.469  0.00  0.00    +0.000 A 
ATOM      6  N   UNL     1      44.919   3.052  11.336  0.00  0.00    +0.000 NA
ENDROOT
BRANCH   1   7
ATOM      7  C   UNL     1      44.092   3.523   9.070  0.00  0.00    +0.000 C 
BRANCH   7  11
ATOM      8  C   UNL     1      47.739   2.305   6.896  0.00  0.00    +0.000 C 
ATOM      9  C   UNL     1      46.964   3.541   6.431  0.00  0.00    +0.000 C 
ATOM     10  C   UNL     1      46.061   4.077   7.541  0.00  0.00    +0.000 C 
ATOM     11  C   UNL     1      45.069   2.998   7.999  0.00  0.00    +0.000 C 
ATOM     12  C   UNL     1      45.854   1.778   8.517  0.00  0.00    +0.000 C 
ATOM     13  C   UNL     1      46.798   1.224   7.444  0.00  0.00    +0.000 C 
BRANCH   8  14
ATOM     14  N   UNL     1      48.534   1.762   5.794  0.00  0.00    +0.000 NA
ATOM     15  H   UNL     1      49.385   1.339   6.164  0.00  0.00    +0.000 HD
ATOM     16  H   UNL     1      48.848   2.524   5.192  0.00  0.00    +0.000 HD
ENDBRANCH   8  14
ENDBRANCH   7  11
ENDBRANCH   1   7
BRANCH   4  17
ATOM     17  C   UNL     1      46.788   5.080  13.944  0.00  0.00    +0.000 C 
BRANCH  17  18
ATOM     18  N   UNL     1      47.180   6.469  13.957  0.00  0.00    +0.000 N 
ATOM     19  C   UNL     1      48.325   6.873  14.599  0.00  0.00    +0.000 C 
ATOM     20  O   UNL     1      49.068   6.071  15.160  0.00  0.00    +0.000 OA
ATOM     21  H   UNL     1      46.477   7.159  13.708  0.00  0.00    +0.000 HD
BRANCH  19  22
ATOM     22  C   UNL     1      48.655   8.304  14.532  0.00  0.00    +0.000 A 
ATOM     23  C   UNL     1      48.782   9.032  15.708  0.00  0.00    +0.000 A 
ATOM     24  S   UNL     1      49.219  10.662  15.463  0.00  0.00    +0.000 S 
ATOM     25  C   UNL     1      49.202  10.469  13.773  0.00  0.00    +0.000 A 
ATOM     26  N   UNL     1      49.471  11.516  12.947  0.00  0.00    +0.000 NA
ATOM     27  C   UNL     1      49.396  11.236  11.689  0.00  0.00    +0.000 A 
ATOM     28  N   UNL     1      49.083  10.003  11.182  0.00  0.00    +0.000 N 
ATOM     29  C   UNL     1      48.831   8.909  11.978  0.00  0.00    +0.000 A 
ATOM     30  O   UNL     1      48.592   7.808  11.494  0.00  0.00    +0.000 OA
ATOM     31  C   UNL     1      48.890   9.173  13.402  0.00  0.00    +0.000 A 
ATOM     32  H   UNL     1      49.050   9.848  10.185  0.00  0.00    +0.000 HD
ENDBRANCH  19  22
ENDBRANCH  17  18
ENDBRANCH   4  17
TORSDOF 6
ENDMDL
MODEL 4
REMARK VINA RESULT:    -8.787      3.535      4.539
REMARK INTER + INTRA:         -11.572
REMARK INTER:                 -10.538
REMARK INTRA:                  -1.034
REMARK UNBOUND:                 0.041
REMARK  Name = 
REMARK  6 active torsions:
REMARK  status: ('A' for Active; 'I' for Inactive)
REMARK    1  A    between atoms: N_1  and  C_2
REMARK    2  A    between atoms: C_5  and  C_6
REMARK    3  A    between atoms: C_6  and  C_7
REMARK    4  A    between atoms: C_10  and  C_11
REMARK    5  A    between atoms: C_11  and  N_12
REMARK    6  A    between atoms: C_13  and  C_15
REMARK                            x       y       z     vdW  Elec       q    Type
REMARK                         _______ _______ _______ _____ _____    ______ ____
ROOT
ATOM      1  C   UNL     1      44.438   3.324  10.520  0.00  0.00    +0.000 A 
ATOM      2  C   UNL     1      43.603   4.410  10.268  0.00  0.00    +0.000 A 
ATOM      3  C   UNL     1      43.613   5.494  11.147  0.00  0.00    +0.000 A 
ATOM      4  C   UNL     1      44.440   5.472  12.269  0.00  0.00    +0.000 A 
ATOM      5  C   UNL     1      45.240   4.348  12.442  0.00  0.00    +0.000 A 
ATOM      6  N   UNL     1      45.258   3.285  11.598  0.00  0.00    +0.000 NA
ENDROOT
BRANCH   1   7
ATOM      7  C   UNL     1      44.485   2.156   9.557  0.00  0.00    +0.000 C 
BRANCH   7  11
ATOM      8  C   UNL     1      47.230   1.826   6.113  0.00  0.00    +0.000 C 
ATOM      9  C   UNL     1      47.256   0.748   7.201  0.00  0.00    +0.000 C 
ATOM     10  C   UNL     1      45.964   0.755   8.016  0.00  0.00    +0.000 C 
ATOM     11  C   UNL     1      45.743   2.129   8.667  0.00  0.00    +0.000 C 
ATOM     12  C   UNL     1      45.664   3.202   7.565  0.00  0.00    +0.000 C 
ATOM     13  C   UNL     1      46.929   3.210   6.701  0.00  0.00    +0.000 C 
BRANCH   8  14
ATOM     14  N   UNL     1      48.507   1.853   5.400  0.00  0.00    +0.000 NA
ATOM     15  H   UNL     1      48.828   0.898   5.240  0.00  0.00    +0.000 HD
ATOM     16  H   UNL     1      49.219   2.285   5.989  0.00  0.00    +0.000 HD
ENDBRANCH   8  14
ENDBRANCH   7  11
ENDBRANCH   1   7
BRANCH   4  17
ATOM     17  C   UNL     1      44.497   6.631  13.220  0.00  0.00    +0.000 C 
BRANCH  17  18
ATOM     18  N   UNL     1      45.710   7.395  13.056  0.00  0.00    +0.000 N 
ATOM     19  C   UNL     1      45.789   8.404  12.128  0.00  0.00    +0.000 C 
ATOM     20  O   UNL     1      44.829   8.711  11.424  0.00  0.00    +0.000 OA
ATOM     21  H   UNL     1      46.564   7.013  13.451  0.00  0.00    +0.000 HD
BRANCH  19  22
ATOM     22  C   UNL     1      47.057   9.144  12.055  0.00  0.00    +0.000 A 
ATOM     23  C   UNL     1      47.037  10.516  11.840  0.00  0.00    +0.000 A 
ATOM     24  S   UNL     1      48.583  11.234  11.835  0.00  0.00    +0.000 S 
ATOM     25  C   UNL     1      49.342   9.730  12.066  0.00  0.00    +0.000 A 
ATOM     26  N   UNL     1      50.697   9.632  12.127  0.00  0.00    +0.000 NA
ATOM     27  C   UNL     1      51.140   8.429  12.277  0.00  0.00    +0.000 A 
ATOM     28  N   UNL     1      50.350   7.314  12.377  0.00  0.00    +0.000 N 
ATOM     29  C   UNL     1      48.975   7.367  12.348  0.00  0.00    +0.000 A 
ATOM     30  O   UNL     1      48.293   6.357  12.480  0.00  0.00    +0.000 OA
ATOM     31  C   UNL     1      48.426   8.697  12.169  0.00  0.00    +0.000 A 
ATOM     32  H   UNL     1      50.759   6.400  12.503  0.00  0.00    +0.000 HD
ENDBRANCH  19  22
ENDBRANCH  17  18
ENDBRANCH   4  17
TORSDOF 6
ENDMDL
MODEL 5
REMARK VINA RESULT:    -8.488      2.482      3.452
REMARK INTER + INTRA:         -11.176
REMARK INTER:                 -10.774
REMARK INTRA:                  -0.402
REMARK UNBOUND:                 0.041
REMARK  Name = 
REMARK  6 active torsions:
REMARK  status: ('A' for Active; 'I' for Inactive)
REMARK    1  A    between atoms: N_1  and  C_2
REMARK    2  A    between atoms: C_5  and  C_6
REMARK    3  A    between atoms: C_6  and  C_7
REMARK    4  A    between atoms: C_10  and  C_11
REMARK    5  A    between atoms: C_11  and  N_12
REMARK    6  A    between atoms: C_13  and  C_15
REMARK                            x       y       z     vdW  Elec       q    Type
REMARK                         _______ _______ _______ _____ _____    ______ ____
ROOT
ATOM      1  C   UNL     1      44.828   4.219  10.567  0.00  0.00    +0.000 A 
ATOM      2  C   UNL     1      45.423   5.440  10.877  0.00  0.00    +0.000 A 
ATOM      3  C   UNL     1      46.066   5.591  12.106  0.00  0.00    +0.000 A 
ATOM      4  C   UNL     1      46.092   4.532  13.012  0.00  0.00    +0.000 A 
ATOM      5  C   UNL     1      45.475   3.350  12.620  0.00  0.00    +0.000 A 
ATOM      6  N   UNL     1      44.850   3.171  11.427  0.00  0.00    +0.000 NA
ENDROOT
BRANCH   1   7
ATOM      7  C   UNL     1      44.166   4.011   9.221  0.00  0.00    +0.000 C 
BRANCH   7  11
ATOM      8  C   UNL     1      47.642   2.275   7.121  0.00  0.00    +0.000 C 
ATOM      9  C   UNL     1      47.034   3.586   6.613  0.00  0.00    +0.000 C 
ATOM     10  C   UNL     1      46.200   4.265   7.698  0.00  0.00    +0.000 C 
ATOM     11  C   UNL     1      45.074   3.335   8.176  0.00  0.00    +0.000 C 
ATOM     12  C   UNL     1      45.694   2.040   8.735  0.00  0.00    +0.000 C 
ATOM     13  C   UNL     1      46.566   1.340   7.688  0.00  0.00    +0.000 C 
BRANCH   8  14
ATOM     14  N   UNL     1      48.368   1.604   6.042  0.00  0.00    +0.000 NA
ATOM     15  H   UNL     1      47.736   0.975   5.547  0.00  0.00    +0.000 HD
ATOM     16  H   UNL     1      49.093   1.006   6.439  0.00  0.00    +0.000 HD
ENDBRANCH   8  14
ENDBRANCH   7  11
ENDBRANCH   1   7
BRANCH   4  17
ATOM     17  C   UNL     1      46.799   4.649  14.331  0.00  0.00    +0.000 C 
BRANCH  17  18
ATOM     18  N   UNL     1      47.456   5.926  14.471  0.00  0.00    +0.000 N 
ATOM     19  C   UNL     1      48.467   6.104  15.383  0.00  0.00    +0.000 C 
ATOM     20  O   UNL     1      48.865   5.183  16.093  0.00  0.00    +0.000 OA
ATOM     21  H   UNL     1      46.996   6.739  14.071  0.00  0.00    +0.000 HD
BRANCH  19  22
ATOM     22  C   UNL     1      49.094   7.432  15.431  0.00  0.00    +0.000 A 
ATOM     23  C   UNL     1      49.781   7.905  14.321  0.00  0.00    +0.000 A 
ATOM     24  S   UNL     1      50.405   9.479  14.517  0.00  0.00    +0.000 S 
ATOM     25  C   UNL     1      49.827   9.568  16.114  0.00  0.00    +0.000 A 
ATOM     26  N   UNL     1      50.051  10.670  16.879  0.00  0.00    +0.000 NA
ATOM     27  C   UNL     1      49.582  10.592  18.079  0.00  0.00    +0.000 A 
ATOM     28  N   UNL     1      48.904   9.513  18.583  0.00  0.00    +0.000 N 
ATOM     29  C   UNL     1      48.631   8.388  17.838  0.00  0.00    +0.000 A 
ATOM     30  O   UNL     1      47.987   7.455  18.304  0.00  0.00    +0.000 OA
ATOM     31  C   UNL     1      49.147   8.420  16.485  0.00  0.00    +0.000 A 
ATOM     32  H   UNL     1      48.554   9.519  19.529  0.00  0.00    +0.000 HD
ENDBRANCH  19  22
ENDBRANCH  17  18
ENDBRANCH   4  17
TORSDOF 6
ENDMDL
MODEL 6
REMARK VINA RESULT:    -8.438      2.906      3.844
REMARK INTER + INTRA:         -11.110
REMARK INTER:                 -10.371
REMARK INTRA:                  -0.740
REMARK UNBOUND:                 0.041
REMARK  Name = 
REMARK  6 active torsions:
REMARK  status: ('A' for Active; 'I' for Inactive)
REMARK    1  A    between atoms: N_1  and  C_2
REMARK    2  A    between atoms: C_5  and  C_6
REMARK    3  A    between atoms: C_6  and  C_7
REMARK    4  A    between atoms: C_10  and  C_11
REMARK    5  A    between atoms: C_11  and  N_12
REMARK    6  A    between atoms: C_13  and  C_15
REMARK                            x       y       z     vdW  Elec       q    Type
REMARK                         _______ _______ _______ _____ _____    ______ ____
ROOT
ATOM      1  C   UNL     1      44.728   3.704  10.327  0.00  0.00    +0.000 A 
ATOM      2  C   UNL     1      45.138   2.988  11.449  0.00  0.00    +0.000 A 
ATOM      3  C   UNL     1      45.671   3.677  12.540  0.00  0.00    +0.000 A 
ATOM      4  C   UNL     1      45.800   5.065  12.489  0.00  0.00    +0.000 A 
ATOM      5  C   UNL     1      45.364   5.697  11.331  0.00  0.00    +0.000 A 
ATOM      6  N   UNL     1      44.834   5.053  10.260  0.00  0.00    +0.000 NA
ENDROOT
BRANCH   1   7
ATOM      7  C   UNL     1      44.103   2.987   9.149  0.00  0.00    +0.000 C 
BRANCH   7  11
ATOM      8  C   UNL     1      47.800   2.236   6.853  0.00  0.00    +0.000 C 
ATOM      9  C   UNL     1      46.943   3.461   6.520  0.00  0.00    +0.000 C 
ATOM     10  C   UNL     1      46.018   3.822   7.681  0.00  0.00    +0.000 C 
ATOM     11  C   UNL     1      45.100   2.639   8.028  0.00  0.00    +0.000 C 
ATOM     12  C   UNL     1      45.967   1.425   8.415  0.00  0.00    +0.000 C 
ATOM     13  C   UNL     1      46.934   1.047   7.288  0.00  0.00    +0.000 C 
BRANCH   8  14
ATOM     14  N   UNL     1      48.617   1.863   5.698  0.00  0.00    +0.000 NA
ATOM     15  H   UNL     1      48.176   2.204   4.844  0.00  0.00    +0.000 HD
ATOM     16  H   UNL     1      48.637   0.847   5.608  0.00  0.00    +0.000 HD
ENDBRANCH   8  14
ENDBRANCH   7  11
ENDBRANCH   1   7
BRANCH   4  17
ATOM     17  C   UNL     1      46.341   5.842  13.654  0.00  0.00    +0.000 C 
BRANCH  17  18
ATOM     18  N   UNL     1      47.594   6.481  13.331  0.00  0.00    +0.000 N 
ATOM     19  C   UNL     1      47.689   7.848  13.254  0.00  0.00    +0.000 C 
ATOM     20  O   UNL     1      46.726   8.577  13.480  0.00  0.00    +0.000 OA
ATOM     21  H   UNL     1      48.324   5.906  12.921  0.00  0.00    +0.000 HD
BRANCH  19  22
ATOM     22  C   UNL     1      49.014   8.407  12.949  0.00  0.00    +0.000 A 
ATOM     23  C   UNL     1      49.164   9.259  11.862  0.00  0.00    +0.000 A 
ATOM     24  S   UNL     1      50.747   9.861  11.674  0.00  0.00    +0.000 S 
ATOM     25  C   UNL     1      51.305   8.965  13.006  0.00  0.00    +0.000 A 
ATOM     26  N   UNL     1      52.612   9.008  13.381  0.00  0.00    +0.000 NA
ATOM     27  C   UNL     1      52.904   8.258  14.390  0.00  0.00    +0.000 A 
ATOM     28  N   UNL     1      52.006   7.472  15.063  0.00  0.00    +0.000 N 
ATOM     29  C   UNL     1      50.670   7.416  14.737  0.00  0.00    +0.000 A 
ATOM     30  O   UNL     1      49.883   6.734  15.383  0.00  0.00    +0.000 OA
ATOM     31  C   UNL     1      50.292   8.232  13.601  0.00  0.00    +0.000 A 
ATOM     32  H   UNL     1      52.298   6.915  15.852  0.00  0.00    +0.000 HD
ENDBRANCH  19  22
ENDBRANCH  17  18
ENDBRANCH   4  17
TORSDOF 6
ENDMDL
MODEL 7
REMARK VINA RESULT:    -8.228      1.267      1.806
REMARK INTER + INTRA:         -10.833
REMARK INTER:                 -10.142
REMARK INTRA:                  -0.691
REMARK UNBOUND:                 0.041
REMARK  Name = 
REMARK  6 active torsions:
REMARK  status: ('A' for Active; 'I' for Inactive)
REMARK    1  A    between atoms: N_1  and  C_2
REMARK    2  A    between atoms: C_5  and  C_6
REMARK    3  A    between atoms: C_6  and  C_7
REMARK    4  A    between atoms: C_10  and  C_11
REMARK    5  A    between atoms: C_11  and  N_12
REMARK    6  A    between atoms: C_13  and  C_15
REMARK                            x       y       z     vdW  Elec       q    Type
REMARK                         _______ _______ _______ _____ _____    ______ ____
ROOT
ATOM      1  C   UNL     1      44.994   4.419  10.592  0.00  0.00    +0.000 A 
ATOM      2  C   UNL     1      44.517   4.485  11.899  0.00  0.00    +0.000 A 
ATOM      3  C   UNL     1      44.724   5.648  12.642  0.00  0.00    +0.000 A 
ATOM      4  C   UNL     1      45.417   6.718  12.079  0.00  0.00    +0.000 A 
ATOM      5  C   UNL     1      45.857   6.567  10.769  0.00  0.00    +0.000 A 
ATOM      6  N   UNL     1      45.661   5.452  10.020  0.00  0.00    +0.000 NA
ENDROOT
BRANCH   1   7
ATOM      7  C   UNL     1      44.741   3.189   9.746  0.00  0.00    +0.000 C 
BRANCH   7  11
ATOM      8  C   UNL     1      47.076   1.913   6.221  0.00  0.00    +0.000 C 
ATOM      9  C   UNL     1      47.086   1.047   7.483  0.00  0.00    +0.000 C 
ATOM     10  C   UNL     1      45.890   1.362   8.381  0.00  0.00    +0.000 C 
ATOM     11  C   UNL     1      45.893   2.846   8.783  0.00  0.00    +0.000 C 
ATOM     12  C   UNL     1      45.829   3.713   7.511  0.00  0.00    +0.000 C 
ATOM     13  C   UNL     1      46.995   3.406   6.566  0.00  0.00    +0.000 C 
BRANCH   8  14
ATOM     14  N   UNL     1      48.271   1.650   5.419  0.00  0.00    +0.000 NA
ATOM     15  H   UNL     1      48.446   2.443   4.800  0.00  0.00    +0.000 HD
ATOM     16  H   UNL     1      48.100   0.856   4.802  0.00  0.00    +0.000 HD
ENDBRANCH   8  14
ENDBRANCH   7  11
ENDBRANCH   1   7
BRANCH   4  17
ATOM     17  C   UNL     1      45.633   7.995  12.838  0.00  0.00    +0.000 C 
BRANCH  17  18
ATOM     18  N   UNL     1      46.578   7.820  13.915  0.00  0.00    +0.000 N 
ATOM     19  C   UNL     1      47.929   7.909  13.690  0.00  0.00    +0.000 C 
ATOM     20  O   UNL     1      48.383   8.165  12.577  0.00  0.00    +0.000 OA
ATOM     21  H   UNL     1      46.242   7.386  14.770  0.00  0.00    +0.000 HD
BRANCH  19  22
ATOM     22  C   UNL     1      48.810   7.746  14.855  0.00  0.00    +0.000 A 
ATOM     23  C   UNL     1      49.693   8.763  15.194  0.00  0.00    +0.000 A 
ATOM     24  S   UNL     1      50.606   8.442  16.598  0.00  0.00    +0.000 S 
ATOM     25  C   UNL     1      49.894   6.908  16.776  0.00  0.00    +0.000 A 
ATOM     26  N   UNL     1      50.260   6.081  17.792  0.00  0.00    +0.000 NA
ATOM     27  C   UNL     1      49.661   4.937  17.792  0.00  0.00    +0.000 A 
ATOM     28  N   UNL     1      48.725   4.547  16.870  0.00  0.00    +0.000 N 
ATOM     29  C   UNL     1      48.304   5.360  15.842  0.00  0.00    +0.000 A 
ATOM     30  O   UNL     1      47.436   4.998  15.057  0.00  0.00    +0.000 OA
ATOM     31  C   UNL     1      48.956   6.653  15.790  0.00  0.00    +0.000 A 
ATOM     32  H   UNL     1      48.286   3.640  16.932  0.00  0.00    +0.000 HD
ENDBRANCH  19  22
ENDBRANCH  17  18
ENDBRANCH   4  17
TORSDOF 6
ENDMDL
MODEL 8
REMARK VINA RESULT:    -8.195      3.260      3.838
REMARK INTER + INTRA:         -10.788
REMARK INTER:                 -10.084
REMARK INTRA:                  -0.704
REMARK UNBOUND:                 0.041
REMARK  Name = 
REMARK  6 active torsions:
REMARK  status: ('A' for Active; 'I' for Inactive)
REMARK    1  A    between atoms: N_1  and  C_2
REMARK    2  A    between atoms: C_5  and  C_6
REMARK    3  A    between atoms: C_6  and  C_7
REMARK    4  A    between atoms: C_10  and  C_11
REMARK    5  A    between atoms: C_11  and  N_12
REMARK    6  A    between atoms: C_13  and  C_15
REMARK                            x       y       z     vdW  Elec       q    Type
REMARK                         _______ _______ _______ _____ _____    ______ ____
ROOT
ATOM      1  C   UNL     1      44.544   4.376  10.344  0.00  0.00    +0.000 A 
ATOM      2  C   UNL     1      43.396   4.973  10.861  0.00  0.00    +0.000 A 
ATOM      3  C   UNL     1      43.512   6.162  11.581  0.00  0.00    +0.000 A 
ATOM      4  C   UNL     1      44.769   6.728  11.790  0.00  0.00    +0.000 A 
ATOM      5  C   UNL     1      45.860   6.066  11.238  0.00  0.00    +0.000 A 
ATOM      6  N   UNL     1      45.775   4.914  10.525  0.00  0.00    +0.000 NA
ENDROOT
BRANCH   1   7
ATOM      7  C   UNL     1      44.442   3.112   9.517  0.00  0.00    +0.000 C 
BRANCH   7  11
ATOM      8  C   UNL     1      47.168   1.881   6.267  0.00  0.00    +0.000 C 
ATOM      9  C   UNL     1      47.114   1.056   7.555  0.00  0.00    +0.000 C 
ATOM     10  C   UNL     1      45.823   1.322   8.328  0.00  0.00    +0.000 C 
ATOM     11  C   UNL     1      45.698   2.814   8.675  0.00  0.00    +0.000 C 
ATOM     12  C   UNL     1      45.699   3.635   7.372  0.00  0.00    +0.000 C 
ATOM     13  C   UNL     1      46.964   3.376   6.548  0.00  0.00    +0.000 C 
BRANCH   8  14
ATOM     14  N   UNL     1      48.446   1.671   5.586  0.00  0.00    +0.000 NA
ATOM     15  H   UNL     1      48.331   1.841   4.587  0.00  0.00    +0.000 HD
ATOM     16  H   UNL     1      48.720   0.692   5.667  0.00  0.00    +0.000 HD
ENDBRANCH   8  14
ENDBRANCH   7  11
ENDBRANCH   1   7
BRANCH   4  17
ATOM     17  C   UNL     1      44.930   8.021  12.535  0.00  0.00    +0.000 C 
BRANCH  17  18
ATOM     18  N   UNL     1      46.119   8.021  13.352  0.00  0.00    +0.000 N 
ATOM     19  C   UNL     1      47.128   8.925  13.131  0.00  0.00    +0.000 C 
ATOM     20  O   UNL     1      47.047   9.780  12.252  0.00  0.00    +0.000 OA
ATOM     21  H   UNL     1      46.303   7.195  13.914  0.00  0.00    +0.000 HD
BRANCH  19  22
ATOM     22  C   UNL     1      48.286   8.865  14.035  0.00  0.00    +0.000 A 
ATOM     23  C   UNL     1      48.103   9.066  15.396  0.00  0.00    +0.000 A 
ATOM     24  S   UNL     1      49.532   8.912  16.312  0.00  0.00    +0.000 S 
ATOM     25  C   UNL     1      50.460   8.623  14.917  0.00  0.00    +0.000 A 
ATOM     26  N   UNL     1      51.804   8.430  14.998  0.00  0.00    +0.000 NA
ATOM     27  C   UNL     1      52.388   8.249  13.861  0.00  0.00    +0.000 A 
ATOM     28  N   UNL     1      51.748   8.239  12.650  0.00  0.00    +0.000 N 
ATOM     29  C   UNL     1      50.388   8.402  12.521  0.00  0.00    +0.000 A 
ATOM     30  O   UNL     1      49.838   8.348  11.426  0.00  0.00    +0.000 OA
ATOM     31  C   UNL     1      49.686   8.621  13.769  0.00  0.00    +0.000 A 
ATOM     32  H   UNL     1      52.263   8.082  11.796  0.00  0.00    +0.000 HD
ENDBRANCH  19  22
ENDBRANCH  17  18
ENDBRANCH   4  17
TORSDOF 6
ENDMDL
MODEL 9
REMARK VINA RESULT:    -8.002      2.134      2.824
REMARK INTER + INTRA:         -10.533
REMARK INTER:                  -9.673
REMARK INTRA:                  -0.860
REMARK UNBOUND:                 0.041
REMARK  Name = 
REMARK  6 active torsions:
REMARK  status: ('A' for Active; 'I' for Inactive)
REMARK    1  A    between atoms: N_1  and  C_2
REMARK    2  A    between atoms: C_5  and  C_6
REMARK    3  A    between atoms: C_6  and  C_7
REMARK    4  A    between atoms: C_10  and  C_11
REMARK    5  A    between atoms: C_11  and  N_12
REMARK    6  A    between atoms: C_13  and  C_15
REMARK                            x       y       z     vdW  Elec       q    Type
REMARK                         _______ _______ _______ _____ _____    ______ ____
ROOT
ATOM      1  C   UNL     1      44.935   5.511  11.336  0.00  0.00    +0.000 A 
ATOM      2  C   UNL     1      45.742   4.771  12.196  0.00  0.00    +0.000 A 
ATOM      3  C   UNL     1      46.691   5.433  12.977  0.00  0.00    +0.000 A 
ATOM      4  C   UNL     1      46.831   6.816  12.877  0.00  0.00    +0.000 A 
ATOM      5  C   UNL     1      45.984   7.475  11.993  0.00  0.00    +0.000 A 
ATOM      6  N   UNL     1      45.046   6.858  11.229  0.00  0.00    +0.000 NA
ENDROOT
BRANCH   1   7
ATOM      7  C   UNL     1      43.864   4.826  10.513  0.00  0.00    +0.000 C 
BRANCH   7  11
ATOM      8  C   UNL     1      46.452   2.301   7.976  0.00  0.00    +0.000 C 
ATOM      9  C   UNL     1      46.152   3.740   7.547  0.00  0.00    +0.000 C 
ATOM     10  C   UNL     1      45.676   4.582   8.730  0.00  0.00    +0.000 C 
ATOM     11  C   UNL     1      44.416   3.967   9.360  0.00  0.00    +0.000 C 
ATOM     12  C   UNL     1      44.739   2.539   9.838  0.00  0.00    +0.000 C 
ATOM     13  C   UNL     1      45.250   1.665   8.688  0.00  0.00    +0.000 C 
BRANCH   8  14
ATOM     14  N   UNL     1      46.827   1.496   6.814  0.00  0.00    +0.000 NA
ATOM     15  H   UNL     1      47.566   0.843   7.077  0.00  0.00    +0.000 HD
ATOM     16  H   UNL     1      47.236   2.097   6.099  0.00  0.00    +0.000 HD
ENDBRANCH   8  14
ENDBRANCH   7  11
ENDBRANCH   1   7
BRANCH   4  17
ATOM     17  C   UNL     1      47.821   7.564  13.721  0.00  0.00    +0.000 C 
BRANCH  17  18
ATOM     18  N   UNL     1      47.798   7.115  15.092  0.00  0.00    +0.000 N 
ATOM     19  C   UNL     1      48.940   6.664  15.707  0.00  0.00    +0.000 C 
ATOM     20  O   UNL     1      50.023   6.650  15.126  0.00  0.00    +0.000 OA
ATOM     21  H   UNL     1      46.893   6.903  15.503  0.00  0.00    +0.000 HD
BRANCH  19  22
ATOM     22  C   UNL     1      48.822   6.255  17.114  0.00  0.00    +0.000 A 
ATOM     23  C   UNL     1      49.176   4.964  17.483  0.00  0.00    +0.000 A 
ATOM     24  S   UNL     1      49.032   4.664  19.155  0.00  0.00    +0.000 S 
ATOM     25  C   UNL     1      48.441   6.232  19.441  0.00  0.00    +0.000 A 
ATOM     26  N   UNL     1      48.088   6.629  20.694  0.00  0.00    +0.000 NA
ATOM     27  C   UNL     1      47.630   7.833  20.763  0.00  0.00    +0.000 A 
ATOM     28  N   UNL     1      47.496   8.680  19.694  0.00  0.00    +0.000 N 
ATOM     29  C   UNL     1      47.864   8.332  18.415  0.00  0.00    +0.000 A 
ATOM     30  O   UNL     1      47.770   9.125  17.485  0.00  0.00    +0.000 OA
ATOM     31  C   UNL     1      48.375   6.983  18.280  0.00  0.00    +0.000 A 
ATOM     32  H   UNL     1      47.138   9.615  19.818  0.00  0.00    +0.000 HD
ENDBRANCH  19  22
ENDBRANCH  17  18
ENDBRANCH   4  17
TORSDOF 6
ENDMDL
