MODEL 1
REMARK VINA RESULT:    -9.277      0.000      0.000
REMARK INTER + INTRA:         -12.866
REMARK INTER:                 -11.988
REMARK INTRA:                  -0.877
REMARK UNBOUND:                -0.877
REMARK  Name = 
REMARK  5 active torsions:
REMARK  status: ('A' for Active; 'I' for Inactive)
REMARK    1  A    between atoms: C_2  and  C_4
REMARK    2  A    between atoms: C_7  and  O_8
REMARK    3  A    between atoms: O_8  and  C_9
REMARK    4  A    between atoms: C_9  and  C_10
REMARK    5  A    between atoms: C_14  and  C_15
REMARK                            x       y       z     vdW  Elec       q    Type
REMARK                         _______ _______ _______ _____ _____    ______ ____
ROOT
ATOM      1  C   UNL     1      43.997   4.872  11.441  0.00  0.00    +0.000 C 
ATOM      2  C   UNL     1      42.727   5.038  12.265  0.00  0.00    +0.000 C 
ATOM      3  C   UNL     1      43.001   5.973  11.136  0.00  0.00    +0.000 C 
ENDROOT
BRANCH   1   4
ATOM      4  C   UNL     1      45.333   5.190  12.093  0.00  0.00    +0.000 A 
ATOM      5  C   UNL     1      46.108   6.266  11.636  0.00  0.00    +0.000 A 
ATOM      6  C   UNL     1      47.290   6.633  12.274  0.00  0.00    +0.000 A 
ATOM      7  C   UNL     1      47.714   5.942  13.410  0.00  0.00    +0.000 A 
ATOM      8  C   UNL     1      46.970   4.869  13.925  0.00  0.00    +0.000 A 
ATOM      9  C   UNL     1      45.808   4.489  13.222  0.00  0.00    +0.000 A 
BRANCH   8  10
ATOM     10  C   UNL     1      47.342   4.203  15.188  0.00  0.00    +0.000 A 
ATOM     11  C   UNL     1      47.112   4.781  16.440  0.00  0.00    +0.000 A 
ATOM     12  N   UNL     1      47.407   4.180  17.619  0.00  0.00    +0.000 NA
ATOM     13  C   UNL     1      47.950   2.952  17.507  0.00  0.00    +0.000 A 
ATOM     14  C   UNL     1      48.182   2.355  16.279  0.00  0.00    +0.000 A 
ATOM     15  N   UNL     1      47.879   2.959  15.102  0.00  0.00    +0.000 NA
ENDBRANCH   8  10
ENDBRANCH   1   4
BRANCH   1  16
ATOM     16  O   UNL     1      43.938   3.640  10.682  0.00  0.00    +0.000 OA
BRANCH  16  20
ATOM     17  C   UNL     1      46.461   2.713   7.496  0.00  0.00    +0.000 A 
ATOM     18  C   UNL     1      46.118   4.054   7.706  0.00  0.00    +0.000 A 
ATOM     19  C   UNL     1      45.290   4.410   8.778  0.00  0.00    +0.000 A 
ATOM     20  C   UNL     1      44.799   3.432   9.638  0.00  0.00    +0.000 A 
ATOM     21  C   UNL     1      45.159   2.096   9.439  0.00  0.00    +0.000 A 
ATOM     22  C   UNL     1      45.979   1.733   8.369  0.00  0.00    +0.000 A 
BRANCH  17  24
ATOM     23  N   UNL     1      47.187   3.029   5.192  0.00  0.00    +0.000 N 
ATOM     24  C   UNL     1      47.290   2.289   6.339  0.00  0.00    +0.000 C 
ATOM     25  O   UNL     1      48.056   1.338   6.408  0.00  0.00    +0.000 OA
ATOM     26  H   UNL     1      47.824   2.788   4.445  0.00  0.00    +0.000 HD
ATOM     27  H   UNL     1      46.768   3.948   5.176  0.00  0.00    +0.000 HD
ENDBRANCH  17  24
ENDBRANCH  16  20
ENDBRANCH   1  16
TORSDOF 5
ENDMDL
MODEL 2
REMARK VINA RESULT:    -8.913      2.034      3.226
REMARK INTER + INTRA:         -12.395
REMARK INTER:                 -11.250
REMARK INTRA:                  -1.145
REMARK UNBOUND:                -0.877
REMARK  Name = 
REMARK  5 active torsions:
REMARK  status: ('A' for Active; 'I' for Inactive)
REMARK    1  A    between atoms: C_2  and  C_4
REMARK    2  A    between atoms: C_7  and  O_8
REMARK    3  A    between atoms: O_8  and  C_9
REMARK    4  A    between atoms: C_9  and  C_10
REMARK    5  A    between atoms: C_14  and  C_15
REMARK                            x       y       z     vdW  Elec       q    Type
REMARK                         _______ _______ _______ _____ _____    ______ ____
ROOT
ATOM      1  C   UNL     1      43.706   5.049  11.240  0.00  0.00    +0.000 C 
ATOM      2  C   UNL     1      42.394   5.422  11.918  0.00  0.00    +0.000 C 
ATOM      3  C   UNL     1      43.049   6.392  10.993  0.00  0.00    +0.000 C 
ENDROOT
BRANCH   1   4
ATOM      4  C   UNL     1      44.960   4.942  12.094  0.00  0.00    +0.000 A 
ATOM      5  C   UNL     1      45.262   3.747  12.764  0.00  0.00    +0.000 A 
ATOM      6  C   UNL     1      46.448   3.593  13.478  0.00  0.00    +0.000 A 
ATOM      7  C   UNL     1      47.378   4.633  13.516  0.00  0.00    +0.000 A 
ATOM      8  C   UNL     1      47.139   5.844  12.850  0.00  0.00    +0.000 A 
ATOM      9  C   UNL     1      45.905   5.985  12.183  0.00  0.00    +0.000 A 
BRANCH   8  10
ATOM     10  C   UNL     1      48.161   6.908  12.784  0.00  0.00    +0.000 A 
ATOM     11  C   UNL     1      48.046   8.010  11.933  0.00  0.00    +0.000 A 
ATOM     12  N   UNL     1      48.946   9.022  11.877  0.00  0.00    +0.000 NA
ATOM     13  C   UNL     1      49.990   8.898  12.720  0.00  0.00    +0.000 A 
ATOM     14  C   UNL     1      50.123   7.819  13.577  0.00  0.00    +0.000 A 
ATOM     15  N   UNL     1      49.215   6.812  13.635  0.00  0.00    +0.000 NA
ENDBRANCH   8  10
ENDBRANCH   1   4
BRANCH   1  16
ATOM     16  O   UNL     1      43.488   3.974  10.295  0.00  0.00    +0.000 OA
BRANCH  16  20
ATOM     17  C   UNL     1      46.430   2.469   7.754  0.00  0.00    +0.000 A 
ATOM     18  C   UNL     1      46.248   3.856   7.815  0.00  0.00    +0.000 A 
ATOM     19  C   UNL     1      45.285   4.404   8.672  0.00  0.00    +0.000 A 
ATOM     20  C   UNL     1      44.499   3.571   9.464  0.00  0.00    +0.000 A 
ATOM     21  C   UNL     1      44.696   2.188   9.417  0.00  0.00    +0.000 A 
ATOM     22  C   UNL     1      45.650   1.635   8.561  0.00  0.00    +0.000 A 
BRANCH  17  24
ATOM     23  N   UNL     1      48.464   2.614   6.421  0.00  0.00    +0.000 N 
ATOM     24  C   UNL     1      47.401   1.848   6.819  0.00  0.00    +0.000 C 
ATOM     25  O   UNL     1      47.280   0.692   6.438  0.00  0.00    +0.000 OA
ATOM     26  H   UNL     1      49.166   2.150   5.860  0.00  0.00    +0.000 HD
ATOM     27  H   UNL     1      48.729   3.463   6.899  0.00  0.00    +0.000 HD
ENDBRANCH  17  24
ENDBRANCH  16  20
ENDBRANCH   1  16
TORSDOF 5
ENDMDL
MODEL 3
REMARK VINA RESULT:    -7.842      2.182      2.963
REMARK INTER + INTRA:         -11.011
REMARK INTER:                 -10.817
REMARK INTRA:                  -0.195
REMARK UNBOUND:                -0.877
REMARK  Name = 
REMARK  5 active torsions:
REMARK  status: ('A' for Active; 'I' for Inactive)
REMARK    1  A    between atoms: C_2  and  C_4
REMARK    2  A    between atoms: C_7  and  O_8
REMARK    3  A    between atoms: O_8  and  C_9
REMARK    4  A    between atoms: C_9  and  C_10
REMARK    5  A    between atoms: C_14  and  C_15
REMARK                            x       y       z     vdW  Elec       q    Type
REMARK                         _______ _______ _______ _____ _____    ______ ____
ROOT
ATOM      1  C   UNL     1      44.144   4.321  11.636  0.00  0.00    +0.000 C 
ATOM      2  C   UNL     1      44.748   3.202  12.476  0.00  0.00    +0.000 C 
ATOM      3  C   UNL     1      43.422   3.775  12.852  0.00  0.00    +0.000 C 
ENDROOT
BRANCH   1   4
ATOM      4  C   UNL     1      44.802   5.691  11.673  0.00  0.00    +0.000 A 
ATOM      5  C   UNL     1      44.087   6.832  11.279  0.00  0.00    +0.000 A 
ATOM      6  C   UNL     1      44.635   8.108  11.389  0.00  0.00    +0.000 A 
ATOM      7  C   UNL     1      45.913   8.274  11.924  0.00  0.00    +0.000 A 
ATOM      8  C   UNL     1      46.668   7.172  12.352  0.00  0.00    +0.000 A 
ATOM      9  C   UNL     1      46.104   5.891  12.175  0.00  0.00    +0.000 A 
BRANCH   8  10
ATOM     10  C   UNL     1      47.971   7.339  13.025  0.00  0.00    +0.000 A 
ATOM     11  C   UNL     1      48.292   6.683  14.217  0.00  0.00    +0.000 A 
ATOM     12  N   UNL     1      49.493   6.785  14.839  0.00  0.00    +0.000 NA
ATOM     13  C   UNL     1      50.386   7.580  14.218  0.00  0.00    +0.000 A 
ATOM     14  C   UNL     1      50.094   8.235  13.034  0.00  0.00    +0.000 A 
ATOM     15  N   UNL     1      48.893   8.124  12.411  0.00  0.00    +0.000 NA
ENDBRANCH   8  10
ENDBRANCH   1   4
BRANCH   1  16
ATOM     16  O   UNL     1      43.791   3.821  10.324  0.00  0.00    +0.000 OA
BRANCH  16  20
ATOM     17  C   UNL     1      46.643   2.790   7.465  0.00  0.00    +0.000 A 
ATOM     18  C   UNL     1      46.369   4.147   7.673  0.00  0.00    +0.000 A 
ATOM     19  C   UNL     1      45.433   4.537   8.639  0.00  0.00    +0.000 A 
ATOM     20  C   UNL     1      44.766   3.576   9.395  0.00  0.00    +0.000 A 
ATOM     21  C   UNL     1      45.056   2.223   9.199  0.00  0.00    +0.000 A 
ATOM     22  C   UNL     1      45.983   1.827   8.233  0.00  0.00    +0.000 A 
BRANCH  17  24
ATOM     23  N   UNL     1      47.504   2.950   5.191  0.00  0.00    +0.000 N 
ATOM     24  C   UNL     1      47.586   2.335   6.412  0.00  0.00    +0.000 C 
ATOM     25  O   UNL     1      48.423   1.470   6.626  0.00  0.00    +0.000 OA
ATOM     26  H   UNL     1      48.211   2.698   4.514  0.00  0.00    +0.000 HD
ATOM     27  H   UNL     1      47.010   3.820   5.055  0.00  0.00    +0.000 HD
ENDBRANCH  17  24
ENDBRANCH  16  20
ENDBRANCH   1  16
TORSDOF 5
ENDMDL
MODEL 4
REMARK VINA RESULT:    -7.343      3.357      5.200
REMARK INTER + INTRA:         -10.367
REMARK INTER:                 -10.527
REMARK INTRA:                   0.160
REMARK UNBOUND:                -0.877
REMARK  Name = 
REMARK  5 active torsions:
REMARK  status: ('A' for Active; 'I' for Inactive)
REMARK    1  A    between atoms: C_2  and  C_4
REMARK    2  A    between atoms: C_7  and  O_8
REMARK    3  A    between atoms: O_8  and  C_9
REMARK    4  A    between atoms: C_9  and  C_10
REMARK    5  A    between atoms: C_14  and  C_15
REMARK                            x       y       z     vdW  Elec       q    Type
REMARK                         _______ _______ _______ _____ _____    ______ ____
ROOT
ATOM      1  C   UNL     1      44.210   4.231  11.792  0.00  0.00    +0.000 C 
ATOM      2  C   UNL     1      44.868   3.000  12.404  0.00  0.00    +0.000 C 
ATOM      3  C   UNL     1      43.602   3.529  12.990  0.00  0.00    +0.000 C 
ENDROOT
BRANCH   1   4
ATOM      4  C   UNL     1      44.901   5.576  11.947  0.00  0.00    +0.000 A 
ATOM      5  C   UNL     1      46.270   5.640  12.249  0.00  0.00    +0.000 A 
ATOM      6  C   UNL     1      46.945   6.857  12.306  0.00  0.00    +0.000 A 
ATOM      7  C   UNL     1      46.266   8.045  12.035  0.00  0.00    +0.000 A 
ATOM      8  C   UNL     1      44.901   8.042  11.708  0.00  0.00    +0.000 A 
ATOM      9  C   UNL     1      44.237   6.798  11.714  0.00  0.00    +0.000 A 
BRANCH   8  10
ATOM     10  C   UNL     1      44.197   9.275  11.307  0.00  0.00    +0.000 A 
ATOM     11  C   UNL     1      43.250   9.301  10.280  0.00  0.00    +0.000 A 
ATOM     12  N   UNL     1      42.559  10.408   9.913  0.00  0.00    +0.000 NA
ATOM     13  C   UNL     1      42.847  11.516  10.623  0.00  0.00    +0.000 A 
ATOM     14  C   UNL     1      43.776  11.515  11.649  0.00  0.00    +0.000 A 
ATOM     15  N   UNL     1      44.461  10.402  12.018  0.00  0.00    +0.000 NA
ENDBRANCH   8  10
ENDBRANCH   1   4
BRANCH   1  16
ATOM     16  O   UNL     1      43.713   3.921  10.468  0.00  0.00    +0.000 OA
BRANCH  16  20
ATOM     17  C   UNL     1      46.419   2.674   7.553  0.00  0.00    +0.000 A 
ATOM     18  C   UNL     1      45.814   1.703   8.360  0.00  0.00    +0.000 A 
ATOM     19  C   UNL     1      44.884   2.078   9.337  0.00  0.00    +0.000 A 
ATOM     20  C   UNL     1      44.558   3.420   9.515  0.00  0.00    +0.000 A 
ATOM     21  C   UNL     1      45.147   4.386   8.694  0.00  0.00    +0.000 A 
ATOM     22  C   UNL     1      46.080   4.020   7.723  0.00  0.00    +0.000 A 
BRANCH  17  24
ATOM     23  N   UNL     1      47.435   3.017   5.365  0.00  0.00    +0.000 N 
ATOM     24  C   UNL     1      47.452   2.323   6.546  0.00  0.00    +0.000 C 
ATOM     25  O   UNL     1      48.304   1.474   6.764  0.00  0.00    +0.000 OA
ATOM     26  H   UNL     1      48.197   2.835   4.728  0.00  0.00    +0.000 HD
ATOM     27  H   UNL     1      46.919   3.878   5.250  0.00  0.00    +0.000 HD
ENDBRANCH  17  24
ENDBRANCH  16  20
ENDBRANCH   1  16
TORSDOF 5
ENDMDL
MODEL 5
REMARK VINA RESULT:    -7.329      2.592      7.541
REMARK INTER + INTRA:         -10.349
REMARK INTER:                  -9.542
REMARK INTRA:                  -0.806
REMARK UNBOUND:                -0.877
REMARK  Name = 
REMARK  5 active torsions:
REMARK  status: ('A' for Active; 'I' for Inactive)
REMARK    1  A    between atoms: C_2  and  C_4
REMARK    2  A    between atoms: C_7  and  O_8
REMARK    3  A    between atoms: O_8  and  C_9
REMARK    4  A    between atoms: C_9  and  C_10
REMARK    5  A    between atoms: C_14  and  C_15
REMARK                            x       y       z     vdW  Elec       q    Type
REMARK                         _______ _______ _______ _____ _____    ______ ____
ROOT
ATOM      1  C   UNL     1      46.291   7.378  12.399  0.00  0.00    +0.000 C 
ATOM      2  C   UNL     1      46.447   8.777  11.817  0.00  0.00    +0.000 C 
ATOM      3  C   UNL     1      45.708   8.589  13.099  0.00  0.00    +0.000 C 
ENDROOT
BRANCH   1   4
ATOM      4  C   UNL     1      45.390   6.388  11.677  0.00  0.00    +0.000 A 
ATOM      5  C   UNL     1      43.999   6.439  11.849  0.00  0.00    +0.000 A 
ATOM      6  C   UNL     1      43.147   5.605  11.130  0.00  0.00    +0.000 A 
ATOM      7  C   UNL     1      43.671   4.710  10.196  0.00  0.00    +0.000 A 
ATOM      8  C   UNL     1      45.053   4.627   9.968  0.00  0.00    +0.000 A 
ATOM      9  C   UNL     1      45.890   5.448  10.752  0.00  0.00    +0.000 A 
BRANCH   8  10
ATOM     10  C   UNL     1      45.613   3.771   8.904  0.00  0.00    +0.000 A 
ATOM     11  C   UNL     1      45.597   2.375   8.975  0.00  0.00    +0.000 A 
ATOM     12  N   UNL     1      46.069   1.560   7.999  0.00  0.00    +0.000 NA
ATOM     13  C   UNL     1      46.567   2.198   6.923  0.00  0.00    +0.000 A 
ATOM     14  C   UNL     1      46.589   3.579   6.825  0.00  0.00    +0.000 A 
ATOM     15  N   UNL     1      46.109   4.390   7.803  0.00  0.00    +0.000 NA
ENDBRANCH   8  10
ENDBRANCH   1   4
BRANCH   1  16
ATOM     16  O   UNL     1      47.579   6.871  12.825  0.00  0.00    +0.000 OA
BRANCH  16  20
ATOM     17  C   UNL     1      47.871   4.665  16.349  0.00  0.00    +0.000 A 
ATOM     18  C   UNL     1      48.589   5.864  16.251  0.00  0.00    +0.000 A 
ATOM     19  C   UNL     1      48.501   6.645  15.093  0.00  0.00    +0.000 A 
ATOM     20  C   UNL     1      47.704   6.232  14.029  0.00  0.00    +0.000 A 
ATOM     21  C   UNL     1      46.972   5.046  14.136  0.00  0.00    +0.000 A 
ATOM     22  C   UNL     1      47.060   4.259  15.285  0.00  0.00    +0.000 A 
BRANCH  17  24
ATOM     23  N   UNL     1      47.015   2.823  17.695  0.00  0.00    +0.000 N 
ATOM     24  C   UNL     1      47.981   3.781  17.537  0.00  0.00    +0.000 C 
ATOM     25  O   UNL     1      48.908   3.876  18.329  0.00  0.00    +0.000 OA
ATOM     26  H   UNL     1      47.153   2.169  18.453  0.00  0.00    +0.000 HD
ATOM     27  H   UNL     1      46.392   2.554  16.947  0.00  0.00    +0.000 HD
ENDBRANCH  17  24
ENDBRANCH  16  20
ENDBRANCH   1  16
TORSDOF 5
ENDMDL
MODEL 6
REMARK VINA RESULT:    -6.701      2.786      4.365
REMARK INTER + INTRA:          -9.537
REMARK INTER:                  -8.962
REMARK INTRA:                  -0.575
REMARK UNBOUND:                -0.877
REMARK  Name = 
REMARK  5 active torsions:
REMARK  status: ('A' for Active; 'I' for Inactive)
REMARK    1  A    between atoms: C_2  and  C_4
REMARK    2  A    between atoms: C_7  and  O_8
REMARK    3  A    between atoms: O_8  and  C_9
REMARK    4  A    between atoms: C_9  and  C_10
REMARK    5  A    between atoms: C_14  and  C_15
REMARK                            x       y       z     vdW  Elec       q    Type
REMARK                         _______ _______ _______ _____ _____    ______ ____
ROOT
ATOM      1  C   UNL     1      47.824   7.929  12.626  0.00  0.00    +0.000 C 
ATOM      2  C   UNL     1      48.365   9.139  11.875  0.00  0.00    +0.000 C 
ATOM      3  C   UNL     1      48.784   7.767  11.464  0.00  0.00    +0.000 C 
ENDROOT
BRANCH   1   4
ATOM      4  C   UNL     1      48.288   7.695  14.055  0.00  0.00    +0.000 A 
ATOM      5  C   UNL     1      48.678   8.776  14.860  0.00  0.00    +0.000 A 
ATOM      6  C   UNL     1      49.019   8.600  16.199  0.00  0.00    +0.000 A 
ATOM      7  C   UNL     1      48.953   7.330  16.774  0.00  0.00    +0.000 A 
ATOM      8  C   UNL     1      48.551   6.215  16.024  0.00  0.00    +0.000 A 
ATOM      9  C   UNL     1      48.266   6.420  14.658  0.00  0.00    +0.000 A 
BRANCH   8  10
ATOM     10  C   UNL     1      48.365   4.889  16.644  0.00  0.00    +0.000 A 
ATOM     11  C   UNL     1      47.108   4.295  16.789  0.00  0.00    +0.000 A 
ATOM     12  N   UNL     1      46.907   3.063  17.320  0.00  0.00    +0.000 NA
ATOM     13  C   UNL     1      48.028   2.426  17.709  0.00  0.00    +0.000 A 
ATOM     14  C   UNL     1      49.285   2.989  17.570  0.00  0.00    +0.000 A 
ATOM     15  N   UNL     1      49.481   4.220  17.032  0.00  0.00    +0.000 NA
ENDBRANCH   8  10
ENDBRANCH   1   4
BRANCH   1  16
ATOM     16  O   UNL     1      46.402   7.792  12.389  0.00  0.00    +0.000 OA
BRANCH  16  20
ATOM     17  C   UNL     1      44.663   4.175  11.268  0.00  0.00    +0.000 A 
ATOM     18  C   UNL     1      45.263   4.961  10.277  0.00  0.00    +0.000 A 
ATOM     19  C   UNL     1      45.877   6.173  10.615  0.00  0.00    +0.000 A 
ATOM     20  C   UNL     1      45.890   6.606  11.938  0.00  0.00    +0.000 A 
ATOM     21  C   UNL     1      45.308   5.810  12.929  0.00  0.00    +0.000 A 
ATOM     22  C   UNL     1      44.688   4.604  12.598  0.00  0.00    +0.000 A 
BRANCH  17  24
ATOM     23  N   UNL     1      44.476   2.142   9.937  0.00  0.00    +0.000 N 
ATOM     24  C   UNL     1      43.952   2.912  10.942  0.00  0.00    +0.000 C 
ATOM     25  O   UNL     1      42.959   2.553  11.558  0.00  0.00    +0.000 OA
ATOM     26  H   UNL     1      44.039   1.242   9.789  0.00  0.00    +0.000 HD
ATOM     27  H   UNL     1      45.413   2.275   9.585  0.00  0.00    +0.000 HD
ENDBRANCH  17  24
ENDBRANCH  16  20
ENDBRANCH   1  16
TORSDOF 5
ENDMDL
MODEL 7
REMARK VINA RESULT:    -6.446      4.369      8.363
REMARK INTER + INTRA:          -9.208
REMARK INTER:                  -8.935
REMARK INTRA:                  -0.272
REMARK UNBOUND:                -0.877
REMARK  Name = 
REMARK  5 active torsions:
REMARK  status: ('A' for Active; 'I' for Inactive)
REMARK    1  A    between atoms: C_2  and  C_4
REMARK    2  A    between atoms: C_7  and  O_8
REMARK    3  A    between atoms: O_8  and  C_9
REMARK    4  A    between atoms: C_9  and  C_10
REMARK    5  A    between atoms: C_14  and  C_15
REMARK                            x       y       z     vdW  Elec       q    Type
REMARK                         _______ _______ _______ _____ _____    ______ ____
ROOT
ATOM      1  C   UNL     1      48.120   4.598  16.920  0.00  0.00    +0.000 C 
ATOM      2  C   UNL     1      47.123   4.782  18.058  0.00  0.00    +0.000 C 
ATOM      3  C   UNL     1      47.291   3.437  17.432  0.00  0.00    +0.000 C 
ENDROOT
BRANCH   1   4
ATOM      4  C   UNL     1      47.814   5.240  15.576  0.00  0.00    +0.000 A 
ATOM      5  C   UNL     1      48.614   6.285  15.090  0.00  0.00    +0.000 A 
ATOM      6  C   UNL     1      48.411   6.827  13.824  0.00  0.00    +0.000 A 
ATOM      7  C   UNL     1      47.409   6.315  12.998  0.00  0.00    +0.000 A 
ATOM      8  C   UNL     1      46.590   5.258  13.423  0.00  0.00    +0.000 A 
ATOM      9  C   UNL     1      46.787   4.770  14.731  0.00  0.00    +0.000 A 
BRANCH   8  10
ATOM     10  C   UNL     1      45.605   4.630  12.521  0.00  0.00    +0.000 A 
ATOM     11  C   UNL     1      45.301   5.149  11.259  0.00  0.00    +0.000 A 
ATOM     12  N   UNL     1      44.430   4.576  10.392  0.00  0.00    +0.000 NA
ATOM     13  C   UNL     1      43.859   3.438  10.834  0.00  0.00    +0.000 A 
ATOM     14  C   UNL     1      44.148   2.901  12.077  0.00  0.00    +0.000 A 
ATOM     15  N   UNL     1      45.026   3.475  12.938  0.00  0.00    +0.000 NA
ENDBRANCH   8  10
ENDBRANCH   1   4
BRANCH   1  16
ATOM     16  O   UNL     1      49.472   4.769  17.412  0.00  0.00    +0.000 OA
BRANCH  16  20
ATOM     17  C   UNL     1      52.272   1.693  17.681  0.00  0.00    +0.000 A 
ATOM     18  C   UNL     1      50.999   1.393  17.181  0.00  0.00    +0.000 A 
ATOM     19  C   UNL     1      50.036   2.402  17.054  0.00  0.00    +0.000 A 
ATOM     20  C   UNL     1      50.337   3.708  17.430  0.00  0.00    +0.000 A 
ATOM     21  C   UNL     1      51.615   4.009  17.910  0.00  0.00    +0.000 A 
ATOM     22  C   UNL     1      52.577   3.008  18.045  0.00  0.00    +0.000 A 
BRANCH  17  24
ATOM     23  N   UNL     1      53.631  -0.127  16.799  0.00  0.00    +0.000 N 
ATOM     24  C   UNL     1      53.300   0.642  17.884  0.00  0.00    +0.000 C 
ATOM     25  O   UNL     1      53.857   0.482  18.961  0.00  0.00    +0.000 OA
ATOM     26  H   UNL     1      54.397  -0.774  16.925  0.00  0.00    +0.000 HD
ATOM     27  H   UNL     1      53.385   0.134  15.855  0.00  0.00    +0.000 HD
ENDBRANCH  17  24
ENDBRANCH  16  20
ENDBRANCH   1  16
TORSDOF 5
ENDMDL
