MODEL 1
REMARK VINA RESULT:    -9.249      0.000      0.000
REMARK INTER + INTRA:         -13.895
REMARK INTER:                 -13.033
REMARK INTRA:                  -0.862
REMARK UNBOUND:                -0.862
REMARK  Name = 
REMARK  7 active torsions:
REMARK  status: ('A' for Active; 'I' for Inactive)
REMARK    1  A    between atoms: C_2  and  C_20
REMARK    2  A    between atoms: N_3  and  C_4
REMARK    3  A    between atoms: C_4  and  C_5
REMARK    4  A    between atoms: C_9  and  C_10
REMARK    5  A    between atoms: C_10  and  N_11
REMARK    6  A    between atoms: N_11  and  C_12
REMARK    7  A    between atoms: C_12  and  C_13
REMARK                            x       y       z     vdW  Elec       q    Type
REMARK                         _______ _______ _______ _____ _____    ______ ____
ROOT
ATOM      1  C   UNL     1      46.303   4.036  14.552  0.00  0.00    +0.000 C 
ENDROOT
BRANCH   1   2
ATOM      2  C   UNL     1      46.108   4.857  13.297  0.00  0.00    +0.000 A 
ATOM      3  C   UNL     1      47.055   5.814  12.939  0.00  0.00    +0.000 A 
ATOM      4  C   UNL     1      46.879   6.531  11.763  0.00  0.00    +0.000 A 
ATOM      5  C   UNL     1      45.768   6.274  10.971  0.00  0.00    +0.000 A 
ATOM      6  C   UNL     1      44.866   5.292  11.376  0.00  0.00    +0.000 A 
ATOM      7  N   UNL     1      45.017   4.590  12.531  0.00  0.00    +0.000 NA
BRANCH   6   8
ATOM      8  C   UNL     1      43.657   4.974  10.522  0.00  0.00    +0.000 C 
BRANCH   8   9
ATOM      9  N   UNL     1      43.969   4.315   9.250  0.00  0.00    +0.000 NA
ATOM     10  H   UNL     1      44.746   4.832   8.833  0.00  0.00    +0.000 HD
BRANCH   9  11
ATOM     11  C   UNL     1      44.428   2.924   9.420  0.00  0.00    +0.000 C 
BRANCH  11  12
ATOM     12  C   UNL     1      45.498   2.555   8.398  0.00  0.00    +0.000 A 
ATOM     13  C   UNL     1      45.946   3.491   7.462  0.00  0.00    +0.000 A 
ATOM     14  C   UNL     1      46.963   3.144   6.580  0.00  0.00    +0.000 A 
ATOM     15  C   UNL     1      47.482   1.858   6.621  0.00  0.00    +0.000 A 
ATOM     16  C   UNL     1      46.958   0.973   7.547  0.00  0.00    +0.000 A 
ATOM     17  N   UNL     1      45.994   1.290   8.440  0.00  0.00    +0.000 NA
ENDBRANCH  11  12
ENDBRANCH   9  11
ENDBRANCH   8   9
ENDBRANCH   6   8
ENDBRANCH   1   2
BRANCH   1  20
ATOM     18  O   UNL     1      46.707   3.327  17.222  0.00  0.00    +0.000 OA
ATOM     19  C   UNL     1      47.565   3.996  16.650  0.00  0.00    +0.000 C 
ATOM     20  N   UNL     1      47.424   4.434  15.365  0.00  0.00    +0.000 N 
ATOM     21  H   UNL     1      48.186   4.912  14.890  0.00  0.00    +0.000 HD
BRANCH  19  22
ATOM     22  C   UNL     1      48.783   4.402  17.339  0.00  0.00    +0.000 A 
ATOM     23  C   UNL     1      48.895   5.636  17.962  0.00  0.00    +0.000 A 
ATOM     24  S   UNL     1      50.403   5.850  18.741  0.00  0.00    +0.000 S 
ATOM     25  C   UNL     1      50.926   4.295  18.280  0.00  0.00    +0.000 A 
ATOM     26  N   UNL     1      52.147   3.819  18.640  0.00  0.00    +0.000 NA
ATOM     27  C   UNL     1      52.380   2.607  18.239  0.00  0.00    +0.000 A 
ATOM     28  N   UNL     1      51.512   1.841  17.512  0.00  0.00    +0.000 N 
ATOM     29  C   UNL     1      50.306   2.304  17.053  0.00  0.00    +0.000 A 
ATOM     30  O   UNL     1      49.645   1.649  16.265  0.00  0.00    +0.000 OA
ATOM     31  C   UNL     1      49.980   3.636  17.522  0.00  0.00    +0.000 A 
ATOM     32  H   UNL     1      51.769   0.919  17.179  0.00  0.00    +0.000 HD
ENDBRANCH  19  22
ENDBRANCH   1  20
TORSDOF 7
ENDMDL
MODEL 2
REMARK VINA RESULT:    -9.059      1.127      1.380
REMARK INTER + INTRA:         -13.628
REMARK INTER:                 -12.737
REMARK INTRA:                  -0.891
REMARK UNBOUND:                -0.862
REMARK  Name = 
REMARK  7 active torsions:
REMARK  status: ('A' for Active; 'I' for Inactive)
REMARK    1  A    between atoms: C_2  and  C_20
REMARK    2  A    between atoms: N_3  and  C_4
REMARK    3  A    between atoms: C_4  and  C_5
REMARK    4  A    between atoms: C_9  and  C_10
REMARK    5  A    between atoms: C_10  and  N_11
REMARK    6  A    between atoms: N_11  and  C_12
REMARK    7  A    between atoms: C_12  and  C_13
REMARK                            x       y       z     vdW  Elec       q    Type
REMARK                         _______ _______ _______ _____ _____    ______ ____
ROOT
ATOM      1  C   UNL     1      46.849   3.939  14.583  0.00  0.00    +0.000 C 
ENDROOT
BRANCH   1   2
ATOM      2  C   UNL     1      46.511   4.849  13.423  0.00  0.00    +0.000 A 
ATOM      3  C   UNL     1      47.361   5.904  13.098  0.00  0.00    +0.000 A 
ATOM      4  C   UNL     1      47.055   6.706  12.005  0.00  0.00    +0.000 A 
ATOM      5  C   UNL     1      45.914   6.434  11.263  0.00  0.00    +0.000 A 
ATOM      6  C   UNL     1      45.115   5.353  11.630  0.00  0.00    +0.000 A 
ATOM      7  N   UNL     1      45.393   4.567  12.703  0.00  0.00    +0.000 NA
BRANCH   6   8
ATOM      8  C   UNL     1      43.876   5.019  10.825  0.00  0.00    +0.000 C 
BRANCH   8   9
ATOM      9  N   UNL     1      44.147   4.469   9.493  0.00  0.00    +0.000 NA
ATOM     10  H   UNL     1      45.006   4.915   9.160  0.00  0.00    +0.000 HD
BRANCH   9  11
ATOM     11  C   UNL     1      44.404   3.018   9.510  0.00  0.00    +0.000 C 
BRANCH  11  12
ATOM     12  C   UNL     1      45.444   2.616   8.471  0.00  0.00    +0.000 A 
ATOM     13  C   UNL     1      45.865   3.523   7.494  0.00  0.00    +0.000 A 
ATOM     14  C   UNL     1      46.857   3.147   6.595  0.00  0.00    +0.000 A 
ATOM     15  C   UNL     1      47.377   1.863   6.661  0.00  0.00    +0.000 A 
ATOM     16  C   UNL     1      46.880   1.008   7.629  0.00  0.00    +0.000 A 
ATOM     17  N   UNL     1      45.942   1.353   8.538  0.00  0.00    +0.000 NA
ENDBRANCH  11  12
ENDBRANCH   9  11
ENDBRANCH   8   9
ENDBRANCH   6   8
ENDBRANCH   1   2
BRANCH   1  20
ATOM     18  O   UNL     1      46.450   3.127  17.223  0.00  0.00    +0.000 OA
ATOM     19  C   UNL     1      47.149   4.115  17.006  0.00  0.00    +0.000 C 
ATOM     20  N   UNL     1      47.351   4.614  15.753  0.00  0.00    +0.000 N 
ATOM     21  H   UNL     1      48.003   5.379  15.595  0.00  0.00    +0.000 HD
BRANCH  19  22
ATOM     22  C   UNL     1      47.778   4.844  18.099  0.00  0.00    +0.000 A 
ATOM     23  C   UNL     1      47.072   5.752  18.875  0.00  0.00    +0.000 A 
ATOM     24  S   UNL     1      48.022   6.436  20.123  0.00  0.00    +0.000 S 
ATOM     25  C   UNL     1      49.384   5.520  19.665  0.00  0.00    +0.000 A 
ATOM     26  N   UNL     1      50.561   5.608  20.341  0.00  0.00    +0.000 NA
ATOM     27  C   UNL     1      51.489   4.823  19.889  0.00  0.00    +0.000 A 
ATOM     28  N   UNL     1      51.348   3.971  18.828  0.00  0.00    +0.000 N 
ATOM     29  C   UNL     1      50.211   3.907  18.064  0.00  0.00    +0.000 A 
ATOM     30  O   UNL     1      50.192   3.264  17.028  0.00  0.00    +0.000 OA
ATOM     31  C   UNL     1      49.128   4.729  18.564  0.00  0.00    +0.000 A 
ATOM     32  H   UNL     1      52.124   3.419  18.484  0.00  0.00    +0.000 HD
ENDBRANCH  19  22
ENDBRANCH   1  20
TORSDOF 7
ENDMDL
MODEL 3
REMARK VINA RESULT:    -8.733      2.029      2.881
REMARK INTER + INTRA:         -13.168
REMARK INTER:                 -12.075
REMARK INTRA:                  -1.094
REMARK UNBOUND:                -0.862
REMARK  Name = 
REMARK  7 active torsions:
REMARK  status: ('A' for Active; 'I' for Inactive)
REMARK    1  A    between atoms: C_2  and  C_20
REMARK    2  A    between atoms: N_3  and  C_4
REMARK    3  A    between atoms: C_4  and  C_5
REMARK    4  A    between atoms: C_9  and  C_10
REMARK    5  A    between atoms: C_10  and  N_11
REMARK    6  A    between atoms: N_11  and  C_12
REMARK    7  A    between atoms: C_12  and  C_13
REMARK                            x       y       z     vdW  Elec       q    Type
REMARK                         _______ _______ _______ _____ _____    ______ ____
ROOT
ATOM      1  C   UNL     1      46.330   7.484  12.664  0.00  0.00    +0.000 C 
ENDROOT
BRANCH   1   2
ATOM      2  C   UNL     1      45.122   6.696  12.208  0.00  0.00    +0.000 A 
ATOM      3  C   UNL     1      44.003   7.365  11.714  0.00  0.00    +0.000 A 
ATOM      4  C   UNL     1      42.919   6.624  11.262  0.00  0.00    +0.000 A 
ATOM      5  C   UNL     1      42.978   5.238  11.309  0.00  0.00    +0.000 A 
ATOM      6  C   UNL     1      44.132   4.629  11.799  0.00  0.00    +0.000 A 
ATOM      7  N   UNL     1      45.197   5.340  12.256  0.00  0.00    +0.000 NA
BRANCH   6   8
ATOM      8  C   UNL     1      44.233   3.119  11.841  0.00  0.00    +0.000 C 
BRANCH   8   9
ATOM      9  N   UNL     1      45.110   2.539  10.820  0.00  0.00    +0.000 NA
ATOM     10  H   UNL     1      45.262   1.563  11.082  0.00  0.00    +0.000 HD
BRANCH   9  11
ATOM     11  C   UNL     1      44.501   2.526   9.477  0.00  0.00    +0.000 C 
BRANCH  11  12
ATOM     12  C   UNL     1      45.551   2.375   8.383  0.00  0.00    +0.000 A 
ATOM     13  C   UNL     1      45.841   3.435   7.519  0.00  0.00    +0.000 A 
ATOM     14  C   UNL     1      46.844   3.288   6.567  0.00  0.00    +0.000 A 
ATOM     15  C   UNL     1      47.505   2.073   6.467  0.00  0.00    +0.000 A 
ATOM     16  C   UNL     1      47.133   1.055   7.328  0.00  0.00    +0.000 A 
ATOM     17  N   UNL     1      46.188   1.178   8.286  0.00  0.00    +0.000 NA
ENDBRANCH  11  12
ENDBRANCH   9  11
ENDBRANCH   8   9
ENDBRANCH   6   8
ENDBRANCH   1   2
BRANCH   1  20
ATOM     18  O   UNL     1      48.825   6.278  12.999  0.00  0.00    +0.000 OA
ATOM     19  C   UNL     1      48.145   6.518  13.994  0.00  0.00    +0.000 C 
ATOM     20  N   UNL     1      46.892   7.052  13.920  0.00  0.00    +0.000 N 
ATOM     21  H   UNL     1      46.387   7.320  14.762  0.00  0.00    +0.000 HD
BRANCH  19  22
ATOM     22  C   UNL     1      48.631   6.199  15.330  0.00  0.00    +0.000 A 
ATOM     23  C   UNL     1      49.560   6.998  15.981  0.00  0.00    +0.000 A 
ATOM     24  S   UNL     1      49.928   6.438  17.554  0.00  0.00    +0.000 S 
ATOM     25  C   UNL     1      48.843   5.134  17.405  0.00  0.00    +0.000 A 
ATOM     26  N   UNL     1      48.651   4.248  18.419  0.00  0.00    +0.000 NA
ATOM     27  C   UNL     1      47.768   3.333  18.160  0.00  0.00    +0.000 A 
ATOM     28  N   UNL     1      47.073   3.222  16.988  0.00  0.00    +0.000 N 
ATOM     29  C   UNL     1      47.292   4.038  15.907  0.00  0.00    +0.000 A 
ATOM     30  O   UNL     1      46.778   3.794  14.829  0.00  0.00    +0.000 OA
ATOM     31  C   UNL     1      48.232   5.109  16.168  0.00  0.00    +0.000 A 
ATOM     32  H   UNL     1      46.435   2.455  16.820  0.00  0.00    +0.000 HD
ENDBRANCH  19  22
ENDBRANCH   1  20
TORSDOF 7
ENDMDL
MODEL 4
REMARK VINA RESULT:    -8.260      1.902      2.719
REMARK INTER + INTRA:         -12.501
REMARK INTER:                 -11.404
REMARK INTRA:                  -1.097
REMARK UNBOUND:                -0.862
REMARK  Name = 
REMARK  7 active torsions:
REMARK  status: ('A' for Active; 'I' for Inactive)
REMARK    1  A    between atoms: C_2  and  C_20
REMARK    2  A    between atoms: N_3  and  C_4
REMARK    3  A    between atoms: C_4  and  C_5
REMARK    4  A    between atoms: C_9  and  C_10
REMARK    5  A    between atoms: C_10  and  N_11
REMARK    6  A    between atoms: N_11  and  C_12
REMARK    7  A    between atoms: C_12  and  C_13
REMARK                            x       y       z     vdW  Elec       q    Type
REMARK                         _______ _______ _______ _____ _____    ______ ____
ROOT
ATOM      1  C   UNL     1      48.355   7.321  12.618  0.00  0.00    +0.000 C 
ENDROOT
BRANCH   1   2
ATOM      2  C   UNL     1      46.922   7.052  12.219  0.00  0.00    +0.000 A 
ATOM      3  C   UNL     1      46.034   8.115  12.062  0.00  0.00    +0.000 A 
ATOM      4  C   UNL     1      44.731   7.853  11.656  0.00  0.00    +0.000 A 
ATOM      5  C   UNL     1      44.348   6.541  11.414  0.00  0.00    +0.000 A 
ATOM      6  C   UNL     1      45.289   5.524  11.572  0.00  0.00    +0.000 A 
ATOM      7  N   UNL     1      46.563   5.763  11.980  0.00  0.00    +0.000 NA
BRANCH   6   8
ATOM      8  C   UNL     1      44.905   4.086  11.293  0.00  0.00    +0.000 C 
BRANCH   8   9
ATOM      9  N   UNL     1      44.344   3.856   9.958  0.00  0.00    +0.000 NA
ATOM     10  H   UNL     1      44.884   4.433   9.309  0.00  0.00    +0.000 HD
BRANCH   9  11
ATOM     11  C   UNL     1      44.490   2.461   9.504  0.00  0.00    +0.000 C 
BRANCH  11  12
ATOM     12  C   UNL     1      45.528   2.334   8.395  0.00  0.00    +0.000 A 
ATOM     13  C   UNL     1      45.774   3.396   7.521  0.00  0.00    +0.000 A 
ATOM     14  C   UNL     1      46.767   3.272   6.555  0.00  0.00    +0.000 A 
ATOM     15  C   UNL     1      47.462   2.077   6.453  0.00  0.00    +0.000 A 
ATOM     16  C   UNL     1      47.134   1.054   7.326  0.00  0.00    +0.000 A 
ATOM     17  N   UNL     1      46.199   1.156   8.297  0.00  0.00    +0.000 NA
ENDBRANCH  11  12
ENDBRANCH   9  11
ENDBRANCH   8   9
ENDBRANCH   6   8
ENDBRANCH   1   2
BRANCH   1  20
ATOM     18  O   UNL     1      48.278   8.362  15.207  0.00  0.00    +0.000 OA
ATOM     19  C   UNL     1      48.665   7.206  15.044  0.00  0.00    +0.000 C 
ATOM     20  N   UNL     1      48.788   6.637  13.810  0.00  0.00    +0.000 N 
ATOM     21  H   UNL     1      49.027   5.653  13.711  0.00  0.00    +0.000 HD
BRANCH  19  22
ATOM     22  C   UNL     1      49.060   6.380  16.177  0.00  0.00    +0.000 A 
ATOM     23  C   UNL     1      50.101   6.743  17.019  0.00  0.00    +0.000 A 
ATOM     24  S   UNL     1      50.334   5.634  18.301  0.00  0.00    +0.000 S 
ATOM     25  C   UNL     1      49.039   4.662  17.769  0.00  0.00    +0.000 A 
ATOM     26  N   UNL     1      48.674   3.535  18.436  0.00  0.00    +0.000 NA
ATOM     27  C   UNL     1      47.651   2.925  17.923  0.00  0.00    +0.000 A 
ATOM     28  N   UNL     1      46.971   3.335  16.809  0.00  0.00    +0.000 N 
ATOM     29  C   UNL     1      47.352   4.415  16.053  0.00  0.00    +0.000 A 
ATOM     30  O   UNL     1      46.825   4.639  14.977  0.00  0.00    +0.000 OA
ATOM     31  C   UNL     1      48.460   5.158  16.620  0.00  0.00    +0.000 A 
ATOM     32  H   UNL     1      46.212   2.790  16.420  0.00  0.00    +0.000 HD
ENDBRANCH  19  22
ENDBRANCH   1  20
TORSDOF 7
ENDMDL
MODEL 5
REMARK VINA RESULT:    -8.234      2.036      2.492
REMARK INTER + INTRA:         -12.465
REMARK INTER:                 -11.738
REMARK INTRA:                  -0.727
REMARK UNBOUND:                -0.862
REMARK  Name = 
REMARK  7 active torsions:
REMARK  status: ('A' for Active; 'I' for Inactive)
REMARK    1  A    between atoms: C_2  and  C_20
REMARK    2  A    between atoms: N_3  and  C_4
REMARK    3  A    between atoms: C_4  and  C_5
REMARK    4  A    between atoms: C_9  and  C_10
REMARK    5  A    between atoms: C_10  and  N_11
REMARK    6  A    between atoms: N_11  and  C_12
REMARK    7  A    between atoms: C_12  and  C_13
REMARK                            x       y       z     vdW  Elec       q    Type
REMARK                         _______ _______ _______ _____ _____    ______ ____
ROOT
ATOM      1  C   UNL     1      47.890   6.197  13.486  0.00  0.00    +0.000 C 
ENDROOT
BRANCH   1   2
ATOM      2  C   UNL     1      46.545   6.094  12.803  0.00  0.00    +0.000 A 
ATOM      3  C   UNL     1      45.934   7.239  12.296  0.00  0.00    +0.000 A 
ATOM      4  C   UNL     1      44.717   7.120  11.637  0.00  0.00    +0.000 A 
ATOM      5  C   UNL     1      44.142   5.864  11.496  0.00  0.00    +0.000 A 
ATOM      6  C   UNL     1      44.812   4.756  12.010  0.00  0.00    +0.000 A 
ATOM      7  N   UNL     1      45.997   4.857  12.669  0.00  0.00    +0.000 NA
BRANCH   6   8
ATOM      8  C   UNL     1      44.220   3.371  11.852  0.00  0.00    +0.000 C 
BRANCH   8   9
ATOM      9  N   UNL     1      44.833   2.566  10.790  0.00  0.00    +0.000 NA
ATOM     10  H   UNL     1      44.460   1.619  10.888  0.00  0.00    +0.000 HD
BRANCH   9  11
ATOM     11  C   UNL     1      44.471   3.026   9.437  0.00  0.00    +0.000 C 
BRANCH  11  12
ATOM     12  C   UNL     1      45.479   2.557   8.394  0.00  0.00    +0.000 A 
ATOM     13  C   UNL     1      45.873   3.400   7.351  0.00  0.00    +0.000 A 
ATOM     14  C   UNL     1      46.836   2.966   6.447  0.00  0.00    +0.000 A 
ATOM     15  C   UNL     1      47.354   1.685   6.576  0.00  0.00    +0.000 A 
ATOM     16  C   UNL     1      46.883   0.893   7.609  0.00  0.00    +0.000 A 
ATOM     17  N   UNL     1      45.974   1.297   8.523  0.00  0.00    +0.000 NA
ENDBRANCH  11  12
ENDBRANCH   9  11
ENDBRANCH   8   9
ENDBRANCH   6   8
ENDBRANCH   1   2
BRANCH   1  20
ATOM     18  O   UNL     1      50.066   6.669  15.169  0.00  0.00    +0.000 OA
ATOM     19  C   UNL     1      48.942   6.598  15.660  0.00  0.00    +0.000 C 
ATOM     20  N   UNL     1      47.831   6.314  14.921  0.00  0.00    +0.000 N 
ATOM     21  H   UNL     1      46.904   6.347  15.339  0.00  0.00    +0.000 HD
BRANCH  19  22
ATOM     22  C   UNL     1      48.736   6.774  17.092  0.00  0.00    +0.000 A 
ATOM     23  C   UNL     1      48.409   8.007  17.638  0.00  0.00    +0.000 A 
ATOM     24  S   UNL     1      48.171   7.938  19.330  0.00  0.00    +0.000 S 
ATOM     25  C   UNL     1      48.478   6.263  19.363  0.00  0.00    +0.000 A 
ATOM     26  N   UNL     1      48.421   5.551  20.520  0.00  0.00    +0.000 NA
ATOM     27  C   UNL     1      48.647   4.282  20.371  0.00  0.00    +0.000 A 
ATOM     28  N   UNL     1      48.929   3.670  19.181  0.00  0.00    +0.000 N 
ATOM     29  C   UNL     1      49.081   4.355  18.003  0.00  0.00    +0.000 A 
ATOM     30  O   UNL     1      49.502   3.794  17.006  0.00  0.00    +0.000 OA
ATOM     31  C   UNL     1      48.785   5.770  18.112  0.00  0.00    +0.000 A 
ATOM     32  H   UNL     1      49.151   2.683  19.132  0.00  0.00    +0.000 HD
ENDBRANCH  19  22
ENDBRANCH   1  20
TORSDOF 7
ENDMDL
MODEL 6
REMARK VINA RESULT:    -8.097      2.240      3.182
REMARK INTER + INTRA:         -12.273
REMARK INTER:                 -11.251
REMARK INTRA:                  -1.022
REMARK UNBOUND:                -0.862
REMARK  Name = 
REMARK  7 active torsions:
REMARK  status: ('A' for Active; 'I' for Inactive)
REMARK    1  A    between atoms: C_2  and  C_20
REMARK    2  A    between atoms: N_3  and  C_4
REMARK    3  A    between atoms: C_4  and  C_5
REMARK    4  A    between atoms: C_9  and  C_10
REMARK    5  A    between atoms: C_10  and  N_11
REMARK    6  A    between atoms: N_11  and  C_12
REMARK    7  A    between atoms: C_12  and  C_13
REMARK                            x       y       z     vdW  Elec       q    Type
REMARK                         _______ _______ _______ _____ _____    ______ ____
ROOT
ATOM      1  C   UNL     1      47.047   4.347  15.273  0.00  0.00    +0.000 C 
ENDROOT
BRANCH   1   2
ATOM      2  C   UNL     1      46.531   4.776  13.918  0.00  0.00    +0.000 A 
ATOM      3  C   UNL     1      47.108   5.865  13.267  0.00  0.00    +0.000 A 
ATOM      4  C   UNL     1      46.647   6.220  12.006  0.00  0.00    +0.000 A 
ATOM      5  C   UNL     1      45.628   5.480  11.423  0.00  0.00    +0.000 A 
ATOM      6  C   UNL     1      45.105   4.391  12.118  0.00  0.00    +0.000 A 
ATOM      7  N   UNL     1      45.536   4.038  13.358  0.00  0.00    +0.000 NA
BRANCH   6   8
ATOM      8  C   UNL     1      44.007   3.552  11.497  0.00  0.00    +0.000 C 
BRANCH   8   9
ATOM      9  N   UNL     1      44.066   3.462  10.035  0.00  0.00    +0.000 NA
ATOM     10  H   UNL     1      44.786   4.120   9.728  0.00  0.00    +0.000 HD
BRANCH   9  11
ATOM     11  C   UNL     1      44.479   2.130   9.556  0.00  0.00    +0.000 C 
BRANCH  11  12
ATOM     12  C   UNL     1      45.551   2.226   8.477  0.00  0.00    +0.000 A 
ATOM     13  C   UNL     1      45.767   3.423   7.788  0.00  0.00    +0.000 A 
ATOM     14  C   UNL     1      46.790   3.497   6.849  0.00  0.00    +0.000 A 
ATOM     15  C   UNL     1      47.547   2.366   6.586  0.00  0.00    +0.000 A 
ATOM     16  C   UNL     1      47.246   1.205   7.277  0.00  0.00    +0.000 A 
ATOM     17  N   UNL     1      46.282   1.110   8.218  0.00  0.00    +0.000 NA
ENDBRANCH  11  12
ENDBRANCH   9  11
ENDBRANCH   8   9
ENDBRANCH   6   8
ENDBRANCH   1   2
BRANCH   1  20
ATOM     18  O   UNL     1      49.330   4.011  16.844  0.00  0.00    +0.000 OA
ATOM     19  C   UNL     1      48.854   5.138  16.723  0.00  0.00    +0.000 C 
ATOM     20  N   UNL     1      47.710   5.384  16.022  0.00  0.00    +0.000 N 
ATOM     21  H   UNL     1      47.387   6.337  15.867  0.00  0.00    +0.000 HD
BRANCH  19  22
ATOM     22  C   UNL     1      49.474   6.288  17.369  0.00  0.00    +0.000 A 
ATOM     23  C   UNL     1      50.703   6.783  16.959  0.00  0.00    +0.000 A 
ATOM     24  S   UNL     1      51.187   8.166  17.842  0.00  0.00    +0.000 S 
ATOM     25  C   UNL     1      49.760   8.141  18.772  0.00  0.00    +0.000 A 
ATOM     26  N   UNL     1      49.516   9.078  19.727  0.00  0.00    +0.000 NA
ATOM     27  C   UNL     1      48.372   8.940  20.322  0.00  0.00    +0.000 A 
ATOM     28  N   UNL     1      47.463   7.954  20.056  0.00  0.00    +0.000 N 
ATOM     29  C   UNL     1      47.698   6.938  19.164  0.00  0.00    +0.000 A 
ATOM     30  O   UNL     1      46.938   5.989  19.087  0.00  0.00    +0.000 OA
ATOM     31  C   UNL     1      48.943   7.082  18.436  0.00  0.00    +0.000 A 
ATOM     32  H   UNL     1      46.608   7.862  20.590  0.00  0.00    +0.000 HD
ENDBRANCH  19  22
ENDBRANCH   1  20
TORSDOF 7
ENDMDL
MODEL 7
REMARK VINA RESULT:    -7.839      1.813      2.697
REMARK INTER + INTRA:         -11.909
REMARK INTER:                 -11.167
REMARK INTRA:                  -0.741
REMARK UNBOUND:                -0.862
REMARK  Name = 
REMARK  7 active torsions:
REMARK  status: ('A' for Active; 'I' for Inactive)
REMARK    1  A    between atoms: C_2  and  C_20
REMARK    2  A    between atoms: N_3  and  C_4
REMARK    3  A    between atoms: C_4  and  C_5
REMARK    4  A    between atoms: C_9  and  C_10
REMARK    5  A    between atoms: C_10  and  N_11
REMARK    6  A    between atoms: N_11  and  C_12
REMARK    7  A    between atoms: C_12  and  C_13
REMARK                            x       y       z     vdW  Elec       q    Type
REMARK                         _______ _______ _______ _____ _____    ______ ____
ROOT
ATOM      1  C   UNL     1      46.658   4.199  14.767  0.00  0.00    +0.000 C 
ENDROOT
BRANCH   1   2
ATOM      2  C   UNL     1      46.645   5.123  13.570  0.00  0.00    +0.000 A 
ATOM      3  C   UNL     1      47.633   6.097  13.433  0.00  0.00    +0.000 A 
ATOM      4  C   UNL     1      47.627   6.910  12.307  0.00  0.00    +0.000 A 
ATOM      5  C   UNL     1      46.642   6.731  11.345  0.00  0.00    +0.000 A 
ATOM      6  C   UNL     1      45.693   5.728  11.533  0.00  0.00    +0.000 A 
ATOM      7  N   UNL     1      45.677   4.932  12.635  0.00  0.00    +0.000 NA
BRANCH   6   8
ATOM      8  C   UNL     1      44.620   5.495  10.490  0.00  0.00    +0.000 C 
BRANCH   8   9
ATOM      9  N   UNL     1      45.132   5.170   9.155  0.00  0.00    +0.000 NA
ATOM     10  H   UNL     1      46.142   5.040   9.251  0.00  0.00    +0.000 HD
BRANCH   9  11
ATOM     11  C   UNL     1      44.592   3.906   8.622  0.00  0.00    +0.000 C 
BRANCH  11  12
ATOM     12  C   UNL     1      45.665   3.089   7.912  0.00  0.00    +0.000 A 
ATOM     13  C   UNL     1      45.972   1.792   8.334  0.00  0.00    +0.000 A 
ATOM     14  C   UNL     1      46.915   1.049   7.631  0.00  0.00    +0.000 A 
ATOM     15  C   UNL     1      47.562   1.630   6.551  0.00  0.00    +0.000 A 
ATOM     16  C   UNL     1      47.236   2.934   6.220  0.00  0.00    +0.000 A 
ATOM     17  N   UNL     1      46.301   3.669   6.861  0.00  0.00    +0.000 NA
ENDBRANCH  11  12
ENDBRANCH   9  11
ENDBRANCH   8   9
ENDBRANCH   6   8
ENDBRANCH   1   2
BRANCH   1  20
ATOM     18  O   UNL     1      46.784   3.107  17.333  0.00  0.00    +0.000 OA
ATOM     19  C   UNL     1      47.653   3.904  16.985  0.00  0.00    +0.000 C 
ATOM     20  N   UNL     1      47.638   4.528  15.772  0.00  0.00    +0.000 N 
ATOM     21  H   UNL     1      48.414   5.116  15.478  0.00  0.00    +0.000 HD
BRANCH  19  22
ATOM     22  C   UNL     1      48.743   4.265  17.881  0.00  0.00    +0.000 A 
ATOM     23  C   UNL     1      50.015   3.730  17.739  0.00  0.00    +0.000 A 
ATOM     24  S   UNL     1      51.126   4.350  18.882  0.00  0.00    +0.000 S 
ATOM     25  C   UNL     1      49.939   5.358  19.573  0.00  0.00    +0.000 A 
ATOM     26  N   UNL     1      50.226   6.190  20.610  0.00  0.00    +0.000 NA
ATOM     27  C   UNL     1      49.223   6.914  21.000  0.00  0.00    +0.000 A 
ATOM     28  N   UNL     1      47.969   6.876  20.455  0.00  0.00    +0.000 N 
ATOM     29  C   UNL     1      47.608   5.996  19.466  0.00  0.00    +0.000 A 
ATOM     30  O   UNL     1      46.441   5.878  19.134  0.00  0.00    +0.000 OA
ATOM     31  C   UNL     1      48.711   5.203  18.963  0.00  0.00    +0.000 A 
ATOM     32  H   UNL     1      47.209   7.426  20.835  0.00  0.00    +0.000 HD
ENDBRANCH  19  22
ENDBRANCH   1  20
TORSDOF 7
ENDMDL
MODEL 8
REMARK VINA RESULT:    -7.698      2.126      2.773
REMARK INTER + INTRA:         -11.710
REMARK INTER:                 -10.771
REMARK INTRA:                  -0.939
REMARK UNBOUND:                -0.862
REMARK  Name = 
REMARK  7 active torsions:
REMARK  status: ('A' for Active; 'I' for Inactive)
REMARK    1  A    between atoms: C_2  and  C_20
REMARK    2  A    between atoms: N_3  and  C_4
REMARK    3  A    between atoms: C_4  and  C_5
REMARK    4  A    between atoms: C_9  and  C_10
REMARK    5  A    between atoms: C_10  and  N_11
REMARK    6  A    between atoms: N_11  and  C_12
REMARK    7  A    between atoms: C_12  and  C_13
REMARK                            x       y       z     vdW  Elec       q    Type
REMARK                         _______ _______ _______ _____ _____    ______ ____
ROOT
ATOM      1  C   UNL     1      46.975   4.069  14.870  0.00  0.00    +0.000 C 
ENDROOT
BRANCH   1   2
ATOM      2  C   UNL     1      46.524   4.739  13.592  0.00  0.00    +0.000 A 
ATOM      3  C   UNL     1      47.063   5.971  13.225  0.00  0.00    +0.000 A 
ATOM      4  C   UNL     1      46.665   6.552  12.027  0.00  0.00    +0.000 A 
ATOM      5  C   UNL     1      45.747   5.890  11.224  0.00  0.00    +0.000 A 
ATOM      6  C   UNL     1      45.258   4.652  11.639  0.00  0.00    +0.000 A 
ATOM      7  N   UNL     1      45.627   4.076  12.814  0.00  0.00    +0.000 NA
BRANCH   6   8
ATOM      8  C   UNL     1      44.272   3.898  10.773  0.00  0.00    +0.000 C 
BRANCH   8   9
ATOM      9  N   UNL     1      44.626   2.497  10.528  0.00  0.00    +0.000 NA
ATOM     10  H   UNL     1      44.029   1.932  11.136  0.00  0.00    +0.000 HD
BRANCH   9  11
ATOM     11  C   UNL     1      44.351   2.065   9.146  0.00  0.00    +0.000 C 
BRANCH  11  12
ATOM     12  C   UNL     1      45.567   2.246   8.245  0.00  0.00    +0.000 A 
ATOM     13  C   UNL     1      46.445   1.184   8.007  0.00  0.00    +0.000 A 
ATOM     14  C   UNL     1      47.514   1.362   7.136  0.00  0.00    +0.000 A 
ATOM     15  C   UNL     1      47.710   2.606   6.555  0.00  0.00    +0.000 A 
ATOM     16  C   UNL     1      46.824   3.621   6.871  0.00  0.00    +0.000 A 
ATOM     17  N   UNL     1      45.757   3.471   7.686  0.00  0.00    +0.000 NA
ENDBRANCH  11  12
ENDBRANCH   9  11
ENDBRANCH   8   9
ENDBRANCH   6   8
ENDBRANCH   1   2
BRANCH   1  20
ATOM     18  O   UNL     1      48.440   3.358  17.137  0.00  0.00    +0.000 OA
ATOM     19  C   UNL     1      48.177   4.543  16.950  0.00  0.00    +0.000 C 
ATOM     20  N   UNL     1      47.419   4.974  15.901  0.00  0.00    +0.000 N 
ATOM     21  H   UNL     1      47.290   5.968  15.723  0.00  0.00    +0.000 HD
BRANCH  19  22
ATOM     22  C   UNL     1      48.633   5.569  17.879  0.00  0.00    +0.000 A 
ATOM     23  C   UNL     1      48.287   5.546  19.222  0.00  0.00    +0.000 A 
ATOM     24  S   UNL     1      48.989   6.829  20.109  0.00  0.00    +0.000 S 
ATOM     25  C   UNL     1      49.782   7.427  18.724  0.00  0.00    +0.000 A 
ATOM     26  N   UNL     1      50.584   8.523  18.781  0.00  0.00    +0.000 NA
ATOM     27  C   UNL     1      51.140   8.830  17.650  0.00  0.00    +0.000 A 
ATOM     28  N   UNL     1      50.960   8.149  16.477  0.00  0.00    +0.000 N 
ATOM     29  C   UNL     1      50.097   7.091  16.350  0.00  0.00    +0.000 A 
ATOM     30  O   UNL     1      49.838   6.628  15.252  0.00  0.00    +0.000 OA
ATOM     31  C   UNL     1      49.494   6.679  17.602  0.00  0.00    +0.000 A 
ATOM     32  H   UNL     1      51.377   8.466  15.611  0.00  0.00    +0.000 HD
ENDBRANCH  19  22
ENDBRANCH   1  20
TORSDOF 7
ENDMDL
MODEL 9
REMARK VINA RESULT:    -7.607      2.719      3.507
REMARK INTER + INTRA:         -11.582
REMARK INTER:                 -10.640
REMARK INTRA:                  -0.942
REMARK UNBOUND:                -0.862
REMARK  Name = 
REMARK  7 active torsions:
REMARK  status: ('A' for Active; 'I' for Inactive)
REMARK    1  A    between atoms: C_2  and  C_20
REMARK    2  A    between atoms: N_3  and  C_4
REMARK    3  A    between atoms: C_4  and  C_5
REMARK    4  A    between atoms: C_9  and  C_10
REMARK    5  A    between atoms: C_10  and  N_11
REMARK    6  A    between atoms: N_11  and  C_12
REMARK    7  A    between atoms: C_12  and  C_13
REMARK                            x       y       z     vdW  Elec       q    Type
REMARK                         _______ _______ _______ _____ _____    ______ ____
ROOT
ATOM      1  C   UNL     1      46.536   7.451  12.678  0.00  0.00    +0.000 C 
ENDROOT
BRANCH   1   2
ATOM      2  C   UNL     1      46.143   5.993  12.586  0.00  0.00    +0.000 A 
ATOM      3  C   UNL     1      46.826   5.041  13.339  0.00  0.00    +0.000 A 
ATOM      4  C   UNL     1      46.425   3.713  13.272  0.00  0.00    +0.000 A 
ATOM      5  C   UNL     1      45.353   3.368  12.461  0.00  0.00    +0.000 A 
ATOM      6  C   UNL     1      44.700   4.370  11.746  0.00  0.00    +0.000 A 
ATOM      7  N   UNL     1      45.088   5.672  11.791  0.00  0.00    +0.000 NA
BRANCH   6   8
ATOM      8  C   UNL     1      43.513   4.026  10.871  0.00  0.00    +0.000 C 
BRANCH   8   9
ATOM      9  N   UNL     1      43.847   3.246   9.675  0.00  0.00    +0.000 NA
ATOM     10  H   UNL     1      42.960   2.986   9.237  0.00  0.00    +0.000 HD
BRANCH   9  11
ATOM     11  C   UNL     1      44.602   4.020   8.673  0.00  0.00    +0.000 C 
BRANCH  11  12
ATOM     12  C   UNL     1      45.623   3.154   7.944  0.00  0.00    +0.000 A 
ATOM     13  C   UNL     1      45.926   1.868   8.400  0.00  0.00    +0.000 A 
ATOM     14  C   UNL     1      46.818   1.081   7.681  0.00  0.00    +0.000 A 
ATOM     15  C   UNL     1      47.422   1.606   6.549  0.00  0.00    +0.000 A 
ATOM     16  C   UNL     1      47.104   2.903   6.183  0.00  0.00    +0.000 A 
ATOM     17  N   UNL     1      46.216   3.681   6.840  0.00  0.00    +0.000 NA
ENDBRANCH  11  12
ENDBRANCH   9  11
ENDBRANCH   8   9
ENDBRANCH   6   8
ENDBRANCH   1   2
BRANCH   1  20
ATOM     18  O   UNL     1      49.226   7.681  13.384  0.00  0.00    +0.000 OA
ATOM     19  C   UNL     1      48.369   7.995  14.206  0.00  0.00    +0.000 C 
ATOM     20  N   UNL     1      47.033   7.861  13.967  0.00  0.00    +0.000 N 
ATOM     21  H   UNL     1      46.346   8.209  14.632  0.00  0.00    +0.000 HD
BRANCH  19  22
ATOM     22  C   UNL     1      48.740   8.498  15.523  0.00  0.00    +0.000 A 
ATOM     23  C   UNL     1      48.827   9.856  15.790  0.00  0.00    +0.000 A 
ATOM     24  S   UNL     1      49.230  10.186  17.419  0.00  0.00    +0.000 S 
ATOM     25  C   UNL     1      49.276   8.527  17.803  0.00  0.00    +0.000 A 
ATOM     26  N   UNL     1      49.551   8.095  19.063  0.00  0.00    +0.000 NA
ATOM     27  C   UNL     1      49.515   6.805  19.198  0.00  0.00    +0.000 A 
ATOM     28  N   UNL     1      49.239   5.918  18.194  0.00  0.00    +0.000 N 
ATOM     29  C   UNL     1      49.039   6.298  16.891  0.00  0.00    +0.000 A 
ATOM     30  O   UNL     1      48.970   5.466  16.003  0.00  0.00    +0.000 OA
ATOM     31  C   UNL     1      49.018   7.735  16.703  0.00  0.00    +0.000 A 
ATOM     32  H   UNL     1      49.278   4.918  18.344  0.00  0.00    +0.000 HD
ENDBRANCH  19  22
ENDBRANCH   1  20
TORSDOF 7
ENDMDL
