MODEL 1
REMARK VINA RESULT:    -9.400      0.000      0.000
REMARK INTER + INTRA:         -12.675
REMARK INTER:                 -12.148
REMARK INTRA:                  -0.527
REMARK UNBOUND:                -0.527
REMARK  Name = 
REMARK  5 active torsions:
REMARK  status: ('A' for Active; 'I' for Inactive)
REMARK    1  A    between atoms: C_2  and  C_4
REMARK    2  A    between atoms: C_7  and  N_8
REMARK    3  A    between atoms: N_8  and  C_9
REMARK    4  A    between atoms: C_9  and  C_10
REMARK    5  A    between atoms: C_14  and  C_15
REMARK                            x       y       z     vdW  Elec       q    Type
REMARK                         _______ _______ _______ _____ _____    ______ ____
ROOT
ATOM      1  C   UNL     1      43.895   5.003  11.501  0.00  0.00    +0.000 C 
ATOM      2  C   UNL     1      43.192   3.931  12.325  0.00  0.00    +0.000 C 
ATOM      3  C   UNL     1      42.687   5.335  12.353  0.00  0.00    +0.000 C 
ENDROOT
BRANCH   1   4
ATOM      4  C   UNL     1      45.269   5.491  11.953  0.00  0.00    +0.000 A 
ATOM      5  C   UNL     1      45.948   6.519  11.282  0.00  0.00    +0.000 A 
ATOM      6  C   UNL     1      47.160   7.018  11.760  0.00  0.00    +0.000 A 
ATOM      7  C   UNL     1      47.704   6.519  12.943  0.00  0.00    +0.000 A 
ATOM      8  C   UNL     1      47.058   5.509  13.670  0.00  0.00    +0.000 A 
ATOM      9  C   UNL     1      45.869   4.988  13.126  0.00  0.00    +0.000 A 
BRANCH   8  10
ATOM     10  C   UNL     1      47.546   5.071  14.994  0.00  0.00    +0.000 A 
ATOM     11  C   UNL     1      47.198   3.820  15.527  0.00  0.00    +0.000 A 
ATOM     12  C   UNL     1      47.713   3.394  16.748  0.00  0.00    +0.000 A 
ATOM     13  C   UNL     1      48.586   4.232  17.421  0.00  0.00    +0.000 A 
ATOM     14  N   UNL     1      48.952   5.445  16.963  0.00  0.00    +0.000 NA
ATOM     15  C   UNL     1      48.425   5.829  15.772  0.00  0.00    +0.000 A 
ENDBRANCH   8  10
ENDBRANCH   1   4
BRANCH   1  16
ATOM     16  N   UNL     1      43.787   4.820  10.038  0.00  0.00    +0.000 N 
ATOM     17  H   UNL     1      42.831   4.839   9.689  0.00  0.00    +0.000 HD
BRANCH  16  21
ATOM     18  C   UNL     1      46.343   2.297   7.795  0.00  0.00    +0.000 A 
ATOM     19  C   UNL     1      45.472   1.733   8.731  0.00  0.00    +0.000 A 
ATOM     20  C   UNL     1      44.625   2.555   9.483  0.00  0.00    +0.000 A 
ATOM     21  C   UNL     1      44.583   3.937   9.278  0.00  0.00    +0.000 A 
ATOM     22  C   UNL     1      45.490   4.490   8.360  0.00  0.00    +0.000 A 
ATOM     23  C   UNL     1      46.365   3.683   7.627  0.00  0.00    +0.000 A 
BRANCH  18  25
ATOM     24  N   UNL     1      48.397   2.093   6.504  0.00  0.00    +0.000 N 
ATOM     25  C   UNL     1      47.293   1.466   7.011  0.00  0.00    +0.000 C 
ATOM     26  O   UNL     1      47.117   0.265   6.852  0.00  0.00    +0.000 OA
ATOM     27  H   UNL     1      49.082   1.500   6.053  0.00  0.00    +0.000 HD
ATOM     28  H   UNL     1      48.701   3.000   6.828  0.00  0.00    +0.000 HD
ENDBRANCH  18  25
ENDBRANCH  16  21
ENDBRANCH   1  16
TORSDOF 5
ENDMDL
MODEL 2
REMARK VINA RESULT:    -9.400      2.037      3.503
REMARK INTER + INTRA:         -12.674
REMARK INTER:                 -11.400
REMARK INTRA:                  -1.275
REMARK UNBOUND:                -0.527
REMARK  Name = 
REMARK  5 active torsions:
REMARK  status: ('A' for Active; 'I' for Inactive)
REMARK    1  A    between atoms: C_2  and  C_4
REMARK    2  A    between atoms: C_7  and  N_8
REMARK    3  A    between atoms: N_8  and  C_9
REMARK    4  A    between atoms: C_9  and  C_10
REMARK    5  A    between atoms: C_14  and  C_15
REMARK                            x       y       z     vdW  Elec       q    Type
REMARK                         _______ _______ _______ _____ _____    ______ ____
ROOT
ATOM      1  C   UNL     1      43.825   5.014  11.424  0.00  0.00    +0.000 C 
ATOM      2  C   UNL     1      42.505   5.318  12.122  0.00  0.00    +0.000 C 
ATOM      3  C   UNL     1      43.017   6.245  11.070  0.00  0.00    +0.000 C 
ENDROOT
BRANCH   1   4
ATOM      4  C   UNL     1      45.125   5.187  12.206  0.00  0.00    +0.000 A 
ATOM      5  C   UNL     1      45.616   4.187  13.058  0.00  0.00    +0.000 A 
ATOM      6  C   UNL     1      46.850   4.320  13.694  0.00  0.00    +0.000 A 
ATOM      7  C   UNL     1      47.638   5.447  13.462  0.00  0.00    +0.000 A 
ATOM      8  C   UNL     1      47.212   6.467  12.601  0.00  0.00    +0.000 A 
ATOM      9  C   UNL     1      45.935   6.327  12.025  0.00  0.00    +0.000 A 
BRANCH   8  10
ATOM     10  C   UNL     1      48.093   7.595  12.234  0.00  0.00    +0.000 A 
ATOM     11  C   UNL     1      49.434   7.391  11.874  0.00  0.00    +0.000 A 
ATOM     12  C   UNL     1      50.237   8.455  11.473  0.00  0.00    +0.000 A 
ATOM     13  C   UNL     1      49.676   9.720  11.428  0.00  0.00    +0.000 A 
ATOM     14  N   UNL     1      48.398   9.978  11.767  0.00  0.00    +0.000 NA
ATOM     15  C   UNL     1      47.647   8.917  12.160  0.00  0.00    +0.000 A 
ENDBRANCH   8  10
ENDBRANCH   1   4
BRANCH   1  16
ATOM     16  N   UNL     1      43.804   3.801  10.578  0.00  0.00    +0.000 N 
ATOM     17  H   UNL     1      43.512   2.959  11.071  0.00  0.00    +0.000 HD
BRANCH  16  21
ATOM     18  C   UNL     1      46.542   2.735   7.528  0.00  0.00    +0.000 A 
ATOM     19  C   UNL     1      46.238   4.083   7.737  0.00  0.00    +0.000 A 
ATOM     20  C   UNL     1      45.332   4.450   8.738  0.00  0.00    +0.000 A 
ATOM     21  C   UNL     1      44.760   3.497   9.586  0.00  0.00    +0.000 A 
ATOM     22  C   UNL     1      45.048   2.146   9.339  0.00  0.00    +0.000 A 
ATOM     23  C   UNL     1      45.925   1.763   8.320  0.00  0.00    +0.000 A 
BRANCH  18  25
ATOM     24  N   UNL     1      47.402   2.985   5.265  0.00  0.00    +0.000 N 
ATOM     25  C   UNL     1      47.460   2.299   6.445  0.00  0.00    +0.000 C 
ATOM     26  O   UNL     1      48.259   1.386   6.609  0.00  0.00    +0.000 OA
ATOM     27  H   UNL     1      48.095   2.741   4.569  0.00  0.00    +0.000 HD
ATOM     28  H   UNL     1      46.953   3.886   5.185  0.00  0.00    +0.000 HD
ENDBRANCH  18  25
ENDBRANCH  16  21
ENDBRANCH   1  16
TORSDOF 5
ENDMDL
MODEL 3
REMARK VINA RESULT:    -8.583      1.563      2.484
REMARK INTER + INTRA:         -11.619
REMARK INTER:                 -11.132
REMARK INTRA:                  -0.487
REMARK UNBOUND:                -0.527
REMARK  Name = 
REMARK  5 active torsions:
REMARK  status: ('A' for Active; 'I' for Inactive)
REMARK    1  A    between atoms: C_2  and  C_4
REMARK    2  A    between atoms: C_7  and  N_8
REMARK    3  A    between atoms: N_8  and  C_9
REMARK    4  A    between atoms: C_9  and  C_10
REMARK    5  A    between atoms: C_14  and  C_15
REMARK                            x       y       z     vdW  Elec       q    Type
REMARK                         _______ _______ _______ _____ _____    ______ ____
ROOT
ATOM      1  C   UNL     1      43.985   4.948  11.636  0.00  0.00    +0.000 C 
ATOM      2  C   UNL     1      44.269   3.816  12.616  0.00  0.00    +0.000 C 
ATOM      3  C   UNL     1      43.009   4.607  12.743  0.00  0.00    +0.000 C 
ENDROOT
BRANCH   1   4
ATOM      4  C   UNL     1      44.801   6.234  11.743  0.00  0.00    +0.000 A 
ATOM      5  C   UNL     1      44.272   7.480  11.374  0.00  0.00    +0.000 A 
ATOM      6  C   UNL     1      44.996   8.657  11.565  0.00  0.00    +0.000 A 
ATOM      7  C   UNL     1      46.255   8.616  12.162  0.00  0.00    +0.000 A 
ATOM      8  C   UNL     1      46.824   7.402  12.575  0.00  0.00    +0.000 A 
ATOM      9  C   UNL     1      46.092   6.230  12.312  0.00  0.00    +0.000 A 
BRANCH   8  10
ATOM     10  C   UNL     1      48.090   7.356  13.336  0.00  0.00    +0.000 A 
ATOM     11  C   UNL     1      49.189   8.152  12.980  0.00  0.00    +0.000 A 
ATOM     12  C   UNL     1      50.355   8.143  13.740  0.00  0.00    +0.000 A 
ATOM     13  C   UNL     1      50.399   7.337  14.865  0.00  0.00    +0.000 A 
ATOM     14  N   UNL     1      49.379   6.548  15.254  0.00  0.00    +0.000 NA
ATOM     15  C   UNL     1      48.261   6.577  14.483  0.00  0.00    +0.000 A 
ENDBRANCH   8  10
ENDBRANCH   1   4
BRANCH   1  16
ATOM     16  N   UNL     1      43.762   4.508  10.242  0.00  0.00    +0.000 N 
ATOM     17  H   UNL     1      42.842   4.103  10.079  0.00  0.00    +0.000 HD
BRANCH  16  21
ATOM     18  C   UNL     1      46.532   2.512   7.736  0.00  0.00    +0.000 A 
ATOM     19  C   UNL     1      46.466   3.907   7.710  0.00  0.00    +0.000 A 
ATOM     20  C   UNL     1      45.552   4.581   8.530  0.00  0.00    +0.000 A 
ATOM     21  C   UNL     1      44.735   3.889   9.429  0.00  0.00    +0.000 A 
ATOM     22  C   UNL     1      44.788   2.487   9.415  0.00  0.00    +0.000 A 
ATOM     23  C   UNL     1      45.673   1.801   8.577  0.00  0.00    +0.000 A 
BRANCH  18  25
ATOM     24  N   UNL     1      48.519   2.437   6.333  0.00  0.00    +0.000 N 
ATOM     25  C   UNL     1      47.452   1.756   6.849  0.00  0.00    +0.000 C 
ATOM     26  O   UNL     1      47.285   0.566   6.612  0.00  0.00    +0.000 OA
ATOM     27  H   UNL     1      49.188   1.890   5.807  0.00  0.00    +0.000 HD
ATOM     28  H   UNL     1      48.826   3.324   6.706  0.00  0.00    +0.000 HD
ENDBRANCH  18  25
ENDBRANCH  16  21
ENDBRANCH   1  16
TORSDOF 5
ENDMDL
MODEL 4
REMARK VINA RESULT:    -8.001      2.968      7.545
REMARK INTER + INTRA:         -10.867
REMARK INTER:                  -9.795
REMARK INTRA:                  -1.072
REMARK UNBOUND:                -0.527
REMARK  Name = 
REMARK  5 active torsions:
REMARK  status: ('A' for Active; 'I' for Inactive)
REMARK    1  A    between atoms: C_2  and  C_4
REMARK    2  A    between atoms: C_7  and  N_8
REMARK    3  A    between atoms: N_8  and  C_9
REMARK    4  A    between atoms: C_9  and  C_10
REMARK    5  A    between atoms: C_14  and  C_15
REMARK                            x       y       z     vdW  Elec       q    Type
REMARK                         _______ _______ _______ _____ _____    ______ ____
ROOT
ATOM      1  C   UNL     1      46.198   7.272  12.348  0.00  0.00    +0.000 C 
ATOM      2  C   UNL     1      46.365   8.650  11.718  0.00  0.00    +0.000 C 
ATOM      3  C   UNL     1      45.611   8.508  12.998  0.00  0.00    +0.000 C 
ENDROOT
BRANCH   1   4
ATOM      4  C   UNL     1      45.256   6.272  11.683  0.00  0.00    +0.000 A 
ATOM      5  C   UNL     1      43.863   6.356  11.830  0.00  0.00    +0.000 A 
ATOM      6  C   UNL     1      43.010   5.492  11.143  0.00  0.00    +0.000 A 
ATOM      7  C   UNL     1      43.534   4.543  10.265  0.00  0.00    +0.000 A 
ATOM      8  C   UNL     1      44.916   4.429  10.059  0.00  0.00    +0.000 A 
ATOM      9  C   UNL     1      45.748   5.276  10.814  0.00  0.00    +0.000 A 
BRANCH   8  10
ATOM     10  C   UNL     1      45.478   3.530   9.030  0.00  0.00    +0.000 A 
ATOM     11  C   UNL     1      46.100   4.033   7.876  0.00  0.00    +0.000 A 
ATOM     12  C   UNL     1      46.677   3.176   6.944  0.00  0.00    +0.000 A 
ATOM     13  C   UNL     1      46.633   1.814   7.187  0.00  0.00    +0.000 A 
ATOM     14  N   UNL     1      46.046   1.272   8.272  0.00  0.00    +0.000 NA
ATOM     15  C   UNL     1      45.486   2.139   9.156  0.00  0.00    +0.000 A 
ENDBRANCH   8  10
ENDBRANCH   1   4
BRANCH   1  16
ATOM     16  N   UNL     1      47.456   6.664  12.831  0.00  0.00    +0.000 N 
ATOM     17  H   UNL     1      47.978   6.167  12.112  0.00  0.00    +0.000 HD
BRANCH  16  21
ATOM     18  C   UNL     1      47.977   4.616  16.502  0.00  0.00    +0.000 A 
ATOM     19  C   UNL     1      48.617   5.843  16.304  0.00  0.00    +0.000 A 
ATOM     20  C   UNL     1      48.457   6.529  15.094  0.00  0.00    +0.000 A 
ATOM     21  C   UNL     1      47.617   6.043  14.088  0.00  0.00    +0.000 A 
ATOM     22  C   UNL     1      47.012   4.793  14.289  0.00  0.00    +0.000 A 
ATOM     23  C   UNL     1      47.190   4.081  15.479  0.00  0.00    +0.000 A 
BRANCH  18  25
ATOM     24  N   UNL     1      47.192   2.915  18.055  0.00  0.00    +0.000 N 
ATOM     25  C   UNL     1      48.158   3.833  17.750  0.00  0.00    +0.000 C 
ATOM     26  O   UNL     1      49.145   3.974  18.461  0.00  0.00    +0.000 OA
ATOM     27  H   UNL     1      47.373   2.324  18.856  0.00  0.00    +0.000 HD
ATOM     28  H   UNL     1      46.517   2.594  17.377  0.00  0.00    +0.000 HD
ENDBRANCH  18  25
ENDBRANCH  16  21
ENDBRANCH   1  16
TORSDOF 5
ENDMDL
MODEL 5
REMARK VINA RESULT:    -7.170      2.684      4.483
REMARK INTER + INTRA:          -9.793
REMARK INTER:                  -8.907
REMARK INTRA:                  -0.887
REMARK UNBOUND:                -0.527
REMARK  Name = 
REMARK  5 active torsions:
REMARK  status: ('A' for Active; 'I' for Inactive)
REMARK    1  A    between atoms: C_2  and  C_4
REMARK    2  A    between atoms: C_7  and  N_8
REMARK    3  A    between atoms: N_8  and  C_9
REMARK    4  A    between atoms: C_9  and  C_10
REMARK    5  A    between atoms: C_14  and  C_15
REMARK                            x       y       z     vdW  Elec       q    Type
REMARK                         _______ _______ _______ _____ _____    ______ ____
ROOT
ATOM      1  C   UNL     1      48.026   7.956  12.503  0.00  0.00    +0.000 C 
ATOM      2  C   UNL     1      48.639   9.086  11.684  0.00  0.00    +0.000 C 
ATOM      3  C   UNL     1      49.052   7.675  11.424  0.00  0.00    +0.000 C 
ENDROOT
BRANCH   1   4
ATOM      4  C   UNL     1      48.436   7.805  13.966  0.00  0.00    +0.000 A 
ATOM      5  C   UNL     1      48.787   8.910  14.754  0.00  0.00    +0.000 A 
ATOM      6  C   UNL     1      49.070   8.768  16.113  0.00  0.00    +0.000 A 
ATOM      7  C   UNL     1      48.973   7.516  16.721  0.00  0.00    +0.000 A 
ATOM      8  C   UNL     1      48.602   6.380  15.988  0.00  0.00    +0.000 A 
ATOM      9  C   UNL     1      48.383   6.550  14.609  0.00  0.00    +0.000 A 
BRANCH   8  10
ATOM     10  C   UNL     1      48.356   5.078  16.643  0.00  0.00    +0.000 A 
ATOM     11  C   UNL     1      49.272   4.532  17.557  0.00  0.00    +0.000 A 
ATOM     12  C   UNL     1      49.001   3.335  18.212  0.00  0.00    +0.000 A 
ATOM     13  C   UNL     1      47.799   2.699  17.948  0.00  0.00    +0.000 A 
ATOM     14  N   UNL     1      46.885   3.171  17.079  0.00  0.00    +0.000 NA
ATOM     15  C   UNL     1      47.187   4.338  16.453  0.00  0.00    +0.000 A 
ENDBRANCH   8  10
ENDBRANCH   1   4
BRANCH   1  16
ATOM     16  N   UNL     1      46.581   7.748  12.272  0.00  0.00    +0.000 N 
ATOM     17  H   UNL     1      45.982   8.239  12.934  0.00  0.00    +0.000 HD
BRANCH  16  21
ATOM     18  C   UNL     1      44.660   4.124  11.215  0.00  0.00    +0.000 A 
ATOM     19  C   UNL     1      45.244   4.908  10.216  0.00  0.00    +0.000 A 
ATOM     20  C   UNL     1      45.878   6.110  10.550  0.00  0.00    +0.000 A 
ATOM     21  C   UNL     1      45.997   6.524  11.880  0.00  0.00    +0.000 A 
ATOM     22  C   UNL     1      45.373   5.745  12.866  0.00  0.00    +0.000 A 
ATOM     23  C   UNL     1      44.707   4.559  12.542  0.00  0.00    +0.000 A 
BRANCH  18  25
ATOM     24  N   UNL     1      44.435   2.097   9.887  0.00  0.00    +0.000 N 
ATOM     25  C   UNL     1      43.935   2.867  10.900  0.00  0.00    +0.000 C 
ATOM     26  O   UNL     1      42.951   2.514  11.537  0.00  0.00    +0.000 OA
ATOM     27  H   UNL     1      43.989   1.201   9.743  0.00  0.00    +0.000 HD
ATOM     28  H   UNL     1      45.369   2.222   9.523  0.00  0.00    +0.000 HD
ENDBRANCH  18  25
ENDBRANCH  16  21
ENDBRANCH   1  16
TORSDOF 5
ENDMDL
MODEL 6
REMARK VINA RESULT:    -7.145      2.931      4.609
REMARK INTER + INTRA:          -9.761
REMARK INTER:                  -8.565
REMARK INTRA:                  -1.196
REMARK UNBOUND:                -0.527
REMARK  Name = 
REMARK  5 active torsions:
REMARK  status: ('A' for Active; 'I' for Inactive)
REMARK    1  A    between atoms: C_2  and  C_4
REMARK    2  A    between atoms: C_7  and  N_8
REMARK    3  A    between atoms: N_8  and  C_9
REMARK    4  A    between atoms: C_9  and  C_10
REMARK    5  A    between atoms: C_14  and  C_15
REMARK                            x       y       z     vdW  Elec       q    Type
REMARK                         _______ _______ _______ _____ _____    ______ ____
ROOT
ATOM      1  C   UNL     1      48.045   8.191  12.588  0.00  0.00    +0.000 C 
ATOM      2  C   UNL     1      48.796   9.211  11.740  0.00  0.00    +0.000 C 
ATOM      3  C   UNL     1      49.109   7.758  11.600  0.00  0.00    +0.000 C 
ENDROOT
BRANCH   1   4
ATOM      4  C   UNL     1      48.352   8.111  14.082  0.00  0.00    +0.000 A 
ATOM      5  C   UNL     1      48.255   9.232  14.919  0.00  0.00    +0.000 A 
ATOM      6  C   UNL     1      48.448   9.125  16.296  0.00  0.00    +0.000 A 
ATOM      7  C   UNL     1      48.708   7.882  16.871  0.00  0.00    +0.000 A 
ATOM      8  C   UNL     1      48.791   6.722  16.088  0.00  0.00    +0.000 A 
ATOM      9  C   UNL     1      48.651   6.877  14.697  0.00  0.00    +0.000 A 
BRANCH   8  10
ATOM     10  C   UNL     1      48.923   5.381  16.695  0.00  0.00    +0.000 A 
ATOM     11  C   UNL     1      47.912   4.415  16.569  0.00  0.00    +0.000 A 
ATOM     12  C   UNL     1      48.075   3.137  17.095  0.00  0.00    +0.000 A 
ATOM     13  C   UNL     1      49.265   2.837  17.736  0.00  0.00    +0.000 A 
ATOM     14  N   UNL     1      50.268   3.722  17.893  0.00  0.00    +0.000 NA
ATOM     15  C   UNL     1      50.070   4.962  17.374  0.00  0.00    +0.000 A 
ENDBRANCH   8  10
ENDBRANCH   1   4
BRANCH   1  16
ATOM     16  N   UNL     1      46.604   8.078  12.276  0.00  0.00    +0.000 N 
ATOM     17  H   UNL     1      46.024   8.766  12.752  0.00  0.00    +0.000 HD
BRANCH  16  21
ATOM     18  C   UNL     1      44.670   4.363  11.651  0.00  0.00    +0.000 A 
ATOM     19  C   UNL     1      44.870   4.820  12.956  0.00  0.00    +0.000 A 
ATOM     20  C   UNL     1      45.512   6.044  13.178  0.00  0.00    +0.000 A 
ATOM     21  C   UNL     1      45.910   6.860  12.115  0.00  0.00    +0.000 A 
ATOM     22  C   UNL     1      45.734   6.369  10.812  0.00  0.00    +0.000 A 
ATOM     23  C   UNL     1      45.125   5.132  10.578  0.00  0.00    +0.000 A 
BRANCH  18  25
ATOM     24  N   UNL     1      43.652   2.301  12.450  0.00  0.00    +0.000 N 
ATOM     25  C   UNL     1      44.038   3.048  11.372  0.00  0.00    +0.000 C 
ATOM     26  O   UNL     1      43.838   2.660  10.228  0.00  0.00    +0.000 OA
ATOM     27  H   UNL     1      43.140   1.453  12.246  0.00  0.00    +0.000 HD
ATOM     28  H   UNL     1      43.564   2.693  13.376  0.00  0.00    +0.000 HD
ENDBRANCH  18  25
ENDBRANCH  16  21
ENDBRANCH   1  16
TORSDOF 5
ENDMDL
MODEL 7
REMARK VINA RESULT:    -7.086      2.858      7.459
REMARK INTER + INTRA:          -9.685
REMARK INTER:                  -9.048
REMARK INTRA:                  -0.637
REMARK UNBOUND:                -0.527
REMARK  Name = 
REMARK  5 active torsions:
REMARK  status: ('A' for Active; 'I' for Inactive)
REMARK    1  A    between atoms: C_2  and  C_4
REMARK    2  A    between atoms: C_7  and  N_8
REMARK    3  A    between atoms: N_8  and  C_9
REMARK    4  A    between atoms: C_9  and  C_10
REMARK    5  A    between atoms: C_14  and  C_15
REMARK                            x       y       z     vdW  Elec       q    Type
REMARK                         _______ _______ _______ _____ _____    ______ ____
ROOT
ATOM      1  C   UNL     1      48.112   8.053  12.444  0.00  0.00    +0.000 C 
ATOM      2  C   UNL     1      48.901   8.882  11.437  0.00  0.00    +0.000 C 
ATOM      3  C   UNL     1      48.372   9.527  12.675  0.00  0.00    +0.000 C 
ENDROOT
BRANCH   1   4
ATOM      4  C   UNL     1      46.700   7.603  12.077  0.00  0.00    +0.000 A 
ATOM      5  C   UNL     1      45.586   8.435  12.262  0.00  0.00    +0.000 A 
ATOM      6  C   UNL     1      44.315   8.048  11.838  0.00  0.00    +0.000 A 
ATOM      7  C   UNL     1      44.138   6.827  11.186  0.00  0.00    +0.000 A 
ATOM      8  C   UNL     1      45.218   5.965  10.950  0.00  0.00    +0.000 A 
ATOM      9  C   UNL     1      46.474   6.362  11.446  0.00  0.00    +0.000 A 
BRANCH   8  10
ATOM     10  C   UNL     1      45.072   4.739  10.138  0.00  0.00    +0.000 A 
ATOM     11  C   UNL     1      45.573   4.663   8.829  0.00  0.00    +0.000 A 
ATOM     12  C   UNL     1      45.482   3.483   8.097  0.00  0.00    +0.000 A 
ATOM     13  C   UNL     1      44.895   2.381   8.696  0.00  0.00    +0.000 A 
ATOM     14  N   UNL     1      44.391   2.396   9.945  0.00  0.00    +0.000 NA
ATOM     15  C   UNL     1      44.491   3.567  10.627  0.00  0.00    +0.000 A 
ENDBRANCH   8  10
ENDBRANCH   1   4
BRANCH   1  16
ATOM     16  N   UNL     1      48.903   7.008  13.129  0.00  0.00    +0.000 N 
ATOM     17  H   UNL     1      49.406   6.389  12.496  0.00  0.00    +0.000 HD
BRANCH  16  21
ATOM     18  C   UNL     1      47.687   4.743  16.494  0.00  0.00    +0.000 A 
ATOM     19  C   UNL     1      48.594   5.792  16.665  0.00  0.00    +0.000 A 
ATOM     20  C   UNL     1      49.009   6.547  15.561  0.00  0.00    +0.000 A 
ATOM     21  C   UNL     1      48.487   6.315  14.285  0.00  0.00    +0.000 A 
ATOM     22  C   UNL     1      47.605   5.235  14.126  0.00  0.00    +0.000 A 
ATOM     23  C   UNL     1      47.209   4.452  15.214  0.00  0.00    +0.000 A 
BRANCH  18  25
ATOM     24  N   UNL     1      47.732   4.214  18.870  0.00  0.00    +0.000 N 
ATOM     25  C   UNL     1      47.258   3.887  17.630  0.00  0.00    +0.000 C 
ATOM     26  O   UNL     1      46.489   2.948  17.473  0.00  0.00    +0.000 OA
ATOM     27  H   UNL     1      47.360   3.682  19.646  0.00  0.00    +0.000 HD
ATOM     28  H   UNL     1      48.147   5.112  19.071  0.00  0.00    +0.000 HD
ENDBRANCH  18  25
ENDBRANCH  16  21
ENDBRANCH   1  16
TORSDOF 5
ENDMDL
MODEL 8
REMARK VINA RESULT:    -6.870      3.349      7.257
REMARK INTER + INTRA:          -9.406
REMARK INTER:                  -8.259
REMARK INTRA:                  -1.147
REMARK UNBOUND:                -0.527
REMARK  Name = 
REMARK  5 active torsions:
REMARK  status: ('A' for Active; 'I' for Inactive)
REMARK    1  A    between atoms: C_2  and  C_4
REMARK    2  A    between atoms: C_7  and  N_8
REMARK    3  A    between atoms: N_8  and  C_9
REMARK    4  A    between atoms: C_9  and  C_10
REMARK    5  A    between atoms: C_14  and  C_15
REMARK                            x       y       z     vdW  Elec       q    Type
REMARK                         _______ _______ _______ _____ _____    ______ ____
ROOT
ATOM      1  C   UNL     1      46.210   5.064  13.385  0.00  0.00    +0.000 C 
ATOM      2  C   UNL     1      45.953   4.315  14.687  0.00  0.00    +0.000 C 
ATOM      3  C   UNL     1      47.144   3.969  13.857  0.00  0.00    +0.000 C 
ENDROOT
BRANCH   1   4
ATOM      4  C   UNL     1      45.300   4.791  12.189  0.00  0.00    +0.000 A 
ATOM      5  C   UNL     1      44.037   5.388  12.068  0.00  0.00    +0.000 A 
ATOM      6  C   UNL     1      43.256   5.202  10.928  0.00  0.00    +0.000 A 
ATOM      7  C   UNL     1      43.740   4.440   9.865  0.00  0.00    +0.000 A 
ATOM      8  C   UNL     1      45.006   3.840   9.918  0.00  0.00    +0.000 A 
ATOM      9  C   UNL     1      45.740   3.999  11.108  0.00  0.00    +0.000 A 
BRANCH   8  10
ATOM     10  C   UNL     1      45.590   3.152   8.748  0.00  0.00    +0.000 A 
ATOM     11  C   UNL     1      46.023   3.863   7.619  0.00  0.00    +0.000 A 
ATOM     12  C   UNL     1      46.626   3.208   6.549  0.00  0.00    +0.000 A 
ATOM     13  C   UNL     1      46.800   1.837   6.631  0.00  0.00    +0.000 A 
ATOM     14  N   UNL     1      46.400   1.101   7.686  0.00  0.00    +0.000 NA
ATOM     15  C   UNL     1      45.809   1.773   8.708  0.00  0.00    +0.000 A 
ENDBRANCH   8  10
ENDBRANCH   1   4
BRANCH   1  16
ATOM     16  N   UNL     1      46.542   6.495  13.557  0.00  0.00    +0.000 N 
ATOM     17  H   UNL     1      45.752   7.122  13.413  0.00  0.00    +0.000 HD
BRANCH  16  21
ATOM     18  C   UNL     1      50.263   8.161  12.410  0.00  0.00    +0.000 A 
ATOM     19  C   UNL     1      49.302   7.890  11.432  0.00  0.00    +0.000 A 
ATOM     20  C   UNL     1      48.069   7.335  11.796  0.00  0.00    +0.000 A 
ATOM     21  C   UNL     1      47.746   7.097  13.135  0.00  0.00    +0.000 A 
ATOM     22  C   UNL     1      48.736   7.340  14.100  0.00  0.00    +0.000 A 
ATOM     23  C   UNL     1      49.983   7.862  13.746  0.00  0.00    +0.000 A 
BRANCH  18  25
ATOM     24  N   UNL     1      52.511   7.828  11.538  0.00  0.00    +0.000 N 
ATOM     25  C   UNL     1      51.601   8.703  12.063  0.00  0.00    +0.000 C 
ATOM     26  O   UNL     1      51.872   9.888  12.207  0.00  0.00    +0.000 OA
ATOM     27  H   UNL     1      53.384   8.227  11.220  0.00  0.00    +0.000 HD
ATOM     28  H   UNL     1      52.245   6.926  11.171  0.00  0.00    +0.000 HD
ENDBRANCH  18  25
ENDBRANCH  16  21
ENDBRANCH   1  16
TORSDOF 5
ENDMDL
MODEL 9
REMARK VINA RESULT:    -6.720      3.766      8.295
REMARK INTER + INTRA:          -9.212
REMARK INTER:                  -8.586
REMARK INTRA:                  -0.626
REMARK UNBOUND:                -0.527
REMARK  Name = 
REMARK  5 active torsions:
REMARK  status: ('A' for Active; 'I' for Inactive)
REMARK    1  A    between atoms: C_2  and  C_4
REMARK    2  A    between atoms: C_7  and  N_8
REMARK    3  A    between atoms: N_8  and  C_9
REMARK    4  A    between atoms: C_9  and  C_10
REMARK    5  A    between atoms: C_14  and  C_15
REMARK                            x       y       z     vdW  Elec       q    Type
REMARK                         _______ _______ _______ _____ _____    ______ ____
ROOT
ATOM      1  C   UNL     1      48.248   4.756  17.100  0.00  0.00    +0.000 C 
ATOM      2  C   UNL     1      47.153   4.915  18.147  0.00  0.00    +0.000 C 
ATOM      3  C   UNL     1      47.298   3.620  17.420  0.00  0.00    +0.000 C 
ENDROOT
BRANCH   1   4
ATOM      4  C   UNL     1      48.101   5.486  15.767  0.00  0.00    +0.000 A 
ATOM      5  C   UNL     1      48.962   6.529  15.395  0.00  0.00    +0.000 A 
ATOM      6  C   UNL     1      48.874   7.125  14.137  0.00  0.00    +0.000 A 
ATOM      7  C   UNL     1      47.941   6.664  13.208  0.00  0.00    +0.000 A 
ATOM      8  C   UNL     1      47.071   5.607  13.514  0.00  0.00    +0.000 A 
ATOM      9  C   UNL     1      47.148   5.072  14.813  0.00  0.00    +0.000 A 
BRANCH   8  10
ATOM     10  C   UNL     1      46.178   5.015  12.497  0.00  0.00    +0.000 A 
ATOM     11  C   UNL     1      45.585   3.757  12.686  0.00  0.00    +0.000 A 
ATOM     12  C   UNL     1      44.699   3.236  11.747  0.00  0.00    +0.000 A 
ATOM     13  C   UNL     1      44.407   3.996  10.627  0.00  0.00    +0.000 A 
ATOM     14  N   UNL     1      44.949   5.206  10.389  0.00  0.00    +0.000 NA
ATOM     15  C   UNL     1      45.816   5.678  11.323  0.00  0.00    +0.000 A 
ENDBRANCH   8  10
ENDBRANCH   1   4
BRANCH   1  16
ATOM     16  N   UNL     1      49.624   4.793  17.642  0.00  0.00    +0.000 N 
ATOM     17  H   UNL     1      50.102   5.680  17.493  0.00  0.00    +0.000 HD
BRANCH  16  21
ATOM     18  C   UNL     1      52.426   1.619  17.705  0.00  0.00    +0.000 A 
ATOM     19  C   UNL     1      51.111   1.365  17.305  0.00  0.00    +0.000 A 
ATOM     20  C   UNL     1      50.173   2.403  17.283  0.00  0.00    +0.000 A 
ATOM     21  C   UNL     1      50.534   3.717  17.598  0.00  0.00    +0.000 A 
ATOM     22  C   UNL     1      51.849   3.946  18.032  0.00  0.00    +0.000 A 
ATOM     23  C   UNL     1      52.787   2.911  18.091  0.00  0.00    +0.000 A 
BRANCH  18  25
ATOM     24  N   UNL     1      53.067  -0.620  18.416  0.00  0.00    +0.000 N 
ATOM     25  C   UNL     1      53.440   0.537  17.789  0.00  0.00    +0.000 C 
ATOM     26  O   UNL     1      54.552   0.658  17.291  0.00  0.00    +0.000 OA
ATOM     27  H   UNL     1      53.733  -1.381  18.384  0.00  0.00    +0.000 HD
ATOM     28  H   UNL     1      52.101  -0.847  18.602  0.00  0.00    +0.000 HD
ENDBRANCH  18  25
ENDBRANCH  16  21
ENDBRANCH   1  16
TORSDOF 5
ENDMDL
