MODEL 1
REMARK VINA RESULT:    -9.318      0.000      0.000
REMARK INTER + INTRA:         -12.528
REMARK INTER:                 -11.770
REMARK INTRA:                  -0.759
REMARK UNBOUND:                -0.759
REMARK  Name = 
REMARK  5 active torsions:
REMARK  status: ('A' for Active; 'I' for Inactive)
REMARK    1  A    between atoms: C_2  and  C_4
REMARK    2  A    between atoms: N_8  and  C_9
REMARK    3  A    between atoms: C_9  and  C_10
REMARK    4  A    between atoms: C_14  and  C_15
REMARK    5  A    between atoms: C_19  and  O_20
REMARK                            x       y       z     vdW  Elec       q    Type
REMARK                         _______ _______ _______ _____ _____    ______ ____
ROOT
ATOM      1  C   UNL     1      44.179   4.881  11.491  0.00  0.00    +0.000 C 
ATOM      2  C   UNL     1      42.905   4.902  12.328  0.00  0.00    +0.000 C 
ATOM      3  C   UNL     1      43.029   5.807  11.148  0.00  0.00    +0.000 C 
ENDROOT
BRANCH   1   8
ATOM      4  C   UNL     1      46.612   2.716   7.396  0.00  0.00    +0.000 A 
ATOM      5  C   UNL     1      46.438   4.060   7.724  0.00  0.00    +0.000 A 
ATOM      6  C   UNL     1      45.693   4.393   8.857  0.00  0.00    +0.000 A 
ATOM      7  C   UNL     1      45.180   3.385   9.663  0.00  0.00    +0.000 A 
ATOM      8  N   UNL     1      44.408   3.614  10.795  0.00  0.00    +0.000 N 
ATOM      9  N   UNL     1      45.356   2.080   9.353  0.00  0.00    +0.000 NA
ATOM     10  C   UNL     1      46.037   1.772   8.219  0.00  0.00    +0.000 A 
ATOM     11  H   UNL     1      44.331   2.743  11.313  0.00  0.00    +0.000 HD
BRANCH   4  13
ATOM     12  N   UNL     1      47.162   3.053   5.059  0.00  0.00    +0.000 N 
ATOM     13  C   UNL     1      47.339   2.284   6.180  0.00  0.00    +0.000 C 
ATOM     14  O   UNL     1      48.074   1.309   6.182  0.00  0.00    +0.000 OA
ATOM     15  H   UNL     1      47.704   2.801   4.240  0.00  0.00    +0.000 HD
ATOM     16  H   UNL     1      46.771   3.980   5.094  0.00  0.00    +0.000 HD
ENDBRANCH   4  13
ENDBRANCH   1   8
BRANCH   1  17
ATOM     17  C   UNL     1      45.451   5.481  12.071  0.00  0.00    +0.000 A 
ATOM     18  C   UNL     1      46.045   6.620  11.512  0.00  0.00    +0.000 A 
ATOM     19  C   UNL     1      47.119   7.252  12.132  0.00  0.00    +0.000 A 
ATOM     20  C   UNL     1      47.615   6.761  13.341  0.00  0.00    +0.000 A 
ATOM     21  C   UNL     1      47.065   5.618  13.942  0.00  0.00    +0.000 A 
ATOM     22  C   UNL     1      46.008   4.983  13.265  0.00  0.00    +0.000 A 
BRANCH  21  23
ATOM     23  C   UNL     1      47.514   5.146  15.268  0.00  0.00    +0.000 A 
ATOM     24  C   UNL     1      48.523   5.803  15.983  0.00  0.00    +0.000 A 
ATOM     25  N   UNL     1      48.961   5.461  17.221  0.00  0.00    +0.000 NA
ATOM     26  C   UNL     1      48.352   4.406  17.801  0.00  0.00    +0.000 A 
ATOM     27  C   UNL     1      47.338   3.685  17.194  0.00  0.00    +0.000 A 
ATOM     28  C   UNL     1      46.925   4.051  15.919  0.00  0.00    +0.000 A 
BRANCH  27  29
ATOM     29  O   UNL     1      46.712   2.637  17.798  0.00  0.00    +0.000 OA
ATOM     30  H   UNL     1      47.260   1.840  17.699  0.00  0.00    +0.000 HD
ENDBRANCH  27  29
ENDBRANCH  21  23
ENDBRANCH   1  17
TORSDOF 5
ENDMDL
MODEL 2
REMARK VINA RESULT:    -8.796      2.775      3.962
REMARK INTER + INTRA:         -11.869
REMARK INTER:                 -10.835
REMARK INTRA:                  -1.034
REMARK UNBOUND:                -0.759
REMARK  Name = 
REMARK  5 active torsions:
REMARK  status: ('A' for Active; 'I' for Inactive)
REMARK    1  A    between atoms: C_2  and  C_4
REMARK    2  A    between atoms: N_8  and  C_9
REMARK    3  A    between atoms: C_9  and  C_10
REMARK    4  A    between atoms: C_14  and  C_15
REMARK    5  A    between atoms: C_19  and  O_20
REMARK                            x       y       z     vdW  Elec       q    Type
REMARK                         _______ _______ _______ _____ _____    ______ ____
ROOT
ATOM      1  C   UNL     1      44.036   4.862  11.476  0.00  0.00    +0.000 C 
ATOM      2  C   UNL     1      42.628   5.001  12.044  0.00  0.00    +0.000 C 
ATOM      3  C   UNL     1      43.084   5.925  10.965  0.00  0.00    +0.000 C 
ENDROOT
BRANCH   1   8
ATOM      4  C   UNL     1      46.552   2.716   7.422  0.00  0.00    +0.000 A 
ATOM      5  C   UNL     1      46.389   4.058   7.764  0.00  0.00    +0.000 A 
ATOM      6  C   UNL     1      45.616   4.387   8.879  0.00  0.00    +0.000 A 
ATOM      7  C   UNL     1      45.066   3.376   9.656  0.00  0.00    +0.000 A 
ATOM      8  N   UNL     1      44.266   3.602  10.769  0.00  0.00    +0.000 N 
ATOM      9  N   UNL     1      45.231   2.073   9.333  0.00  0.00    +0.000 NA
ATOM     10  C   UNL     1      45.940   1.770   8.215  0.00  0.00    +0.000 A 
ATOM     11  H   UNL     1      44.161   2.725  11.272  0.00  0.00    +0.000 HD
BRANCH   4  13
ATOM     12  N   UNL     1      47.191   3.088   5.112  0.00  0.00    +0.000 N 
ATOM     13  C   UNL     1      47.307   2.289   6.221  0.00  0.00    +0.000 C 
ATOM     14  O   UNL     1      48.012   1.293   6.224  0.00  0.00    +0.000 OA
ATOM     15  H   UNL     1      47.753   2.839   4.307  0.00  0.00    +0.000 HD
ATOM     16  H   UNL     1      46.826   4.026   5.156  0.00  0.00    +0.000 HD
ENDBRANCH   4  13
ENDBRANCH   1   8
BRANCH   1  17
ATOM     17  C   UNL     1      45.219   5.292  12.329  0.00  0.00    +0.000 A 
ATOM     18  C   UNL     1      45.687   4.502  13.388  0.00  0.00    +0.000 A 
ATOM     19  C   UNL     1      46.857   4.825  14.067  0.00  0.00    +0.000 A 
ATOM     20  C   UNL     1      47.598   5.945  13.689  0.00  0.00    +0.000 A 
ATOM     21  C   UNL     1      47.174   6.779  12.642  0.00  0.00    +0.000 A 
ATOM     22  C   UNL     1      45.964   6.444  12.007  0.00  0.00    +0.000 A 
BRANCH  21  23
ATOM     23  C   UNL     1      47.997   7.910  12.167  0.00  0.00    +0.000 A 
ATOM     24  C   UNL     1      47.496   9.217  12.116  0.00  0.00    +0.000 A 
ATOM     25  N   UNL     1      48.197  10.315  11.736  0.00  0.00    +0.000 NA
ATOM     26  C   UNL     1      49.486  10.112  11.395  0.00  0.00    +0.000 A 
ATOM     27  C   UNL     1      50.092   8.867  11.413  0.00  0.00    +0.000 A 
ATOM     28  C   UNL     1      49.341   7.761  11.791  0.00  0.00    +0.000 A 
BRANCH  27  29
ATOM     29  O   UNL     1      51.401   8.676  11.091  0.00  0.00    +0.000 OA
ATOM     30  H   UNL     1      51.735   7.898  11.569  0.00  0.00    +0.000 HD
ENDBRANCH  27  29
ENDBRANCH  21  23
ENDBRANCH   1  17
TORSDOF 5
ENDMDL
MODEL 3
REMARK VINA RESULT:    -7.243      1.948      7.829
REMARK INTER + INTRA:          -9.907
REMARK INTER:                 -10.022
REMARK INTRA:                   0.116
REMARK UNBOUND:                -0.759
REMARK  Name = 
REMARK  5 active torsions:
REMARK  status: ('A' for Active; 'I' for Inactive)
REMARK    1  A    between atoms: C_2  and  C_4
REMARK    2  A    between atoms: N_8  and  C_9
REMARK    3  A    between atoms: C_9  and  C_10
REMARK    4  A    between atoms: C_14  and  C_15
REMARK    5  A    between atoms: C_19  and  O_20
REMARK                            x       y       z     vdW  Elec       q    Type
REMARK                         _______ _______ _______ _____ _____    ______ ____
ROOT
ATOM      1  C   UNL     1      48.564   7.964  12.595  0.00  0.00    +0.000 C 
ATOM      2  C   UNL     1      49.677   7.486  11.669  0.00  0.00    +0.000 C 
ATOM      3  C   UNL     1      49.362   8.942  11.756  0.00  0.00    +0.000 C 
ENDROOT
BRANCH   1   8
ATOM      4  C   UNL     1      47.797   4.605  16.534  0.00  0.00    +0.000 A 
ATOM      5  C   UNL     1      47.239   4.627  15.256  0.00  0.00    +0.000 A 
ATOM      6  C   UNL     1      47.562   5.673  14.389  0.00  0.00    +0.000 A 
ATOM      7  C   UNL     1      48.470   6.645  14.793  0.00  0.00    +0.000 A 
ATOM      8  N   UNL     1      48.837   7.734  14.015  0.00  0.00    +0.000 N 
ATOM      9  N   UNL     1      49.021   6.620  16.028  0.00  0.00    +0.000 NA
ATOM     10  C   UNL     1      48.655   5.627  16.879  0.00  0.00    +0.000 A 
ATOM     11  H   UNL     1      49.648   8.174  14.440  0.00  0.00    +0.000 HD
BRANCH   4  13
ATOM     12  N   UNL     1      48.340   3.402  18.567  0.00  0.00    +0.000 N 
ATOM     13  C   UNL     1      47.458   3.563  17.530  0.00  0.00    +0.000 C 
ATOM     14  O   UNL     1      46.437   2.899  17.445  0.00  0.00    +0.000 OA
ATOM     15  H   UNL     1      48.085   2.736  19.287  0.00  0.00    +0.000 HD
ATOM     16  H   UNL     1      49.043   4.088  18.793  0.00  0.00    +0.000 HD
ENDBRANCH   4  13
ENDBRANCH   1   8
BRANCH   1  17
ATOM     17  C   UNL     1      47.118   7.686  12.213  0.00  0.00    +0.000 A 
ATOM     18  C   UNL     1      46.122   8.662  12.354  0.00  0.00    +0.000 A 
ATOM     19  C   UNL     1      44.836   8.455  11.866  0.00  0.00    +0.000 A 
ATOM     20  C   UNL     1      44.521   7.265  11.209  0.00  0.00    +0.000 A 
ATOM     21  C   UNL     1      45.475   6.249  11.047  0.00  0.00    +0.000 A 
ATOM     22  C   UNL     1      46.753   6.477  11.590  0.00  0.00    +0.000 A 
BRANCH  21  23
ATOM     23  C   UNL     1      45.185   5.027  10.269  0.00  0.00    +0.000 A 
ATOM     24  C   UNL     1      44.365   4.009  10.772  0.00  0.00    +0.000 A 
ATOM     25  N   UNL     1      44.014   2.880  10.106  0.00  0.00    +0.000 NA
ATOM     26  C   UNL     1      44.494   2.751   8.853  0.00  0.00    +0.000 A 
ATOM     27  C   UNL     1      45.307   3.694   8.248  0.00  0.00    +0.000 A 
ATOM     28  C   UNL     1      45.661   4.832   8.963  0.00  0.00    +0.000 A 
BRANCH  27  29
ATOM     29  O   UNL     1      45.765   3.568   6.972  0.00  0.00    +0.000 OA
ATOM     30  H   UNL     1      46.641   3.145   6.990  0.00  0.00    +0.000 HD
ENDBRANCH  27  29
ENDBRANCH  21  23
ENDBRANCH   1  17
TORSDOF 5
ENDMDL
MODEL 4
REMARK VINA RESULT:    -7.134      3.409      8.356
REMARK INTER + INTRA:          -9.769
REMARK INTER:                  -9.225
REMARK INTRA:                  -0.544
REMARK UNBOUND:                -0.759
REMARK  Name = 
REMARK  5 active torsions:
REMARK  status: ('A' for Active; 'I' for Inactive)
REMARK    1  A    between atoms: C_2  and  C_4
REMARK    2  A    between atoms: N_8  and  C_9
REMARK    3  A    between atoms: C_9  and  C_10
REMARK    4  A    between atoms: C_14  and  C_15
REMARK    5  A    between atoms: C_19  and  O_20
REMARK                            x       y       z     vdW  Elec       q    Type
REMARK                         _______ _______ _______ _____ _____    ______ ____
ROOT
ATOM      1  C   UNL     1      48.105   4.679  16.947  0.00  0.00    +0.000 C 
ATOM      2  C   UNL     1      47.094   4.890  18.068  0.00  0.00    +0.000 C 
ATOM      3  C   UNL     1      47.139   3.583  17.349  0.00  0.00    +0.000 C 
ENDROOT
BRANCH   1   8
ATOM      4  C   UNL     1      52.352   1.708  17.661  0.00  0.00    +0.000 A 
ATOM      5  C   UNL     1      51.043   1.337  17.357  0.00  0.00    +0.000 A 
ATOM      6  C   UNL     1      50.059   2.324  17.270  0.00  0.00    +0.000 A 
ATOM      7  C   UNL     1      50.407   3.658  17.439  0.00  0.00    +0.000 A 
ATOM      8  N   UNL     1      49.498   4.708  17.395  0.00  0.00    +0.000 N 
ATOM      9  N   UNL     1      51.678   4.022  17.724  0.00  0.00    +0.000 NA
ATOM     10  C   UNL     1      52.614   3.047  17.859  0.00  0.00    +0.000 A 
ATOM     11  H   UNL     1      50.017   5.580  17.343  0.00  0.00    +0.000 HD
BRANCH   4  13
ATOM     12  N   UNL     1      53.095  -0.472  18.421  0.00  0.00    +0.000 N 
ATOM     13  C   UNL     1      53.439   0.716  17.828  0.00  0.00    +0.000 C 
ATOM     14  O   UNL     1      54.576   0.935  17.439  0.00  0.00    +0.000 OA
ATOM     15  H   UNL     1      53.817  -1.180  18.482  0.00  0.00    +0.000 HD
ATOM     16  H   UNL     1      52.138  -0.769  18.521  0.00  0.00    +0.000 HD
ENDBRANCH   4  13
ENDBRANCH   1   8
BRANCH   1  17
ATOM     17  C   UNL     1      47.891   5.388  15.619  0.00  0.00    +0.000 A 
ATOM     18  C   UNL     1      48.752   6.405  15.183  0.00  0.00    +0.000 A 
ATOM     19  C   UNL     1      48.641   6.946  13.906  0.00  0.00    +0.000 A 
ATOM     20  C   UNL     1      47.668   6.468  13.027  0.00  0.00    +0.000 A 
ATOM     21  C   UNL     1      46.773   5.458  13.412  0.00  0.00    +0.000 A 
ATOM     22  C   UNL     1      46.889   4.965  14.725  0.00  0.00    +0.000 A 
BRANCH  21  23
ATOM     23  C   UNL     1      45.804   4.874  12.461  0.00  0.00    +0.000 A 
ATOM     24  C   UNL     1      45.659   5.368  11.159  0.00  0.00    +0.000 A 
ATOM     25  N   UNL     1      44.827   4.862  10.213  0.00  0.00    +0.000 NA
ATOM     26  C   UNL     1      44.099   3.786  10.572  0.00  0.00    +0.000 A 
ATOM     27  C   UNL     1      44.164   3.206  11.827  0.00  0.00    +0.000 A 
ATOM     28  C   UNL     1      45.013   3.759  12.778  0.00  0.00    +0.000 A 
BRANCH  27  29
ATOM     29  O   UNL     1      43.443   2.103  12.172  0.00  0.00    +0.000 OA
ATOM     30  H   UNL     1      43.997   1.521  12.720  0.00  0.00    +0.000 HD
ENDBRANCH  27  29
ENDBRANCH  21  23
ENDBRANCH   1  17
TORSDOF 5
ENDMDL
MODEL 5
REMARK VINA RESULT:    -6.984      3.663      5.240
REMARK INTER + INTRA:          -9.580
REMARK INTER:                  -8.575
REMARK INTRA:                  -1.005
REMARK UNBOUND:                -0.759
REMARK  Name = 
REMARK  5 active torsions:
REMARK  status: ('A' for Active; 'I' for Inactive)
REMARK    1  A    between atoms: C_2  and  C_4
REMARK    2  A    between atoms: N_8  and  C_9
REMARK    3  A    between atoms: C_9  and  C_10
REMARK    4  A    between atoms: C_14  and  C_15
REMARK    5  A    between atoms: C_19  and  O_20
REMARK                            x       y       z     vdW  Elec       q    Type
REMARK                         _______ _______ _______ _____ _____    ______ ____
ROOT
ATOM      1  C   UNL     1      48.931   8.406  12.628  0.00  0.00    +0.000 C 
ATOM      2  C   UNL     1      49.996   9.191  11.873  0.00  0.00    +0.000 C 
ATOM      3  C   UNL     1      49.982   7.701  11.794  0.00  0.00    +0.000 C 
ENDROOT
BRANCH   1   8
ATOM      4  C   UNL     1      44.334   6.083  11.705  0.00  0.00    +0.000 A 
ATOM      5  C   UNL     1      45.569   5.523  12.029  0.00  0.00    +0.000 A 
ATOM      6  C   UNL     1      46.678   6.359  12.174  0.00  0.00    +0.000 A 
ATOM      7  C   UNL     1      46.525   7.733  12.043  0.00  0.00    +0.000 A 
ATOM      8  N   UNL     1      47.569   8.644  12.146  0.00  0.00    +0.000 N 
ATOM      9  N   UNL     1      45.326   8.280  11.739  0.00  0.00    +0.000 NA
ATOM     10  C   UNL     1      44.268   7.451  11.547  0.00  0.00    +0.000 A 
ATOM     11  H   UNL     1      47.175   9.578  12.215  0.00  0.00    +0.000 HD
BRANCH   4  13
ATOM     12  N   UNL     1      41.922   5.846  11.774  0.00  0.00    +0.000 N 
ATOM     13  C   UNL     1      43.125   5.259  11.476  0.00  0.00    +0.000 C 
ATOM     14  O   UNL     1      43.193   4.126  11.025  0.00  0.00    +0.000 OA
ATOM     15  H   UNL     1      41.087   5.313  11.561  0.00  0.00    +0.000 HD
ATOM     16  H   UNL     1      41.822   6.840  11.906  0.00  0.00    +0.000 HD
ENDBRANCH   4  13
ENDBRANCH   1   8
BRANCH   1  17
ATOM     17  C   UNL     1      49.020   8.314  14.144  0.00  0.00    +0.000 A 
ATOM     18  C   UNL     1      48.919   9.452  14.955  0.00  0.00    +0.000 A 
ATOM     19  C   UNL     1      48.851   9.346  16.341  0.00  0.00    +0.000 A 
ATOM     20  C   UNL     1      48.868   8.090  16.947  0.00  0.00    +0.000 A 
ATOM     21  C   UNL     1      48.977   6.916  16.186  0.00  0.00    +0.000 A 
ATOM     22  C   UNL     1      49.086   7.065  14.791  0.00  0.00    +0.000 A 
BRANCH  21  23
ATOM     23  C   UNL     1      48.897   5.577  16.806  0.00  0.00    +0.000 A 
ATOM     24  C   UNL     1      50.005   4.981  17.420  0.00  0.00    +0.000 A 
ATOM     25  N   UNL     1      50.005   3.779  18.049  0.00  0.00    +0.000 NA
ATOM     26  C   UNL     1      48.827   3.124  18.087  0.00  0.00    +0.000 A 
ATOM     27  C   UNL     1      47.663   3.617  17.521  0.00  0.00    +0.000 A 
ATOM     28  C   UNL     1      47.702   4.844  16.869  0.00  0.00    +0.000 A 
BRANCH  27  29
ATOM     29  O   UNL     1      46.472   2.961  17.586  0.00  0.00    +0.000 OA
ATOM     30  H   UNL     1      46.578   2.165  18.136  0.00  0.00    +0.000 HD
ENDBRANCH  27  29
ENDBRANCH  21  23
ENDBRANCH   1  17
TORSDOF 5
ENDMDL
MODEL 6
REMARK VINA RESULT:    -6.974      2.877      8.417
REMARK INTER + INTRA:          -9.567
REMARK INTER:                  -8.654
REMARK INTRA:                  -0.912
REMARK UNBOUND:                -0.759
REMARK  Name = 
REMARK  5 active torsions:
REMARK  status: ('A' for Active; 'I' for Inactive)
REMARK    1  A    between atoms: C_2  and  C_4
REMARK    2  A    between atoms: N_8  and  C_9
REMARK    3  A    between atoms: C_9  and  C_10
REMARK    4  A    between atoms: C_14  and  C_15
REMARK    5  A    between atoms: C_19  and  O_20
REMARK                            x       y       z     vdW  Elec       q    Type
REMARK                         _______ _______ _______ _____ _____    ______ ____
ROOT
ATOM      1  C   UNL     1      48.872   7.805  12.530  0.00  0.00    +0.000 C 
ATOM      2  C   UNL     1      49.845   7.848  11.358  0.00  0.00    +0.000 C 
ATOM      3  C   UNL     1      49.573   9.091  12.137  0.00  0.00    +0.000 C 
ENDROOT
BRANCH   1   8
ATOM      4  C   UNL     1      48.866   7.382  17.746  0.00  0.00    +0.000 A 
ATOM      5  C   UNL     1      48.471   8.445  16.934  0.00  0.00    +0.000 A 
ATOM      6  C   UNL     1      48.622   8.338  15.550  0.00  0.00    +0.000 A 
ATOM      7  C   UNL     1      49.115   7.162  15.002  0.00  0.00    +0.000 A 
ATOM      8  N   UNL     1      49.323   6.967  13.642  0.00  0.00    +0.000 N 
ATOM      9  N   UNL     1      49.490   6.125  15.785  0.00  0.00    +0.000 NA
ATOM     10  C   UNL     1      49.388   6.263  17.132  0.00  0.00    +0.000 A 
ATOM     11  H   UNL     1      49.491   5.978  13.481  0.00  0.00    +0.000 HD
BRANCH   4  13
ATOM     12  N   UNL     1      47.743   8.148  19.753  0.00  0.00    +0.000 N 
ATOM     13  C   UNL     1      48.792   7.441  19.223  0.00  0.00    +0.000 C 
ATOM     14  O   UNL     1      49.608   6.873  19.932  0.00  0.00    +0.000 OA
ATOM     15  H   UNL     1      47.650   8.141  20.763  0.00  0.00    +0.000 HD
ATOM     16  H   UNL     1      46.937   8.409  19.210  0.00  0.00    +0.000 HD
ENDBRANCH   4  13
ENDBRANCH   1   8
BRANCH   1  17
ATOM     17  C   UNL     1      47.384   7.671  12.248  0.00  0.00    +0.000 A 
ATOM     18  C   UNL     1      46.524   8.776  12.303  0.00  0.00    +0.000 A 
ATOM     19  C   UNL     1      45.196   8.678  11.899  0.00  0.00    +0.000 A 
ATOM     20  C   UNL     1      44.701   7.466  11.415  0.00  0.00    +0.000 A 
ATOM     21  C   UNL     1      45.513   6.324  11.346  0.00  0.00    +0.000 A 
ATOM     22  C   UNL     1      46.838   6.451  11.802  0.00  0.00    +0.000 A 
BRANCH  21  23
ATOM     23  C   UNL     1      45.032   5.063  10.745  0.00  0.00    +0.000 A 
ATOM     24  C   UNL     1      45.377   4.689   9.441  0.00  0.00    +0.000 A 
ATOM     25  N   UNL     1      45.015   3.531   8.832  0.00  0.00    +0.000 NA
ATOM     26  C   UNL     1      44.272   2.677   9.564  0.00  0.00    +0.000 A 
ATOM     27  C   UNL     1      43.876   2.936  10.866  0.00  0.00    +0.000 A 
ATOM     28  C   UNL     1      44.250   4.138  11.454  0.00  0.00    +0.000 A 
BRANCH  27  29
ATOM     29  O   UNL     1      43.147   2.056  11.607  0.00  0.00    +0.000 OA
ATOM     30  H   UNL     1      42.540   2.552  12.182  0.00  0.00    +0.000 HD
ENDBRANCH  27  29
ENDBRANCH  21  23
ENDBRANCH   1  17
TORSDOF 5
ENDMDL
MODEL 7
REMARK VINA RESULT:    -6.495      3.723      8.264
REMARK INTER + INTRA:          -8.962
REMARK INTER:                  -8.060
REMARK INTRA:                  -0.902
REMARK UNBOUND:                -0.759
REMARK  Name = 
REMARK  5 active torsions:
REMARK  status: ('A' for Active; 'I' for Inactive)
REMARK    1  A    between atoms: C_2  and  C_4
REMARK    2  A    between atoms: N_8  and  C_9
REMARK    3  A    between atoms: C_9  and  C_10
REMARK    4  A    between atoms: C_14  and  C_15
REMARK    5  A    between atoms: C_19  and  O_20
REMARK                            x       y       z     vdW  Elec       q    Type
REMARK                         _______ _______ _______ _____ _____    ______ ____
ROOT
ATOM      1  C   UNL     1      49.351   8.222  12.680  0.00  0.00    +0.000 C 
ATOM      2  C   UNL     1      50.238   8.170  11.442  0.00  0.00    +0.000 C 
ATOM      3  C   UNL     1      50.254   9.382  12.311  0.00  0.00    +0.000 C 
ENDROOT
BRANCH   1   8
ATOM      4  C   UNL     1      48.934   7.124  17.779  0.00  0.00    +0.000 A 
ATOM      5  C   UNL     1      48.612   8.291  17.087  0.00  0.00    +0.000 A 
ATOM      6  C   UNL     1      48.870   8.362  15.716  0.00  0.00    +0.000 A 
ATOM      7  C   UNL     1      49.395   7.258  15.057  0.00  0.00    +0.000 A 
ATOM      8  N   UNL     1      49.707   7.238  13.704  0.00  0.00    +0.000 N 
ATOM      9  N   UNL     1      49.698   6.121  15.724  0.00  0.00    +0.000 NA
ATOM     10  C   UNL     1      49.492   6.085  17.066  0.00  0.00    +0.000 A 
ATOM     11  H   UNL     1      49.877   6.276  13.428  0.00  0.00    +0.000 HD
BRANCH   4  13
ATOM     12  N   UNL     1      47.450   6.932  19.687  0.00  0.00    +0.000 N 
ATOM     13  C   UNL     1      48.746   6.992  19.242  0.00  0.00    +0.000 C 
ATOM     14  O   UNL     1      49.693   6.917  20.009  0.00  0.00    +0.000 OA
ATOM     15  H   UNL     1      47.313   6.778  20.679  0.00  0.00    +0.000 HD
ATOM     16  H   UNL     1      46.674   6.744  19.072  0.00  0.00    +0.000 HD
ENDBRANCH   4  13
ENDBRANCH   1   8
BRANCH   1  17
ATOM     17  C   UNL     1      47.849   8.384  12.504  0.00  0.00    +0.000 A 
ATOM     18  C   UNL     1      47.273   9.629  12.220  0.00  0.00    +0.000 A 
ATOM     19  C   UNL     1      45.921   9.746  11.913  0.00  0.00    +0.000 A 
ATOM     20  C   UNL     1      45.114   8.609  11.870  0.00  0.00    +0.000 A 
ATOM     21  C   UNL     1      45.633   7.336  12.155  0.00  0.00    +0.000 A 
ATOM     22  C   UNL     1      46.995   7.263  12.501  0.00  0.00    +0.000 A 
BRANCH  21  23
ATOM     23  C   UNL     1      44.816   6.114  12.016  0.00  0.00    +0.000 A 
ATOM     24  C   UNL     1      43.525   6.147  11.476  0.00  0.00    +0.000 A 
ATOM     25  N   UNL     1      42.727   5.067  11.274  0.00  0.00    +0.000 NA
ATOM     26  C   UNL     1      43.244   3.870  11.617  0.00  0.00    +0.000 A 
ATOM     27  C   UNL     1      44.511   3.713  12.153  0.00  0.00    +0.000 A 
ATOM     28  C   UNL     1      45.295   4.841  12.362  0.00  0.00    +0.000 A 
BRANCH  27  29
ATOM     29  O   UNL     1      45.034   2.497  12.473  0.00  0.00    +0.000 OA
ATOM     30  H   UNL     1      44.645   1.822  11.890  0.00  0.00    +0.000 HD
ENDBRANCH  27  29
ENDBRANCH  21  23
ENDBRANCH   1  17
TORSDOF 5
ENDMDL
MODEL 8
REMARK VINA RESULT:    -6.474      2.880      4.690
REMARK INTER + INTRA:          -8.936
REMARK INTER:                  -8.636
REMARK INTRA:                  -0.300
REMARK UNBOUND:                -0.759
REMARK  Name = 
REMARK  5 active torsions:
REMARK  status: ('A' for Active; 'I' for Inactive)
REMARK    1  A    between atoms: C_2  and  C_4
REMARK    2  A    between atoms: N_8  and  C_9
REMARK    3  A    between atoms: C_9  and  C_10
REMARK    4  A    between atoms: C_14  and  C_15
REMARK    5  A    between atoms: C_19  and  O_20
REMARK                            x       y       z     vdW  Elec       q    Type
REMARK                         _______ _______ _______ _____ _____    ______ ____
ROOT
ATOM      1  C   UNL     1      47.796   8.697  13.387  0.00  0.00    +0.000 C 
ATOM      2  C   UNL     1      47.906  10.167  13.000  0.00  0.00    +0.000 C 
ATOM      3  C   UNL     1      48.549   9.129  12.144  0.00  0.00    +0.000 C 
ENDROOT
BRANCH   1   8
ATOM      4  C   UNL     1      44.687   5.265  10.951  0.00  0.00    +0.000 A 
ATOM      5  C   UNL     1      45.983   5.675  10.639  0.00  0.00    +0.000 A 
ATOM      6  C   UNL     1      46.592   6.659  11.420  0.00  0.00    +0.000 A 
ATOM      7  C   UNL     1      45.919   7.178  12.519  0.00  0.00    +0.000 A 
ATOM      8  N   UNL     1      46.430   8.175  13.341  0.00  0.00    +0.000 N 
ATOM      9  N   UNL     1      44.666   6.775  12.830  0.00  0.00    +0.000 NA
ATOM     10  C   UNL     1      44.066   5.857  12.030  0.00  0.00    +0.000 A 
ATOM     11  H   UNL     1      45.849   8.233  14.173  0.00  0.00    +0.000 HD
BRANCH   4  13
ATOM     12  N   UNL     1      44.069   4.391   8.775  0.00  0.00    +0.000 N 
ATOM     13  C   UNL     1      43.952   4.270  10.137  0.00  0.00    +0.000 C 
ATOM     14  O   UNL     1      43.297   3.376  10.649  0.00  0.00    +0.000 OA
ATOM     15  H   UNL     1      43.621   3.677   8.212  0.00  0.00    +0.000 HD
ATOM     16  H   UNL     1      44.785   4.950   8.340  0.00  0.00    +0.000 HD
ENDBRANCH   4  13
ENDBRANCH   1   8
BRANCH   1  17
ATOM     17  C   UNL     1      48.590   8.188  14.580  0.00  0.00    +0.000 A 
ATOM     18  C   UNL     1      49.429   9.034  15.318  0.00  0.00    +0.000 A 
ATOM     19  C   UNL     1      50.035   8.603  16.493  0.00  0.00    +0.000 A 
ATOM     20  C   UNL     1      49.802   7.311  16.966  0.00  0.00    +0.000 A 
ATOM     21  C   UNL     1      48.980   6.416  16.264  0.00  0.00    +0.000 A 
ATOM     22  C   UNL     1      48.418   6.875  15.058  0.00  0.00    +0.000 A 
BRANCH  21  23
ATOM     23  C   UNL     1      48.645   5.081  16.802  0.00  0.00    +0.000 A 
ATOM     24  C   UNL     1      47.327   4.613  16.847  0.00  0.00    +0.000 A 
ATOM     25  N   UNL     1      46.940   3.387  17.283  0.00  0.00    +0.000 NA
ATOM     26  C   UNL     1      47.925   2.561  17.690  0.00  0.00    +0.000 A 
ATOM     27  C   UNL     1      49.264   2.910  17.684  0.00  0.00    +0.000 A 
ATOM     28  C   UNL     1      49.624   4.179  17.247  0.00  0.00    +0.000 A 
BRANCH  27  29
ATOM     29  O   UNL     1      50.254   2.059  18.073  0.00  0.00    +0.000 OA
ATOM     30  H   UNL     1      51.116   2.458  17.864  0.00  0.00    +0.000 HD
ENDBRANCH  27  29
ENDBRANCH  21  23
ENDBRANCH   1  17
TORSDOF 5
ENDMDL
MODEL 9
REMARK VINA RESULT:    -6.419      4.171      8.377
REMARK INTER + INTRA:          -8.867
REMARK INTER:                  -7.861
REMARK INTRA:                  -1.005
REMARK UNBOUND:                -0.759
REMARK  Name = 
REMARK  5 active torsions:
REMARK  status: ('A' for Active; 'I' for Inactive)
REMARK    1  A    between atoms: C_2  and  C_4
REMARK    2  A    between atoms: N_8  and  C_9
REMARK    3  A    between atoms: C_9  and  C_10
REMARK    4  A    between atoms: C_14  and  C_15
REMARK    5  A    between atoms: C_19  and  O_20
REMARK                            x       y       z     vdW  Elec       q    Type
REMARK                         _______ _______ _______ _____ _____    ______ ____
ROOT
ATOM      1  C   UNL     1      49.671   7.599  16.630  0.00  0.00    +0.000 C 
ATOM      2  C   UNL     1      49.488   8.962  17.286  0.00  0.00    +0.000 C 
ATOM      3  C   UNL     1      48.592   7.832  17.669  0.00  0.00    +0.000 C 
ENDROOT
BRANCH   1   8
ATOM      4  C   UNL     1      51.899   2.997  17.742  0.00  0.00    +0.000 A 
ATOM      5  C   UNL     1      50.550   3.336  17.644  0.00  0.00    +0.000 A 
ATOM      6  C   UNL     1      50.199   4.663  17.387  0.00  0.00    +0.000 A 
ATOM      7  C   UNL     1      51.195   5.611  17.185  0.00  0.00    +0.000 A 
ATOM      8  N   UNL     1      50.948   6.957  16.947  0.00  0.00    +0.000 N 
ATOM      9  N   UNL     1      52.504   5.282  17.270  0.00  0.00    +0.000 NA
ATOM     10  C   UNL     1      52.830   3.999  17.574  0.00  0.00    +0.000 A 
ATOM     11  H   UNL     1      51.812   7.392  16.637  0.00  0.00    +0.000 HD
BRANCH   4  13
ATOM     12  N   UNL     1      51.507   0.604  17.712  0.00  0.00    +0.000 N 
ATOM     13  C   UNL     1      52.350   1.625  18.070  0.00  0.00    +0.000 C 
ATOM     14  O   UNL     1      53.425   1.412  18.610  0.00  0.00    +0.000 OA
ATOM     15  H   UNL     1      51.836  -0.340  17.875  0.00  0.00    +0.000 HD
ATOM     16  H   UNL     1      50.751   0.730  17.059  0.00  0.00    +0.000 HD
ENDBRANCH   4  13
ENDBRANCH   1   8
BRANCH   1  17
ATOM     17  C   UNL     1      49.258   7.419  15.178  0.00  0.00    +0.000 A 
ATOM     18  C   UNL     1      50.107   7.782  14.123  0.00  0.00    +0.000 A 
ATOM     19  C   UNL     1      49.787   7.479  12.803  0.00  0.00    +0.000 A 
ATOM     20  C   UNL     1      48.611   6.789  12.510  0.00  0.00    +0.000 A 
ATOM     21  C   UNL     1      47.718   6.409  13.524  0.00  0.00    +0.000 A 
ATOM     22  C   UNL     1      48.054   6.769  14.842  0.00  0.00    +0.000 A 
BRANCH  21  23
ATOM     23  C   UNL     1      46.520   5.593  13.239  0.00  0.00    +0.000 A 
ATOM     24  C   UNL     1      46.559   4.194  13.255  0.00  0.00    +0.000 A 
ATOM     25  N   UNL     1      45.497   3.374  13.049  0.00  0.00    +0.000 NA
ATOM     26  C   UNL     1      44.312   3.976  12.825  0.00  0.00    +0.000 A 
ATOM     27  C   UNL     1      44.150   5.350  12.793  0.00  0.00    +0.000 A 
ATOM     28  C   UNL     1      45.260   6.161  12.992  0.00  0.00    +0.000 A 
BRANCH  27  29
ATOM     29  O   UNL     1      42.943   5.949  12.592  0.00  0.00    +0.000 OA
ATOM     30  H   UNL     1      42.314   5.289  12.253  0.00  0.00    +0.000 HD
ENDBRANCH  27  29
ENDBRANCH  21  23
ENDBRANCH   1  17
TORSDOF 5
ENDMDL
