MODEL 1
REMARK VINA RESULT:    -9.543      0.000      0.000
REMARK INTER + INTRA:         -12.508
REMARK INTER:                 -11.774
REMARK INTRA:                  -0.734
REMARK UNBOUND:                -0.734
REMARK  Name = 
REMARK  4 active torsions:
REMARK  status: ('A' for Active; 'I' for Inactive)
REMARK    1  A    between atoms: C_2  and  C_4
REMARK    2  A    between atoms: N_8  and  C_9
REMARK    3  A    between atoms: C_9  and  C_10
REMARK    4  A    between atoms: C_15  and  C_16
REMARK                            x       y       z     vdW  Elec       q    Type
REMARK                         _______ _______ _______ _____ _____    ______ ____
ROOT
ATOM      1  C   UNL     1      44.714   4.855  11.900  0.00  0.00    +0.000 A 
ATOM      2  C   UNL     1      45.216   3.994  12.879  0.00  0.00    +0.000 A 
ATOM      3  C   UNL     1      46.321   4.378  13.632  0.00  0.00    +0.000 A 
ATOM      4  C   UNL     1      46.921   5.620  13.414  0.00  0.00    +0.000 A 
ATOM      5  F   UNL     1      47.969   5.937  14.191  0.00  0.00    +0.000 F 
ATOM      6  C   UNL     1      46.455   6.519  12.440  0.00  0.00    +0.000 A 
ATOM      7  C   UNL     1      45.334   6.105  11.699  0.00  0.00    +0.000 A 
ENDROOT
BRANCH   6   8
ATOM      8  C   UNL     1      47.103   7.827  12.180  0.00  0.00    +0.000 A 
ATOM      9  C   UNL     1      46.386   9.036  12.259  0.00  0.00    +0.000 A 
ATOM     10  C   UNL     1      47.003  10.257  11.994  0.00  0.00    +0.000 A 
ATOM     11  F   UNL     1      46.284  11.385  12.069  0.00  0.00    +0.000 F 
ATOM     12  C   UNL     1      48.346  10.328  11.654  0.00  0.00    +0.000 A 
ATOM     13  C   UNL     1      49.072   9.149  11.572  0.00  0.00    +0.000 A 
ATOM     14 CL   UNL     1      50.742   9.204  11.157  0.00  0.00    +0.000 Cl
ATOM     15  C   UNL     1      48.462   7.916  11.820  0.00  0.00    +0.000 A 
ENDBRANCH   6   8
BRANCH   1  16
ATOM     16  C   UNL     1      43.501   4.485  11.076  0.00  0.00    +0.000 C 
BRANCH  16  21
ATOM     17  C   UNL     1      46.400   2.336   7.708  0.00  0.00    +0.000 A 
ATOM     18  C   UNL     1      45.577   1.865   8.703  0.00  0.00    +0.000 A 
ATOM     19  N   UNL     1      44.717   2.649   9.384  0.00  0.00    +0.000 NA
ATOM     20  C   UNL     1      44.689   3.952   9.071  0.00  0.00    +0.000 A 
ATOM     21  N   UNL     1      43.774   4.782   9.687  0.00  0.00    +0.000 N 
ATOM     22  N   UNL     1      45.472   4.512   8.139  0.00  0.00    +0.000 NA
ATOM     23  C   UNL     1      46.322   3.690   7.480  0.00  0.00    +0.000 A 
ATOM     24  H   UNL     1      44.025   5.741   9.486  0.00  0.00    +0.000 HD
BRANCH  17  26
ATOM     25  N   UNL     1      48.435   2.079   6.415  0.00  0.00    +0.000 N 
ATOM     26  C   UNL     1      47.329   1.486   6.957  0.00  0.00    +0.000 C 
ATOM     27  O   UNL     1      47.136   0.283   6.850  0.00  0.00    +0.000 OA
ATOM     28  H   UNL     1      49.111   1.457   5.986  0.00  0.00    +0.000 HD
ATOM     29  H   UNL     1      48.768   2.994   6.692  0.00  0.00    +0.000 HD
ENDBRANCH  17  26
ENDBRANCH  16  21
ENDBRANCH   1  16
TORSDOF 4
ENDMDL
MODEL 2
REMARK VINA RESULT:    -8.810      2.689      4.618
REMARK INTER + INTRA:         -11.604
REMARK INTER:                 -10.877
REMARK INTRA:                  -0.728
REMARK UNBOUND:                -0.734
REMARK  Name = 
REMARK  4 active torsions:
REMARK  status: ('A' for Active; 'I' for Inactive)
REMARK    1  A    between atoms: C_2  and  C_4
REMARK    2  A    between atoms: N_8  and  C_9
REMARK    3  A    between atoms: C_9  and  C_10
REMARK    4  A    between atoms: C_15  and  C_16
REMARK                            x       y       z     vdW  Elec       q    Type
REMARK                         _______ _______ _______ _____ _____    ______ ____
ROOT
ATOM      1  C   UNL     1      45.226   5.221  12.008  0.00  0.00    +0.000 A 
ATOM      2  C   UNL     1      45.864   6.350  11.490  0.00  0.00    +0.000 A 
ATOM      3  C   UNL     1      46.965   6.883  12.153  0.00  0.00    +0.000 A 
ATOM      4  C   UNL     1      47.432   6.289  13.328  0.00  0.00    +0.000 A 
ATOM      5  F   UNL     1      48.511   6.841  13.904  0.00  0.00    +0.000 F 
ATOM      6  C   UNL     1      46.822   5.155  13.890  0.00  0.00    +0.000 A 
ATOM      7  C   UNL     1      45.715   4.636  13.194  0.00  0.00    +0.000 A 
ENDROOT
BRANCH   6   8
ATOM      8  C   UNL     1      47.291   4.535  15.152  0.00  0.00    +0.000 A 
ATOM      9  C   UNL     1      47.859   3.247  15.177  0.00  0.00    +0.000 A 
ATOM     10  C   UNL     1      48.277   2.669  16.374  0.00  0.00    +0.000 A 
ATOM     11  F   UNL     1      48.803   1.437  16.358  0.00  0.00    +0.000 F 
ATOM     12  C   UNL     1      48.162   3.343  17.581  0.00  0.00    +0.000 A 
ATOM     13  C   UNL     1      47.607   4.615  17.579  0.00  0.00    +0.000 A 
ATOM     14 CL   UNL     1      47.454   5.479  19.060  0.00  0.00    +0.000 Cl
ATOM     15  C   UNL     1      47.168   5.201  16.388  0.00  0.00    +0.000 A 
ENDBRANCH   6   8
BRANCH   1  16
ATOM     16  C   UNL     1      44.041   4.596  11.306  0.00  0.00    +0.000 C 
BRANCH  16  21
ATOM     17  C   UNL     1      46.480   2.362   7.642  0.00  0.00    +0.000 A 
ATOM     18  C   UNL     1      45.781   1.916   8.738  0.00  0.00    +0.000 A 
ATOM     19  N   UNL     1      45.020   2.720   9.507  0.00  0.00    +0.000 NA
ATOM     20  C   UNL     1      44.967   4.019   9.178  0.00  0.00    +0.000 A 
ATOM     21  N   UNL     1      44.143   4.869   9.889  0.00  0.00    +0.000 N 
ATOM     22  N   UNL     1      45.634   4.555   8.148  0.00  0.00    +0.000 NA
ATOM     23  C   UNL     1      46.388   3.713   7.403  0.00  0.00    +0.000 A 
ATOM     24  H   UNL     1      44.377   5.822   9.642  0.00  0.00    +0.000 HD
BRANCH  17  26
ATOM     25  N   UNL     1      48.325   2.064   6.097  0.00  0.00    +0.000 N 
ATOM     26  C   UNL     1      47.300   1.489   6.796  0.00  0.00    +0.000 C 
ATOM     27  O   UNL     1      47.094   0.285   6.746  0.00  0.00    +0.000 OA
ATOM     28  H   UNL     1      48.937   1.429   5.598  0.00  0.00    +0.000 HD
ATOM     29  H   UNL     1      48.692   2.984   6.304  0.00  0.00    +0.000 HD
ENDBRANCH  17  26
ENDBRANCH  16  21
ENDBRANCH   1  16
TORSDOF 4
ENDMDL
MODEL 3
REMARK VINA RESULT:    -7.972      1.559      2.783
REMARK INTER + INTRA:         -10.570
REMARK INTER:                  -9.767
REMARK INTRA:                  -0.803
REMARK UNBOUND:                -0.734
REMARK  Name = 
REMARK  4 active torsions:
REMARK  status: ('A' for Active; 'I' for Inactive)
REMARK    1  A    between atoms: C_2  and  C_4
REMARK    2  A    between atoms: N_8  and  C_9
REMARK    3  A    between atoms: C_9  and  C_10
REMARK    4  A    between atoms: C_15  and  C_16
REMARK                            x       y       z     vdW  Elec       q    Type
REMARK                         _______ _______ _______ _____ _____    ______ ____
ROOT
ATOM      1  C   UNL     1      44.656   6.494  11.414  0.00  0.00    +0.000 A 
ATOM      2  C   UNL     1      43.943   7.688  11.282  0.00  0.00    +0.000 A 
ATOM      3  C   UNL     1      44.548   8.892  11.627  0.00  0.00    +0.000 A 
ATOM      4  C   UNL     1      45.863   8.907  12.097  0.00  0.00    +0.000 A 
ATOM      5  F   UNL     1      46.393  10.105  12.391  0.00  0.00    +0.000 F 
ATOM      6  C   UNL     1      46.620   7.733  12.250  0.00  0.00    +0.000 A 
ATOM      7  C   UNL     1      45.983   6.532  11.889  0.00  0.00    +0.000 A 
ENDROOT
BRANCH   6   8
ATOM      8  C   UNL     1      48.006   7.734  12.777  0.00  0.00    +0.000 A 
ATOM      9  C   UNL     1      48.292   7.371  14.106  0.00  0.00    +0.000 A 
ATOM     10  C   UNL     1      49.598   7.396  14.593  0.00  0.00    +0.000 A 
ATOM     11  F   UNL     1      49.829   7.053  15.867  0.00  0.00    +0.000 F 
ATOM     12  C   UNL     1      50.663   7.767  13.786  0.00  0.00    +0.000 A 
ATOM     13  C   UNL     1      50.403   8.127  12.471  0.00  0.00    +0.000 A 
ATOM     14 CL   UNL     1      51.704   8.589  11.442  0.00  0.00    +0.000 Cl
ATOM     15  C   UNL     1      49.097   8.122  11.974  0.00  0.00    +0.000 A 
ENDBRANCH   6   8
BRANCH   1  16
ATOM     16  C   UNL     1      44.043   5.166  11.028  0.00  0.00    +0.000 C 
BRANCH  16  21
ATOM     17  C   UNL     1      46.265   2.052   7.909  0.00  0.00    +0.000 A 
ATOM     18  C   UNL     1      45.655   1.908   9.131  0.00  0.00    +0.000 A 
ATOM     19  N   UNL     1      44.933   2.885   9.717  0.00  0.00    +0.000 NA
ATOM     20  C   UNL     1      44.829   4.052   9.064  0.00  0.00    +0.000 A 
ATOM     21  N   UNL     1      44.040   5.057   9.585  0.00  0.00    +0.000 N 
ATOM     22  N   UNL     1      45.411   4.300   7.883  0.00  0.00    +0.000 NA
ATOM     23  C   UNL     1      46.128   3.293   7.331  0.00  0.00    +0.000 A 
ATOM     24  H   UNL     1      44.236   5.912   9.081  0.00  0.00    +0.000 HD
BRANCH  17  26
ATOM     25  N   UNL     1      46.772  -0.302   7.621  0.00  0.00    +0.000 N 
ATOM     26  C   UNL     1      47.042   0.989   7.263  0.00  0.00    +0.000 C 
ATOM     27  O   UNL     1      47.877   1.251   6.408  0.00  0.00    +0.000 OA
ATOM     28  H   UNL     1      47.251  -1.022   7.092  0.00  0.00    +0.000 HD
ATOM     29  H   UNL     1      45.933  -0.579   8.113  0.00  0.00    +0.000 HD
ENDBRANCH  17  26
ENDBRANCH  16  21
ENDBRANCH   1  16
TORSDOF 4
ENDMDL
MODEL 4
REMARK VINA RESULT:    -7.871      4.718      7.268
REMARK INTER + INTRA:         -10.445
REMARK INTER:                  -9.946
REMARK INTRA:                  -0.500
REMARK UNBOUND:                -0.734
REMARK  Name = 
REMARK  4 active torsions:
REMARK  status: ('A' for Active; 'I' for Inactive)
REMARK    1  A    between atoms: C_2  and  C_4
REMARK    2  A    between atoms: N_8  and  C_9
REMARK    3  A    between atoms: C_9  and  C_10
REMARK    4  A    between atoms: C_15  and  C_16
REMARK                            x       y       z     vdW  Elec       q    Type
REMARK                         _______ _______ _______ _____ _____    ______ ____
ROOT
ATOM      1  C   UNL     1      44.453   5.768  11.406  0.00  0.00    +0.000 A 
ATOM      2  C   UNL     1      43.533   5.040  12.163  0.00  0.00    +0.000 A 
ATOM      3  C   UNL     1      43.267   3.715  11.834  0.00  0.00    +0.000 A 
ATOM      4  C   UNL     1      43.921   3.114  10.755  0.00  0.00    +0.000 A 
ATOM      5  F   UNL     1      43.635   1.827  10.506  0.00  0.00    +0.000 F 
ATOM      6  C   UNL     1      44.852   3.807   9.962  0.00  0.00    +0.000 A 
ATOM      7  C   UNL     1      45.103   5.142  10.322  0.00  0.00    +0.000 A 
ENDROOT
BRANCH   6   8
ATOM      8  C   UNL     1      45.530   3.189   8.797  0.00  0.00    +0.000 A 
ATOM      9  C   UNL     1      45.929   3.952   7.683  0.00  0.00    +0.000 A 
ATOM     10  C   UNL     1      46.547   3.354   6.587  0.00  0.00    +0.000 A 
ATOM     11  F   UNL     1      46.902   4.113   5.541  0.00  0.00    +0.000 F 
ATOM     12  C   UNL     1      46.803   1.992   6.556  0.00  0.00    +0.000 A 
ATOM     13  C   UNL     1      46.420   1.221   7.644  0.00  0.00    +0.000 A 
ATOM     14 CL   UNL     1      46.727  -0.473   7.638  0.00  0.00    +0.000 Cl
ATOM     15  C   UNL     1      45.785   1.804   8.744  0.00  0.00    +0.000 A 
ENDBRANCH   6   8
BRANCH   1  16
ATOM     16  C   UNL     1      44.788   7.204  11.745  0.00  0.00    +0.000 C 
BRANCH  16  21
ATOM     17  C   UNL     1      49.534   7.957  12.868  0.00  0.00    +0.000 A 
ATOM     18  C   UNL     1      48.666   8.515  11.962  0.00  0.00    +0.000 A 
ATOM     19  N   UNL     1      47.338   8.280  11.969  0.00  0.00    +0.000 NA
ATOM     20  C   UNL     1      46.864   7.445  12.905  0.00  0.00    +0.000 A 
ATOM     21  N   UNL     1      45.504   7.230  13.001  0.00  0.00    +0.000 N 
ATOM     22  N   UNL     1      47.633   6.829  13.813  0.00  0.00    +0.000 NA
ATOM     23  C   UNL     1      48.960   7.092  13.770  0.00  0.00    +0.000 A 
ATOM     24  H   UNL     1      45.347   6.439  13.611  0.00  0.00    +0.000 HD
BRANCH  17  26
ATOM     25  N   UNL     1      51.676   7.909  14.006  0.00  0.00    +0.000 N 
ATOM     26  C   UNL     1      50.978   8.218  12.872  0.00  0.00    +0.000 C 
ATOM     27  O   UNL     1      51.539   8.665  11.882  0.00  0.00    +0.000 OA
ATOM     28  H   UNL     1      52.683   8.006  13.951  0.00  0.00    +0.000 HD
ATOM     29  H   UNL     1      51.314   7.309  14.736  0.00  0.00    +0.000 HD
ENDBRANCH  17  26
ENDBRANCH  16  21
ENDBRANCH   1  16
TORSDOF 4
ENDMDL
MODEL 5
REMARK VINA RESULT:    -7.839      2.790      3.905
REMARK INTER + INTRA:         -10.406
REMARK INTER:                 -10.058
REMARK INTRA:                  -0.348
REMARK UNBOUND:                -0.734
REMARK  Name = 
REMARK  4 active torsions:
REMARK  status: ('A' for Active; 'I' for Inactive)
REMARK    1  A    between atoms: C_2  and  C_4
REMARK    2  A    between atoms: N_8  and  C_9
REMARK    3  A    between atoms: C_9  and  C_10
REMARK    4  A    between atoms: C_15  and  C_16
REMARK                            x       y       z     vdW  Elec       q    Type
REMARK                         _______ _______ _______ _____ _____    ______ ____
ROOT
ATOM      1  C   UNL     1      44.285   4.916  11.488  0.00  0.00    +0.000 A 
ATOM      2  C   UNL     1      43.957   6.212  11.085  0.00  0.00    +0.000 A 
ATOM      3  C   UNL     1      44.570   7.299  11.700  0.00  0.00    +0.000 A 
ATOM      4  C   UNL     1      45.512   7.095  12.711  0.00  0.00    +0.000 A 
ATOM      5  F   UNL     1      46.081   8.186  13.246  0.00  0.00    +0.000 F 
ATOM      6  C   UNL     1      45.873   5.810  13.152  0.00  0.00    +0.000 A 
ATOM      7  C   UNL     1      45.241   4.732  12.508  0.00  0.00    +0.000 A 
ENDROOT
BRANCH   6   8
ATOM      8  C   UNL     1      46.850   5.582  14.244  0.00  0.00    +0.000 A 
ATOM      9  C   UNL     1      47.969   6.416  14.421  0.00  0.00    +0.000 A 
ATOM     10  C   UNL     1      48.889   6.179  15.440  0.00  0.00    +0.000 A 
ATOM     11  F   UNL     1      49.949   6.989  15.569  0.00  0.00    +0.000 F 
ATOM     12  C   UNL     1      48.731   5.122  16.324  0.00  0.00    +0.000 A 
ATOM     13  C   UNL     1      47.632   4.289  16.170  0.00  0.00    +0.000 A 
ATOM     14 CL   UNL     1      47.404   2.971  17.254  0.00  0.00    +0.000 Cl
ATOM     15  C   UNL     1      46.710   4.506  15.143  0.00  0.00    +0.000 A 
ENDBRANCH   6   8
BRANCH   1  16
ATOM     16  C   UNL     1      43.660   3.707  10.829  0.00  0.00    +0.000 C 
BRANCH  16  21
ATOM     17  C   UNL     1      46.749   2.496   7.174  0.00  0.00    +0.000 A 
ATOM     18  C   UNL     1      46.301   3.687   7.694  0.00  0.00    +0.000 A 
ATOM     19  N   UNL     1      45.598   3.775   8.841  0.00  0.00    +0.000 NA
ATOM     20  C   UNL     1      45.318   2.632   9.483  0.00  0.00    +0.000 A 
ATOM     21  N   UNL     1      44.665   2.675  10.699  0.00  0.00    +0.000 N 
ATOM     22  N   UNL     1      45.683   1.421   9.043  0.00  0.00    +0.000 NA
ATOM     23  C   UNL     1      46.387   1.377   7.886  0.00  0.00    +0.000 A 
ATOM     24  H   UNL     1      44.364   1.738  10.934  0.00  0.00    +0.000 HD
BRANCH  17  26
ATOM     25  N   UNL     1      47.330   3.359   4.983  0.00  0.00    +0.000 N 
ATOM     26  C   UNL     1      47.524   2.395   5.933  0.00  0.00    +0.000 C 
ATOM     27  O   UNL     1      48.339   1.498   5.771  0.00  0.00    +0.000 OA
ATOM     28  H   UNL     1      47.945   3.324   4.179  0.00  0.00    +0.000 HD
ATOM     29  H   UNL     1      46.876   4.243   5.173  0.00  0.00    +0.000 HD
ENDBRANCH  17  26
ENDBRANCH  16  21
ENDBRANCH   1  16
TORSDOF 4
ENDMDL
MODEL 6
REMARK VINA RESULT:    -7.601      5.764      8.143
REMARK INTER + INTRA:         -10.112
REMARK INTER:                  -9.409
REMARK INTRA:                  -0.703
REMARK UNBOUND:                -0.734
REMARK  Name = 
REMARK  4 active torsions:
REMARK  status: ('A' for Active; 'I' for Inactive)
REMARK    1  A    between atoms: C_2  and  C_4
REMARK    2  A    between atoms: N_8  and  C_9
REMARK    3  A    between atoms: C_9  and  C_10
REMARK    4  A    between atoms: C_15  and  C_16
REMARK                            x       y       z     vdW  Elec       q    Type
REMARK                         _______ _______ _______ _____ _____    ______ ____
ROOT
ATOM      1  C   UNL     1      47.286   7.345  13.506  0.00  0.00    +0.000 A 
ATOM      2  C   UNL     1      46.686   8.598  13.357  0.00  0.00    +0.000 A 
ATOM      3  C   UNL     1      45.583   8.737  12.520  0.00  0.00    +0.000 A 
ATOM      4  C   UNL     1      45.076   7.630  11.837  0.00  0.00    +0.000 A 
ATOM      5  F   UNL     1      43.997   7.830  11.064  0.00  0.00    +0.000 F 
ATOM      6  C   UNL     1      45.647   6.350  11.952  0.00  0.00    +0.000 A 
ATOM      7  C   UNL     1      46.756   6.240  12.808  0.00  0.00    +0.000 A 
ENDROOT
BRANCH   6   8
ATOM      8  C   UNL     1      45.135   5.174  11.208  0.00  0.00    +0.000 A 
ATOM      9  C   UNL     1      44.289   4.227  11.814  0.00  0.00    +0.000 A 
ATOM     10  C   UNL     1      43.831   3.116  11.108  0.00  0.00    +0.000 A 
ATOM     11  F   UNL     1      43.036   2.231  11.723  0.00  0.00    +0.000 F 
ATOM     12  C   UNL     1      44.181   2.908   9.782  0.00  0.00    +0.000 A 
ATOM     13  C   UNL     1      45.012   3.831   9.164  0.00  0.00    +0.000 A 
ATOM     14 CL   UNL     1      45.462   3.604   7.518  0.00  0.00    +0.000 Cl
ATOM     15  C   UNL     1      45.492   4.942   9.865  0.00  0.00    +0.000 A 
ENDBRANCH   6   8
BRANCH   1  16
ATOM     16  C   UNL     1      48.471   7.146  14.424  0.00  0.00    +0.000 C 
BRANCH  16  21
ATOM     17  C   UNL     1      50.943   4.340  17.646  0.00  0.00    +0.000 A 
ATOM     18  C   UNL     1      51.196   5.544  17.035  0.00  0.00    +0.000 A 
ATOM     19  N   UNL     1      50.270   6.224  16.328  0.00  0.00    +0.000 NA
ATOM     20  C   UNL     1      49.053   5.673  16.215  0.00  0.00    +0.000 A 
ATOM     21  N   UNL     1      48.050   6.364  15.566  0.00  0.00    +0.000 N 
ATOM     22  N   UNL     1      48.717   4.492  16.748  0.00  0.00    +0.000 NA
ATOM     23  C   UNL     1      49.677   3.841  17.448  0.00  0.00    +0.000 A 
ATOM     24  H   UNL     1      47.279   5.730  15.401  0.00  0.00    +0.000 HD
BRANCH  17  26
ATOM     25  N   UNL     1      52.033   2.253  18.225  0.00  0.00    +0.000 N 
ATOM     26  C   UNL     1      51.942   3.602  18.424  0.00  0.00    +0.000 C 
ATOM     27  O   UNL     1      52.691   4.182  19.199  0.00  0.00    +0.000 OA
ATOM     28  H   UNL     1      52.794   1.781  18.700  0.00  0.00    +0.000 HD
ATOM     29  H   UNL     1      51.630   1.781  17.426  0.00  0.00    +0.000 HD
ENDBRANCH  17  26
ENDBRANCH  16  21
ENDBRANCH   1  16
TORSDOF 4
ENDMDL
MODEL 7
REMARK VINA RESULT:    -7.476      5.780      8.380
REMARK INTER + INTRA:          -9.958
REMARK INTER:                  -9.161
REMARK INTRA:                  -0.797
REMARK UNBOUND:                -0.734
REMARK  Name = 
REMARK  4 active torsions:
REMARK  status: ('A' for Active; 'I' for Inactive)
REMARK    1  A    between atoms: C_2  and  C_4
REMARK    2  A    between atoms: N_8  and  C_9
REMARK    3  A    between atoms: C_9  and  C_10
REMARK    4  A    between atoms: C_15  and  C_16
REMARK                            x       y       z     vdW  Elec       q    Type
REMARK                         _______ _______ _______ _____ _____    ______ ____
ROOT
ATOM      1  C   UNL     1      47.746   7.301  13.249  0.00  0.00    +0.000 A 
ATOM      2  C   UNL     1      47.079   8.527  13.308  0.00  0.00    +0.000 A 
ATOM      3  C   UNL     1      45.838   8.665  12.695  0.00  0.00    +0.000 A 
ATOM      4  C   UNL     1      45.260   7.582  12.029  0.00  0.00    +0.000 A 
ATOM      5  F   UNL     1      44.052   7.777  11.479  0.00  0.00    +0.000 F 
ATOM      6  C   UNL     1      45.893   6.330  11.940  0.00  0.00    +0.000 A 
ATOM      7  C   UNL     1      47.143   6.220  12.574  0.00  0.00    +0.000 A 
ENDROOT
BRANCH   6   8
ATOM      8  C   UNL     1      45.302   5.183  11.210  0.00  0.00    +0.000 A 
ATOM      9  C   UNL     1      44.448   4.262  11.846  0.00  0.00    +0.000 A 
ATOM     10  C   UNL     1      43.916   3.178  11.152  0.00  0.00    +0.000 A 
ATOM     11  F   UNL     1      43.116   2.317  11.796  0.00  0.00    +0.000 F 
ATOM     12  C   UNL     1      44.196   2.971   9.810  0.00  0.00    +0.000 A 
ATOM     13  C   UNL     1      45.033   3.868   9.163  0.00  0.00    +0.000 A 
ATOM     14 CL   UNL     1      45.397   3.641   7.495  0.00  0.00    +0.000 Cl
ATOM     15  C   UNL     1      45.588   4.951   9.850  0.00  0.00    +0.000 A 
ENDBRANCH   6   8
BRANCH   1  16
ATOM     16  C   UNL     1      49.086   7.102  13.923  0.00  0.00    +0.000 C 
BRANCH  16  21
ATOM     17  C   UNL     1      49.028   5.327  18.527  0.00  0.00    +0.000 A 
ATOM     18  C   UNL     1      49.681   4.970  17.373  0.00  0.00    +0.000 A 
ATOM     19  N   UNL     1      49.692   5.735  16.263  0.00  0.00    +0.000 NA
ATOM     20  C   UNL     1      49.013   6.891  16.303  0.00  0.00    +0.000 A 
ATOM     21  N   UNL     1      49.055   7.744  15.219  0.00  0.00    +0.000 N 
ATOM     22  N   UNL     1      48.321   7.312  17.370  0.00  0.00    +0.000 NA
ATOM     23  C   UNL     1      48.335   6.513  18.463  0.00  0.00    +0.000 A 
ATOM     24  H   UNL     1      48.342   8.451  15.340  0.00  0.00    +0.000 HD
BRANCH  17  26
ATOM     25  N   UNL     1      48.376   3.300  19.689  0.00  0.00    +0.000 N 
ATOM     26  C   UNL     1      49.022   4.503  19.741  0.00  0.00    +0.000 C 
ATOM     27  O   UNL     1      49.605   4.868  20.753  0.00  0.00    +0.000 OA
ATOM     28  H   UNL     1      48.468   2.707  20.506  0.00  0.00    +0.000 HD
ATOM     29  H   UNL     1      48.113   2.847  18.824  0.00  0.00    +0.000 HD
ENDBRANCH  17  26
ENDBRANCH  16  21
ENDBRANCH   1  16
TORSDOF 4
ENDMDL
MODEL 8
REMARK VINA RESULT:    -7.333      5.873      8.344
REMARK INTER + INTRA:          -9.782
REMARK INTER:                  -8.943
REMARK INTRA:                  -0.838
REMARK UNBOUND:                -0.734
REMARK  Name = 
REMARK  4 active torsions:
REMARK  status: ('A' for Active; 'I' for Inactive)
REMARK    1  A    between atoms: C_2  and  C_4
REMARK    2  A    between atoms: N_8  and  C_9
REMARK    3  A    between atoms: C_9  and  C_10
REMARK    4  A    between atoms: C_15  and  C_16
REMARK                            x       y       z     vdW  Elec       q    Type
REMARK                         _______ _______ _______ _____ _____    ______ ____
ROOT
ATOM      1  C   UNL     1      47.952   7.537  13.311  0.00  0.00    +0.000 A 
ATOM      2  C   UNL     1      47.257   8.740  13.455  0.00  0.00    +0.000 A 
ATOM      3  C   UNL     1      46.005   8.886  12.868  0.00  0.00    +0.000 A 
ATOM      4  C   UNL     1      45.442   7.833  12.143  0.00  0.00    +0.000 A 
ATOM      5  F   UNL     1      44.222   8.033  11.623  0.00  0.00    +0.000 F 
ATOM      6  C   UNL     1      46.103   6.605  11.968  0.00  0.00    +0.000 A 
ATOM      7  C   UNL     1      47.365   6.486  12.577  0.00  0.00    +0.000 A 
ENDROOT
BRANCH   6   8
ATOM      8  C   UNL     1      45.528   5.492  11.175  0.00  0.00    +0.000 A 
ATOM      9  C   UNL     1      45.726   5.395   9.785  0.00  0.00    +0.000 A 
ATOM     10  C   UNL     1      45.164   4.353   9.050  0.00  0.00    +0.000 A 
ATOM     11  F   UNL     1      45.365   4.302   7.726  0.00  0.00    +0.000 F 
ATOM     12  C   UNL     1      44.401   3.368   9.659  0.00  0.00    +0.000 A 
ATOM     13  C   UNL     1      44.196   3.443  11.029  0.00  0.00    +0.000 A 
ATOM     14 CL   UNL     1      43.256   2.234  11.817  0.00  0.00    +0.000 Cl
ATOM     15  C   UNL     1      44.740   4.491  11.777  0.00  0.00    +0.000 A 
ENDBRANCH   6   8
BRANCH   1  16
ATOM     16  C   UNL     1      49.305   7.330  13.953  0.00  0.00    +0.000 C 
BRANCH  16  21
ATOM     17  C   UNL     1      48.870   5.311  18.435  0.00  0.00    +0.000 A 
ATOM     18  C   UNL     1      49.535   4.955  17.287  0.00  0.00    +0.000 A 
ATOM     19  N   UNL     1      49.670   5.777  16.226  0.00  0.00    +0.000 NA
ATOM     20  C   UNL     1      49.108   6.992  16.311  0.00  0.00    +0.000 A 
ATOM     21  N   UNL     1      49.282   7.897  15.283  0.00  0.00    +0.000 N 
ATOM     22  N   UNL     1      48.415   7.420  17.374  0.00  0.00    +0.000 NA
ATOM     23  C   UNL     1      48.302   6.563  18.417  0.00  0.00    +0.000 A 
ATOM     24  H   UNL     1      48.637   8.664  15.420  0.00  0.00    +0.000 HD
BRANCH  17  26
ATOM     25  N   UNL     1      48.465   3.105  19.359  0.00  0.00    +0.000 N 
ATOM     26  C   UNL     1      48.730   4.425  19.596  0.00  0.00    +0.000 C 
ATOM     27  O   UNL     1      48.879   4.849  20.733  0.00  0.00    +0.000 OA
ATOM     28  H   UNL     1      48.469   2.495  20.168  0.00  0.00    +0.000 HD
ATOM     29  H   UNL     1      48.592   2.666  18.456  0.00  0.00    +0.000 HD
ENDBRANCH  17  26
ENDBRANCH  16  21
ENDBRANCH   1  16
TORSDOF 4
ENDMDL
MODEL 9
REMARK VINA RESULT:    -7.249      5.778      7.842
REMARK INTER + INTRA:          -9.678
REMARK INTER:                  -9.203
REMARK INTRA:                  -0.475
REMARK UNBOUND:                -0.734
REMARK  Name = 
REMARK  4 active torsions:
REMARK  status: ('A' for Active; 'I' for Inactive)
REMARK    1  A    between atoms: C_2  and  C_4
REMARK    2  A    between atoms: N_8  and  C_9
REMARK    3  A    between atoms: C_9  and  C_10
REMARK    4  A    between atoms: C_15  and  C_16
REMARK                            x       y       z     vdW  Elec       q    Type
REMARK                         _______ _______ _______ _____ _____    ______ ____
ROOT
ATOM      1  C   UNL     1      48.664   6.793  14.794  0.00  0.00    +0.000 A 
ATOM      2  C   UNL     1      49.578   7.409  13.935  0.00  0.00    +0.000 A 
ATOM      3  C   UNL     1      49.304   7.476  12.573  0.00  0.00    +0.000 A 
ATOM      4  C   UNL     1      48.120   6.934  12.067  0.00  0.00    +0.000 A 
ATOM      5  F   UNL     1      47.909   7.052  10.747  0.00  0.00    +0.000 F 
ATOM      6  C   UNL     1      47.172   6.302  12.890  0.00  0.00    +0.000 A 
ATOM      7  C   UNL     1      47.474   6.255  14.263  0.00  0.00    +0.000 A 
ENDROOT
BRANCH   6   8
ATOM      8  C   UNL     1      45.927   5.697  12.360  0.00  0.00    +0.000 A 
ATOM      9  C   UNL     1      44.806   5.473  13.182  0.00  0.00    +0.000 A 
ATOM     10  C   UNL     1      43.649   4.885  12.674  0.00  0.00    +0.000 A 
ATOM     11  F   UNL     1      42.607   4.678  13.491  0.00  0.00    +0.000 F 
ATOM     12  C   UNL     1      43.553   4.512  11.342  0.00  0.00    +0.000 A 
ATOM     13  C   UNL     1      44.645   4.726  10.514  0.00  0.00    +0.000 A 
ATOM     14 CL   UNL     1      44.556   4.278   8.854  0.00  0.00    +0.000 Cl
ATOM     15  C   UNL     1      45.818   5.300  11.013  0.00  0.00    +0.000 A 
ENDBRANCH   6   8
BRANCH   1  16
ATOM     16  C   UNL     1      48.913   6.721  16.284  0.00  0.00    +0.000 C 
BRANCH  16  21
ATOM     17  C   UNL     1      51.133   2.465  17.430  0.00  0.00    +0.000 A 
ATOM     18  C   UNL     1      51.454   3.789  17.608  0.00  0.00    +0.000 A 
ATOM     19  N   UNL     1      50.586   4.796  17.383  0.00  0.00    +0.000 NA
ATOM     20  C   UNL     1      49.359   4.469  16.951  0.00  0.00    +0.000 A 
ATOM     21  N   UNL     1      48.411   5.458  16.779  0.00  0.00    +0.000 N 
ATOM     22  N   UNL     1      48.961   3.211  16.720  0.00  0.00    +0.000 NA
ATOM     23  C   UNL     1      49.864   2.230  16.956  0.00  0.00    +0.000 A 
ATOM     24  H   UNL     1      47.630   5.066  16.268  0.00  0.00    +0.000 HD
BRANCH  17  26
ATOM     25  N   UNL     1      51.549   0.170  18.097  0.00  0.00    +0.000 N 
ATOM     26  C   UNL     1      52.070   1.365  17.683  0.00  0.00    +0.000 C 
ATOM     27  O   UNL     1      53.270   1.504  17.497  0.00  0.00    +0.000 OA
ATOM     28  H   UNL     1      52.203  -0.601  18.171  0.00  0.00    +0.000 HD
ATOM     29  H   UNL     1      50.570  -0.068  18.013  0.00  0.00    +0.000 HD
ENDBRANCH  17  26
ENDBRANCH  16  21
ENDBRANCH   1  16
TORSDOF 4
ENDMDL
