MODEL 1
REMARK VINA RESULT:    -9.286      0.000      0.000
REMARK INTER + INTRA:         -12.697
REMARK INTER:                 -12.000
REMARK INTRA:                  -0.698
REMARK UNBOUND:                -0.698
REMARK  Name = 
REMARK  5 active torsions:
REMARK  status: ('A' for Active; 'I' for Inactive)
REMARK    1  A    between atoms: C_2  and  C_4
REMARK    2  A    between atoms: N_8  and  C_9
REMARK    3  A    between atoms: C_9  and  C_10
REMARK    4  A    between atoms: C_10  and  C_11
REMARK    5  A    between atoms: C_15  and  C_16
REMARK                            x       y       z     vdW  Elec       q    Type
REMARK                         _______ _______ _______ _____ _____    ______ ____
ROOT
ATOM      1  C   UNL     1      43.354   4.437  11.214  0.00  0.00    +0.000 C 
ENDROOT
BRANCH   1   6
ATOM      2  C   UNL     1      46.477   2.551   7.689  0.00  0.00    +0.000 A 
ATOM      3  C   UNL     1      45.669   1.887   8.605  0.00  0.00    +0.000 A 
ATOM      4  C   UNL     1      44.749   2.619   9.353  0.00  0.00    +0.000 A 
ATOM      5  C   UNL     1      44.663   3.999   9.194  0.00  0.00    +0.000 A 
ATOM      6  N   UNL     1      43.716   4.778   9.845  0.00  0.00    +0.000 N 
ATOM      7  N   UNL     1      45.466   4.659   8.335  0.00  0.00    +0.000 NA
ATOM      8  C   UNL     1      46.356   3.929   7.606  0.00  0.00    +0.000 A 
ATOM      9  H   UNL     1      43.970   5.748   9.672  0.00  0.00    +0.000 HD
BRANCH   2  11
ATOM     10  N   UNL     1      48.511   2.570   6.361  0.00  0.00    +0.000 N 
ATOM     11  C   UNL     1      47.441   1.847   6.818  0.00  0.00    +0.000 C 
ATOM     12  O   UNL     1      47.310   0.663   6.543  0.00  0.00    +0.000 OA
ATOM     13  H   UNL     1      49.220   2.056   5.855  0.00  0.00    +0.000 HD
ATOM     14  H   UNL     1      48.778   3.458   6.762  0.00  0.00    +0.000 HD
ENDBRANCH   2  11
ENDBRANCH   1   6
BRANCH   1  15
ATOM     15  C   UNL     1      43.632   5.613  12.157  0.00  0.00    +0.000 C 
BRANCH  15  16
ATOM     16  C   UNL     1      45.091   5.686  12.522  0.00  0.00    +0.000 A 
ATOM     17  C   UNL     1      45.983   6.448  11.776  0.00  0.00    +0.000 A 
ATOM     18  N   UNL     1      47.286   6.596  12.083  0.00  0.00    +0.000 NA
ATOM     19  C   UNL     1      47.728   5.953  13.193  0.00  0.00    +0.000 A 
ATOM     20  C   UNL     1      46.944   5.148  14.022  0.00  0.00    +0.000 A 
ATOM     21  C   UNL     1      45.592   5.036  13.659  0.00  0.00    +0.000 A 
BRANCH  20  22
ATOM     22  C   UNL     1      47.517   4.483  15.204  0.00  0.00    +0.000 A 
ATOM     23  C   UNL     1      47.892   5.173  16.358  0.00  0.00    +0.000 A 
ATOM     24  C   UNL     1      48.434   4.469  17.432  0.00  0.00    +0.000 A 
ATOM     25  C   UNL     1      48.589   3.094  17.336  0.00  0.00    +0.000 A 
ATOM     26  C   UNL     1      48.187   2.477  16.166  0.00  0.00    +0.000 A 
ATOM     27  N   UNL     1      47.658   3.136  15.111  0.00  0.00    +0.000 NA
ENDBRANCH  20  22
ENDBRANCH  15  16
ENDBRANCH   1  15
TORSDOF 5
ENDMDL
MODEL 2
REMARK VINA RESULT:    -9.108      1.677      3.046
REMARK INTER + INTRA:         -12.468
REMARK INTER:                 -11.633
REMARK INTRA:                  -0.835
REMARK UNBOUND:                -0.698
REMARK  Name = 
REMARK  5 active torsions:
REMARK  status: ('A' for Active; 'I' for Inactive)
REMARK    1  A    between atoms: C_2  and  C_4
REMARK    2  A    between atoms: N_8  and  C_9
REMARK    3  A    between atoms: C_9  and  C_10
REMARK    4  A    between atoms: C_10  and  C_11
REMARK    5  A    between atoms: C_15  and  C_16
REMARK                            x       y       z     vdW  Elec       q    Type
REMARK                         _______ _______ _______ _____ _____    ______ ____
ROOT
ATOM      1  C   UNL     1      43.262   4.704  10.982  0.00  0.00    +0.000 C 
ENDROOT
BRANCH   1   6
ATOM      2  C   UNL     1      46.463   2.443   7.761  0.00  0.00    +0.000 A 
ATOM      3  C   UNL     1      45.565   1.880   8.660  0.00  0.00    +0.000 A 
ATOM      4  C   UNL     1      44.648   2.705   9.310  0.00  0.00    +0.000 A 
ATOM      5  C   UNL     1      44.657   4.077   9.072  0.00  0.00    +0.000 A 
ATOM      6  N   UNL     1      43.723   4.945   9.621  0.00  0.00    +0.000 N 
ATOM      7  N   UNL     1      45.547   4.639   8.231  0.00  0.00    +0.000 NA
ATOM      8  C   UNL     1      46.432   3.819   7.598  0.00  0.00    +0.000 A 
ATOM      9  H   UNL     1      44.046   5.887   9.413  0.00  0.00    +0.000 HD
BRANCH   2  11
ATOM     10  N   UNL     1      48.509   2.295   6.461  0.00  0.00    +0.000 N 
ATOM     11  C   UNL     1      47.431   1.636   6.990  0.00  0.00    +0.000 C 
ATOM     12  O   UNL     1      47.296   0.428   6.856  0.00  0.00    +0.000 OA
ATOM     13  H   UNL     1      49.220   1.721   6.026  0.00  0.00    +0.000 HD
ATOM     14  H   UNL     1      48.778   3.223   6.756  0.00  0.00    +0.000 HD
ENDBRANCH   2  11
ENDBRANCH   1   6
BRANCH   1  15
ATOM     15  C   UNL     1      43.688   5.848  11.909  0.00  0.00    +0.000 C 
BRANCH  15  16
ATOM     16  C   UNL     1      44.987   5.531  12.603  0.00  0.00    +0.000 A 
ATOM     17  C   UNL     1      45.141   4.364  13.345  0.00  0.00    +0.000 A 
ATOM     18  N   UNL     1      46.291   3.999  13.941  0.00  0.00    +0.000 NA
ATOM     19  C   UNL     1      47.349   4.837  13.794  0.00  0.00    +0.000 A 
ATOM     20  C   UNL     1      47.327   6.042  13.088  0.00  0.00    +0.000 A 
ATOM     21  C   UNL     1      46.104   6.368  12.479  0.00  0.00    +0.000 A 
BRANCH  20  22
ATOM     22  C   UNL     1      48.527   6.890  12.989  0.00  0.00    +0.000 A 
ATOM     23  C   UNL     1      48.880   7.575  11.825  0.00  0.00    +0.000 A 
ATOM     24  C   UNL     1      50.037   8.353  11.813  0.00  0.00    +0.000 A 
ATOM     25  C   UNL     1      50.814   8.436  12.959  0.00  0.00    +0.000 A 
ATOM     26  C   UNL     1      50.397   7.738  14.076  0.00  0.00    +0.000 A 
ATOM     27  N   UNL     1      49.280   6.978  14.115  0.00  0.00    +0.000 NA
ENDBRANCH  20  22
ENDBRANCH  15  16
ENDBRANCH   1  15
TORSDOF 5
ENDMDL
MODEL 3
REMARK VINA RESULT:    -8.868      1.374      2.039
REMARK INTER + INTRA:         -12.157
REMARK INTER:                 -11.463
REMARK INTRA:                  -0.695
REMARK UNBOUND:                -0.698
REMARK  Name = 
REMARK  5 active torsions:
REMARK  status: ('A' for Active; 'I' for Inactive)
REMARK    1  A    between atoms: C_2  and  C_4
REMARK    2  A    between atoms: N_8  and  C_9
REMARK    3  A    between atoms: C_9  and  C_10
REMARK    4  A    between atoms: C_10  and  C_11
REMARK    5  A    between atoms: C_15  and  C_16
REMARK                            x       y       z     vdW  Elec       q    Type
REMARK                         _______ _______ _______ _____ _____    ______ ____
ROOT
ATOM      1  C   UNL     1      43.375   4.787  10.979  0.00  0.00    +0.000 C 
ENDROOT
BRANCH   1   6
ATOM      2  C   UNL     1      46.401   2.338   7.726  0.00  0.00    +0.000 A 
ATOM      3  C   UNL     1      45.541   1.830   8.693  0.00  0.00    +0.000 A 
ATOM      4  C   UNL     1      44.664   2.695   9.344  0.00  0.00    +0.000 A 
ATOM      5  C   UNL     1      44.673   4.053   9.039  0.00  0.00    +0.000 A 
ATOM      6  N   UNL     1      43.773   4.957   9.588  0.00  0.00    +0.000 N 
ATOM      7  N   UNL     1      45.527   4.564   8.130  0.00  0.00    +0.000 NA
ATOM      8  C   UNL     1      46.373   3.705   7.497  0.00  0.00    +0.000 A 
ATOM      9  H   UNL     1      44.093   5.885   9.319  0.00  0.00    +0.000 HD
BRANCH   2  11
ATOM     10  N   UNL     1      48.435   2.088   6.423  0.00  0.00    +0.000 N 
ATOM     11  C   UNL     1      47.324   1.485   6.951  0.00  0.00    +0.000 C 
ATOM     12  O   UNL     1      47.127   0.286   6.814  0.00  0.00    +0.000 OA
ATOM     13  H   UNL     1      49.115   1.479   5.986  0.00  0.00    +0.000 HD
ATOM     14  H   UNL     1      48.752   3.000   6.721  0.00  0.00    +0.000 HD
ENDBRANCH   2  11
ENDBRANCH   1   6
BRANCH   1  15
ATOM     15  C   UNL     1      44.154   5.747  11.886  0.00  0.00    +0.000 C 
BRANCH  15  16
ATOM     16  C   UNL     1      45.200   5.014  12.683  0.00  0.00    +0.000 A 
ATOM     17  C   UNL     1      45.308   3.628  12.628  0.00  0.00    +0.000 A 
ATOM     18  N   UNL     1      46.256   2.921  13.272  0.00  0.00    +0.000 NA
ATOM     19  C   UNL     1      47.148   3.628  14.013  0.00  0.00    +0.000 A 
ATOM     20  C   UNL     1      47.145   5.016  14.162  0.00  0.00    +0.000 A 
ATOM     21  C   UNL     1      46.141   5.703  13.461  0.00  0.00    +0.000 A 
BRANCH  20  22
ATOM     22  C   UNL     1      48.153   5.695  14.996  0.00  0.00    +0.000 A 
ATOM     23  C   UNL     1      48.292   5.457  16.364  0.00  0.00    +0.000 A 
ATOM     24  C   UNL     1      49.268   6.147  17.083  0.00  0.00    +0.000 A 
ATOM     25  C   UNL     1      50.084   7.056  16.425  0.00  0.00    +0.000 A 
ATOM     26  C   UNL     1      49.893   7.233  15.068  0.00  0.00    +0.000 A 
ATOM     27  N   UNL     1      48.956   6.576  14.347  0.00  0.00    +0.000 NA
ENDBRANCH  20  22
ENDBRANCH  15  16
ENDBRANCH   1  15
TORSDOF 5
ENDMDL
MODEL 4
REMARK VINA RESULT:    -8.333      2.396      4.614
REMARK INTER + INTRA:         -11.467
REMARK INTER:                 -10.588
REMARK INTRA:                  -0.879
REMARK UNBOUND:                -0.698
REMARK  Name = 
REMARK  5 active torsions:
REMARK  status: ('A' for Active; 'I' for Inactive)
REMARK    1  A    between atoms: C_2  and  C_4
REMARK    2  A    between atoms: N_8  and  C_9
REMARK    3  A    between atoms: C_9  and  C_10
REMARK    4  A    between atoms: C_10  and  C_11
REMARK    5  A    between atoms: C_15  and  C_16
REMARK                            x       y       z     vdW  Elec       q    Type
REMARK                         _______ _______ _______ _____ _____    ______ ____
ROOT
ATOM      1  C   UNL     1      43.253   3.491  11.288  0.00  0.00    +0.000 C 
ENDROOT
BRANCH   1   6
ATOM      2  C   UNL     1      46.446   2.829   7.402  0.00  0.00    +0.000 A 
ATOM      3  C   UNL     1      46.029   4.004   8.017  0.00  0.00    +0.000 A 
ATOM      4  C   UNL     1      45.289   3.927   9.196  0.00  0.00    +0.000 A 
ATOM      5  C   UNL     1      44.957   2.685   9.729  0.00  0.00    +0.000 A 
ATOM      6  N   UNL     1      44.294   2.534  10.939  0.00  0.00    +0.000 N 
ATOM      7  N   UNL     1      45.324   1.539   9.122  0.00  0.00    +0.000 NA
ATOM      8  C   UNL     1      46.053   1.630   7.974  0.00  0.00    +0.000 A 
ATOM      9  H   UNL     1      44.047   1.550  11.014  0.00  0.00    +0.000 HD
BRANCH   2  11
ATOM     10  N   UNL     1      48.620   2.595   6.344  0.00  0.00    +0.000 N 
ATOM     11  C   UNL     1      47.278   2.820   6.182  0.00  0.00    +0.000 C 
ATOM     12  O   UNL     1      46.790   2.972   5.071  0.00  0.00    +0.000 OA
ATOM     13  H   UNL     1      49.165   2.485   5.499  0.00  0.00    +0.000 HD
ATOM     14  H   UNL     1      49.009   2.225   7.200  0.00  0.00    +0.000 HD
ENDBRANCH   2  11
ENDBRANCH   1   6
BRANCH   1  15
ATOM     15  C   UNL     1      43.427   3.982  12.729  0.00  0.00    +0.000 C 
BRANCH  15  16
ATOM     16  C   UNL     1      44.529   5.003  12.827  0.00  0.00    +0.000 A 
ATOM     17  C   UNL     1      45.777   4.668  13.342  0.00  0.00    +0.000 A 
ATOM     18  N   UNL     1      46.818   5.520  13.405  0.00  0.00    +0.000 NA
ATOM     19  C   UNL     1      46.610   6.775  12.929  0.00  0.00    +0.000 A 
ATOM     20  C   UNL     1      45.406   7.243  12.399  0.00  0.00    +0.000 A 
ATOM     21  C   UNL     1      44.359   6.310  12.350  0.00  0.00    +0.000 A 
BRANCH  20  22
ATOM     22  C   UNL     1      45.274   8.628  11.913  0.00  0.00    +0.000 A 
ATOM     23  C   UNL     1      46.194   9.632  12.221  0.00  0.00    +0.000 A 
ATOM     24  C   UNL     1      45.992  10.920  11.726  0.00  0.00    +0.000 A 
ATOM     25  C   UNL     1      44.883  11.180  10.935  0.00  0.00    +0.000 A 
ATOM     26  C   UNL     1      44.020  10.134  10.665  0.00  0.00    +0.000 A 
ATOM     27  N   UNL     1      44.193   8.877  11.131  0.00  0.00    +0.000 NA
ENDBRANCH  20  22
ENDBRANCH  15  16
ENDBRANCH   1  15
TORSDOF 5
ENDMDL
MODEL 5
REMARK VINA RESULT:    -7.908      3.233      8.135
REMARK INTER + INTRA:         -10.918
REMARK INTER:                 -10.349
REMARK INTRA:                  -0.569
REMARK UNBOUND:                -0.698
REMARK  Name = 
REMARK  5 active torsions:
REMARK  status: ('A' for Active; 'I' for Inactive)
REMARK    1  A    between atoms: C_2  and  C_4
REMARK    2  A    between atoms: N_8  and  C_9
REMARK    3  A    between atoms: C_9  and  C_10
REMARK    4  A    between atoms: C_10  and  C_11
REMARK    5  A    between atoms: C_15  and  C_16
REMARK                            x       y       z     vdW  Elec       q    Type
REMARK                         _______ _______ _______ _____ _____    ______ ____
ROOT
ATOM      1  C   UNL     1      46.267   5.611  13.362  0.00  0.00    +0.000 C 
ENDROOT
BRANCH   1   6
ATOM      2  C   UNL     1      49.191   4.142  17.238  0.00  0.00    +0.000 A 
ATOM      3  C   UNL     1      48.916   5.421  16.770  0.00  0.00    +0.000 A 
ATOM      4  C   UNL     1      47.927   5.592  15.802  0.00  0.00    +0.000 A 
ATOM      5  C   UNL     1      47.247   4.485  15.301  0.00  0.00    +0.000 A 
ATOM      6  N   UNL     1      46.197   4.589  14.398  0.00  0.00    +0.000 N 
ATOM      7  N   UNL     1      47.531   3.236  15.720  0.00  0.00    +0.000 NA
ATOM      8  C   UNL     1      48.494   3.087  16.671  0.00  0.00    +0.000 A 
ATOM      9  H   UNL     1      45.988   3.643  14.087  0.00  0.00    +0.000 HD
BRANCH   2  11
ATOM     10  N   UNL     1      51.030   2.817  18.110  0.00  0.00    +0.000 N 
ATOM     11  C   UNL     1      50.184   3.877  18.300  0.00  0.00    +0.000 C 
ATOM     12  O   UNL     1      50.272   4.591  19.288  0.00  0.00    +0.000 OA
ATOM     13  H   UNL     1      51.774   2.707  18.787  0.00  0.00    +0.000 HD
ATOM     14  H   UNL     1      51.150   2.370  17.212  0.00  0.00    +0.000 HD
ENDBRANCH   2  11
ENDBRANCH   1   6
BRANCH   1  15
ATOM     15  C   UNL     1      44.914   5.760  12.657  0.00  0.00    +0.000 C 
BRANCH  15  16
ATOM     16  C   UNL     1      44.597   4.546  11.826  0.00  0.00    +0.000 A 
ATOM     17  C   UNL     1      43.536   3.708  12.151  0.00  0.00    +0.000 A 
ATOM     18  N   UNL     1      43.168   2.640  11.418  0.00  0.00    +0.000 NA
ATOM     19  C   UNL     1      43.893   2.389  10.298  0.00  0.00    +0.000 A 
ATOM     20  C   UNL     1      44.986   3.141   9.864  0.00  0.00    +0.000 A 
ATOM     21  C   UNL     1      45.319   4.248  10.662  0.00  0.00    +0.000 A 
BRANCH  20  22
ATOM     22  C   UNL     1      45.718   2.786   8.636  0.00  0.00    +0.000 A 
ATOM     23  C   UNL     1      45.968   3.698   7.609  0.00  0.00    +0.000 A 
ATOM     24  C   UNL     1      46.662   3.279   6.475  0.00  0.00    +0.000 A 
ATOM     25  C   UNL     1      47.095   1.964   6.388  0.00  0.00    +0.000 A 
ATOM     26  C   UNL     1      46.818   1.120   7.447  0.00  0.00    +0.000 A 
ATOM     27  N   UNL     1      46.148   1.501   8.558  0.00  0.00    +0.000 NA
ENDBRANCH  20  22
ENDBRANCH  15  16
ENDBRANCH   1  15
TORSDOF 5
ENDMDL
MODEL 6
REMARK VINA RESULT:    -7.813      3.888      7.235
REMARK INTER + INTRA:         -10.795
REMARK INTER:                 -10.100
REMARK INTRA:                  -0.695
REMARK UNBOUND:                -0.698
REMARK  Name = 
REMARK  5 active torsions:
REMARK  status: ('A' for Active; 'I' for Inactive)
REMARK    1  A    between atoms: C_2  and  C_4
REMARK    2  A    between atoms: N_8  and  C_9
REMARK    3  A    between atoms: C_9  and  C_10
REMARK    4  A    between atoms: C_10  and  C_11
REMARK    5  A    between atoms: C_15  and  C_16
REMARK                            x       y       z     vdW  Elec       q    Type
REMARK                         _______ _______ _______ _____ _____    ______ ____
ROOT
ATOM      1  C   UNL     1      44.636   6.466  12.866  0.00  0.00    +0.000 C 
ENDROOT
BRANCH   1   6
ATOM      2  C   UNL     1      49.361   8.261  12.445  0.00  0.00    +0.000 A 
ATOM      3  C   UNL     1      48.730   7.250  11.731  0.00  0.00    +0.000 A 
ATOM      4  C   UNL     1      47.359   7.057  11.894  0.00  0.00    +0.000 A 
ATOM      5  C   UNL     1      46.646   7.859  12.781  0.00  0.00    +0.000 A 
ATOM      6  N   UNL     1      45.268   7.777  12.932  0.00  0.00    +0.000 N 
ATOM      7  N   UNL     1      47.253   8.819  13.506  0.00  0.00    +0.000 NA
ATOM      8  C   UNL     1      48.592   8.999  13.330  0.00  0.00    +0.000 A 
ATOM      9  H   UNL     1      45.030   8.354  13.736  0.00  0.00    +0.000 HD
BRANCH   2  11
ATOM     10  N   UNL     1      51.642   8.101  13.265  0.00  0.00    +0.000 N 
ATOM     11  C   UNL     1      50.798   8.569  12.292  0.00  0.00    +0.000 C 
ATOM     12  O   UNL     1      51.223   9.183  11.324  0.00  0.00    +0.000 OA
ATOM     13  H   UNL     1      52.633   8.223  13.100  0.00  0.00    +0.000 HD
ATOM     14  H   UNL     1      51.365   7.393  13.930  0.00  0.00    +0.000 HD
ENDBRANCH   2  11
ENDBRANCH   1   6
BRANCH   1  15
ATOM     15  C   UNL     1      43.918   6.278  11.524  0.00  0.00    +0.000 C 
BRANCH  15  16
ATOM     16  C   UNL     1      44.013   4.851  11.052  0.00  0.00    +0.000 A 
ATOM     17  C   UNL     1      43.245   3.848  11.633  0.00  0.00    +0.000 A 
ATOM     18  N   UNL     1      43.243   2.567  11.220  0.00  0.00    +0.000 NA
ATOM     19  C   UNL     1      44.050   2.263  10.171  0.00  0.00    +0.000 A 
ATOM     20  C   UNL     1      44.879   3.169   9.506  0.00  0.00    +0.000 A 
ATOM     21  C   UNL     1      44.833   4.492   9.973  0.00  0.00    +0.000 A 
BRANCH  20  22
ATOM     22  C   UNL     1      45.726   2.742   8.379  0.00  0.00    +0.000 A 
ATOM     23  C   UNL     1      46.081   3.593   7.331  0.00  0.00    +0.000 A 
ATOM     24  C   UNL     1      46.883   3.109   6.298  0.00  0.00    +0.000 A 
ATOM     25  C   UNL     1      47.315   1.791   6.331  0.00  0.00    +0.000 A 
ATOM     26  C   UNL     1      46.931   1.010   7.406  0.00  0.00    +0.000 A 
ATOM     27  N   UNL     1      46.156   1.455   8.420  0.00  0.00    +0.000 NA
ENDBRANCH  20  22
ENDBRANCH  15  16
ENDBRANCH   1  15
TORSDOF 5
ENDMDL
MODEL 7
REMARK VINA RESULT:    -7.785      2.545      3.201
REMARK INTER + INTRA:         -10.758
REMARK INTER:                  -9.848
REMARK INTRA:                  -0.910
REMARK UNBOUND:                -0.698
REMARK  Name = 
REMARK  5 active torsions:
REMARK  status: ('A' for Active; 'I' for Inactive)
REMARK    1  A    between atoms: C_2  and  C_4
REMARK    2  A    between atoms: N_8  and  C_9
REMARK    3  A    between atoms: C_9  and  C_10
REMARK    4  A    between atoms: C_10  and  C_11
REMARK    5  A    between atoms: C_15  and  C_16
REMARK                            x       y       z     vdW  Elec       q    Type
REMARK                         _______ _______ _______ _____ _____    ______ ____
ROOT
ATOM      1  C   UNL     1      43.245   3.836  11.189  0.00  0.00    +0.000 C 
ENDROOT
BRANCH   1   6
ATOM      2  C   UNL     1      46.450   2.851   7.383  0.00  0.00    +0.000 A 
ATOM      3  C   UNL     1      46.069   4.071   7.929  0.00  0.00    +0.000 A 
ATOM      4  C   UNL     1      45.315   4.085   9.101  0.00  0.00    +0.000 A 
ATOM      5  C   UNL     1      44.934   2.886   9.697  0.00  0.00    +0.000 A 
ATOM      6  N   UNL     1      44.254   2.825  10.906  0.00  0.00    +0.000 N 
ATOM      7  N   UNL     1      45.266   1.696   9.157  0.00  0.00    +0.000 NA
ATOM      8  C   UNL     1      46.009   1.699   8.015  0.00  0.00    +0.000 A 
ATOM      9  H   UNL     1      43.972   1.856  11.031  0.00  0.00    +0.000 HD
BRANCH   2  11
ATOM     10  N   UNL     1      48.626   2.494   6.366  0.00  0.00    +0.000 N 
ATOM     11  C   UNL     1      47.293   2.745   6.175  0.00  0.00    +0.000 C 
ATOM     12  O   UNL     1      46.820   2.844   5.052  0.00  0.00    +0.000 OA
ATOM     13  H   UNL     1      49.176   2.318   5.535  0.00  0.00    +0.000 HD
ATOM     14  H   UNL     1      48.997   2.166   7.246  0.00  0.00    +0.000 HD
ENDBRANCH   2  11
ENDBRANCH   1   6
BRANCH   1  15
ATOM     15  C   UNL     1      43.580   4.591  12.481  0.00  0.00    +0.000 C 
BRANCH  15  16
ATOM     16  C   UNL     1      44.346   5.854  12.190  0.00  0.00    +0.000 A 
ATOM     17  C   UNL     1      43.741   6.933  11.554  0.00  0.00    +0.000 A 
ATOM     18  N   UNL     1      44.356   8.107  11.316  0.00  0.00    +0.000 NA
ATOM     19  C   UNL     1      45.644   8.217  11.732  0.00  0.00    +0.000 A 
ATOM     20  C   UNL     1      46.371   7.210  12.370  0.00  0.00    +0.000 A 
ATOM     21  C   UNL     1      45.677   6.011  12.600  0.00  0.00    +0.000 A 
BRANCH  20  22
ATOM     22  C   UNL     1      47.770   7.422  12.778  0.00  0.00    +0.000 A 
ATOM     23  C   UNL     1      48.778   7.779  11.881  0.00  0.00    +0.000 A 
ATOM     24  C   UNL     1      50.080   7.955  12.348  0.00  0.00    +0.000 A 
ATOM     25  C   UNL     1      50.350   7.774  13.697  0.00  0.00    +0.000 A 
ATOM     26  C   UNL     1      49.300   7.429  14.527  0.00  0.00    +0.000 A 
ATOM     27  N   UNL     1      48.029   7.254  14.100  0.00  0.00    +0.000 NA
ENDBRANCH  20  22
ENDBRANCH  15  16
ENDBRANCH   1  15
TORSDOF 5
ENDMDL
MODEL 8
REMARK VINA RESULT:    -7.722      2.749      7.798
REMARK INTER + INTRA:         -10.677
REMARK INTER:                 -10.213
REMARK INTRA:                  -0.464
REMARK UNBOUND:                -0.698
REMARK  Name = 
REMARK  5 active torsions:
REMARK  status: ('A' for Active; 'I' for Inactive)
REMARK    1  A    between atoms: C_2  and  C_4
REMARK    2  A    between atoms: N_8  and  C_9
REMARK    3  A    between atoms: C_9  and  C_10
REMARK    4  A    between atoms: C_10  and  C_11
REMARK    5  A    between atoms: C_15  and  C_16
REMARK                            x       y       z     vdW  Elec       q    Type
REMARK                         _______ _______ _______ _____ _____    ______ ____
ROOT
ATOM      1  C   UNL     1      46.886   6.791  13.060  0.00  0.00    +0.000 C 
ENDROOT
BRANCH   1   6
ATOM      2  C   UNL     1      48.544   3.848  16.845  0.00  0.00    +0.000 A 
ATOM      3  C   UNL     1      48.645   5.225  16.682  0.00  0.00    +0.000 A 
ATOM      4  C   UNL     1      47.943   5.839  15.646  0.00  0.00    +0.000 A 
ATOM      5  C   UNL     1      47.174   5.071  14.777  0.00  0.00    +0.000 A 
ATOM      6  N   UNL     1      46.387   5.624  13.775  0.00  0.00    +0.000 N 
ATOM      7  N   UNL     1      47.097   3.731  14.902  0.00  0.00    +0.000 NA
ATOM      8  C   UNL     1      47.782   3.146  15.924  0.00  0.00    +0.000 A 
ATOM      9  H   UNL     1      46.059   4.849  13.203  0.00  0.00    +0.000 HD
BRANCH   2  11
ATOM     10  N   UNL     1      48.584   3.135  19.166  0.00  0.00    +0.000 N 
ATOM     11  C   UNL     1      49.209   3.124  17.948  0.00  0.00    +0.000 C 
ATOM     12  O   UNL     1      50.254   2.513  17.775  0.00  0.00    +0.000 OA
ATOM     13  H   UNL     1      48.989   2.551  19.887  0.00  0.00    +0.000 HD
ATOM     14  H   UNL     1      47.619   3.410  19.280  0.00  0.00    +0.000 HD
ENDBRANCH   2  11
ENDBRANCH   1   6
BRANCH   1  15
ATOM     15  C   UNL     1      45.812   7.353  12.122  0.00  0.00    +0.000 C 
BRANCH  15  16
ATOM     16  C   UNL     1      45.080   6.247  11.409  0.00  0.00    +0.000 A 
ATOM     17  C   UNL     1      43.732   6.005  11.647  0.00  0.00    +0.000 A 
ATOM     18  N   UNL     1      43.010   5.070  11.001  0.00  0.00    +0.000 NA
ATOM     19  C   UNL     1      43.662   4.333  10.066  0.00  0.00    +0.000 A 
ATOM     20  C   UNL     1      45.013   4.465   9.738  0.00  0.00    +0.000 A 
ATOM     21  C   UNL     1      45.714   5.461  10.436  0.00  0.00    +0.000 A 
BRANCH  20  22
ATOM     22  C   UNL     1      45.635   3.611   8.712  0.00  0.00    +0.000 A 
ATOM     23  C   UNL     1      45.705   2.221   8.819  0.00  0.00    +0.000 A 
ATOM     24  C   UNL     1      46.317   1.486   7.805  0.00  0.00    +0.000 A 
ATOM     25  C   UNL     1      46.845   2.149   6.706  0.00  0.00    +0.000 A 
ATOM     26  C   UNL     1      46.731   3.526   6.665  0.00  0.00    +0.000 A 
ATOM     27  N   UNL     1      46.141   4.262   7.633  0.00  0.00    +0.000 NA
ENDBRANCH  20  22
ENDBRANCH  15  16
ENDBRANCH   1  15
TORSDOF 5
ENDMDL
