MODEL 1
REMARK VINA RESULT:    -9.110      0.000      0.000
REMARK INTER + INTRA:         -11.656
REMARK INTER:                 -11.241
REMARK INTRA:                  -0.415
REMARK UNBOUND:                -0.415
REMARK  Name = 
REMARK  4 active torsions:
REMARK  status: ('A' for Active; 'I' for Inactive)
REMARK    1  A    between atoms: C_2  and  C_4
REMARK    2  A    between atoms: C_7  and  C_8
REMARK    3  A    between atoms: C_8  and  N_9
REMARK    4  A    between atoms: C_12  and  C_13
REMARK                            x       y       z     vdW  Elec       q    Type
REMARK                         _______ _______ _______ _____ _____    ______ ____
ROOT
ATOM      1  N   UNL     1      44.373   4.196  11.857  0.00  0.00    +0.000 N 
ATOM      2  C   UNL     1      45.475   4.913  12.369  0.00  0.00    +0.000 A 
ATOM      3  C   UNL     1      45.953   4.599  13.642  0.00  0.00    +0.000 A 
ATOM      4  C   UNL     1      47.044   5.300  14.191  0.00  0.00    +0.000 A 
ATOM      5  C   UNL     1      47.598   6.316  13.407  0.00  0.00    +0.000 A 
ATOM      6  C   UNL     1      47.070   6.570  12.155  0.00  0.00    +0.000 A 
ATOM      7  N   UNL     1      46.026   5.899  11.636  0.00  0.00    +0.000 NA
ATOM      8  H   UNL     1      44.586   3.202  11.883  0.00  0.00    +0.000 HD
ENDROOT
BRANCH   4   9
ATOM      9  C   UNL     1      47.608   4.966  15.521  0.00  0.00    +0.000 A 
ATOM     10  C   UNL     1      48.582   5.771  16.145  0.00  0.00    +0.000 A 
ATOM     11  C   UNL     1      49.081   5.465  17.419  0.00  0.00    +0.000 A 
ATOM     12  C   UNL     1      48.629   4.336  18.093  0.00  0.00    +0.000 A 
ATOM     13  C   UNL     1      47.686   3.522  17.486  0.00  0.00    +0.000 A 
ATOM     14  F   UNL     1      47.249   2.427  18.123  0.00  0.00    +0.000 F 
ATOM     15  C   UNL     1      47.178   3.825  16.225  0.00  0.00    +0.000 A 
ENDBRANCH   4   9
BRANCH   1  16
ATOM     16  C   UNL     1      44.018   4.627  10.507  0.00  0.00    +0.000 C 
BRANCH  16  20
ATOM     17  C   UNL     1      46.453   2.472   7.659  0.00  0.00    +0.000 A 
ATOM     18  C   UNL     1      46.389   3.869   7.606  0.00  0.00    +0.000 A 
ATOM     19  C   UNL     1      45.576   4.568   8.506  0.00  0.00    +0.000 A 
ATOM     20  C   UNL     1      44.822   3.879   9.467  0.00  0.00    +0.000 A 
ATOM     21  C   UNL     1      44.873   2.477   9.494  0.00  0.00    +0.000 A 
ATOM     22  C   UNL     1      45.677   1.777   8.594  0.00  0.00    +0.000 A 
BRANCH  17  24
ATOM     23  N   UNL     1      48.368   2.347   6.162  0.00  0.00    +0.000 N 
ATOM     24  C   UNL     1      47.324   1.685   6.749  0.00  0.00    +0.000 C 
ATOM     25  O   UNL     1      47.156   0.489   6.568  0.00  0.00    +0.000 OA
ATOM     26  H   UNL     1      49.027   1.772   5.653  0.00  0.00    +0.000 HD
ATOM     27  H   UNL     1      48.690   3.243   6.497  0.00  0.00    +0.000 HD
ENDBRANCH  17  24
ENDBRANCH  16  20
ENDBRANCH   1  16
TORSDOF 4
ENDMDL
MODEL 2
REMARK VINA RESULT:    -8.303      2.662      3.470
REMARK INTER + INTRA:         -10.660
REMARK INTER:                 -10.262
REMARK INTRA:                  -0.398
REMARK UNBOUND:                -0.415
REMARK  Name = 
REMARK  4 active torsions:
REMARK  status: ('A' for Active; 'I' for Inactive)
REMARK    1  A    between atoms: C_2  and  C_4
REMARK    2  A    between atoms: C_7  and  C_8
REMARK    3  A    between atoms: C_8  and  N_9
REMARK    4  A    between atoms: C_12  and  C_13
REMARK                            x       y       z     vdW  Elec       q    Type
REMARK                         _______ _______ _______ _____ _____    ______ ____
ROOT
ATOM      1  N   UNL     1      44.655   5.966  10.696  0.00  0.00    +0.000 N 
ATOM      2  C   UNL     1      45.501   5.745  11.803  0.00  0.00    +0.000 A 
ATOM      3  C   UNL     1      46.248   6.812  12.308  0.00  0.00    +0.000 A 
ATOM      4  C   UNL     1      47.109   6.627  13.405  0.00  0.00    +0.000 A 
ATOM      5  C   UNL     1      47.183   5.337  13.938  0.00  0.00    +0.000 A 
ATOM      6  C   UNL     1      46.414   4.331  13.384  0.00  0.00    +0.000 A 
ATOM      7  N   UNL     1      45.593   4.512  12.334  0.00  0.00    +0.000 NA
ATOM      8  H   UNL     1      44.019   6.728  10.915  0.00  0.00    +0.000 HD
ENDROOT
BRANCH   4   9
ATOM      9  C   UNL     1      47.885   7.745  13.997  0.00  0.00    +0.000 A 
ATOM     10  C   UNL     1      48.667   7.582  15.158  0.00  0.00    +0.000 A 
ATOM     11  C   UNL     1      49.424   8.637  15.688  0.00  0.00    +0.000 A 
ATOM     12  C   UNL     1      49.404   9.886  15.076  0.00  0.00    +0.000 A 
ATOM     13  C   UNL     1      48.625  10.069  13.945  0.00  0.00    +0.000 A 
ATOM     14  F   UNL     1      48.593  11.270  13.351  0.00  0.00    +0.000 F 
ATOM     15  C   UNL     1      47.878   9.023  13.407  0.00  0.00    +0.000 A 
ENDBRANCH   4   9
BRANCH   1  16
ATOM     16  C   UNL     1      43.928   4.759  10.312  0.00  0.00    +0.000 C 
BRANCH  16  20
ATOM     17  C   UNL     1      46.405   2.304   7.758  0.00  0.00    +0.000 A 
ATOM     18  C   UNL     1      46.400   3.695   7.597  0.00  0.00    +0.000 A 
ATOM     19  C   UNL     1      45.575   4.490   8.401  0.00  0.00    +0.000 A 
ATOM     20  C   UNL     1      44.749   3.905   9.372  0.00  0.00    +0.000 A 
ATOM     21  C   UNL     1      44.742   2.508   9.506  0.00  0.00    +0.000 A 
ATOM     22  C   UNL     1      45.559   1.712   8.702  0.00  0.00    +0.000 A 
BRANCH  17  24
ATOM     23  N   UNL     1      48.303   2.016   6.262  0.00  0.00    +0.000 N 
ATOM     24  C   UNL     1      47.285   1.419   6.954  0.00  0.00    +0.000 C 
ATOM     25  O   UNL     1      47.148   0.204   6.948  0.00  0.00    +0.000 OA
ATOM     26  H   UNL     1      48.970   1.392   5.827  0.00  0.00    +0.000 HD
ATOM     27  H   UNL     1      48.604   2.959   6.460  0.00  0.00    +0.000 HD
ENDBRANCH  17  24
ENDBRANCH  16  20
ENDBRANCH   1  16
TORSDOF 4
ENDMDL
MODEL 3
REMARK VINA RESULT:    -8.024      2.069      2.877
REMARK INTER + INTRA:         -10.316
REMARK INTER:                  -9.914
REMARK INTRA:                  -0.402
REMARK UNBOUND:                -0.415
REMARK  Name = 
REMARK  4 active torsions:
REMARK  status: ('A' for Active; 'I' for Inactive)
REMARK    1  A    between atoms: C_2  and  C_4
REMARK    2  A    between atoms: C_7  and  C_8
REMARK    3  A    between atoms: C_8  and  N_9
REMARK    4  A    between atoms: C_12  and  C_13
REMARK                            x       y       z     vdW  Elec       q    Type
REMARK                         _______ _______ _______ _____ _____    ______ ____
ROOT
ATOM      1  N   UNL     1      45.106   6.122  10.626  0.00  0.00    +0.000 N 
ATOM      2  C   UNL     1      45.768   5.775  11.822  0.00  0.00    +0.000 A 
ATOM      3  C   UNL     1      46.671   6.682  12.382  0.00  0.00    +0.000 A 
ATOM      4  C   UNL     1      47.358   6.367  13.570  0.00  0.00    +0.000 A 
ATOM      5  C   UNL     1      47.099   5.114  14.134  0.00  0.00    +0.000 A 
ATOM      6  C   UNL     1      46.193   4.270  13.521  0.00  0.00    +0.000 A 
ATOM      7  N   UNL     1      45.540   4.574  12.386  0.00  0.00    +0.000 NA
ATOM      8  H   UNL     1      44.628   7.009  10.760  0.00  0.00    +0.000 HD
ENDROOT
BRANCH   4   9
ATOM      9  C   UNL     1      48.291   7.321  14.218  0.00  0.00    +0.000 A 
ATOM     10  C   UNL     1      48.457   8.640  13.751  0.00  0.00    +0.000 A 
ATOM     11  C   UNL     1      49.315   9.545  14.394  0.00  0.00    +0.000 A 
ATOM     12  C   UNL     1      50.039   9.145  15.512  0.00  0.00    +0.000 A 
ATOM     13  C   UNL     1      49.902   7.845  15.973  0.00  0.00    +0.000 A 
ATOM     14  F   UNL     1      50.600   7.447  17.046  0.00  0.00    +0.000 F 
ATOM     15  C   UNL     1      49.044   6.945  15.346  0.00  0.00    +0.000 A 
ENDBRANCH   4   9
BRANCH   1  16
ATOM     16  C   UNL     1      44.180   5.080  10.191  0.00  0.00    +0.000 C 
BRANCH  16  20
ATOM     17  C   UNL     1      46.319   2.100   7.905  0.00  0.00    +0.000 A 
ATOM     18  C   UNL     1      46.524   3.459   7.644  0.00  0.00    +0.000 A 
ATOM     19  C   UNL     1      45.810   4.426   8.360  0.00  0.00    +0.000 A 
ATOM     20  C   UNL     1      44.884   4.045   9.343  0.00  0.00    +0.000 A 
ATOM     21  C   UNL     1      44.666   2.678   9.577  0.00  0.00    +0.000 A 
ATOM     22  C   UNL     1      45.372   1.712   8.860  0.00  0.00    +0.000 A 
BRANCH  17  24
ATOM     23  N   UNL     1      46.808  -0.259   7.553  0.00  0.00    +0.000 N 
ATOM     24  C   UNL     1      47.074   1.035   7.196  0.00  0.00    +0.000 C 
ATOM     25  O   UNL     1      47.860   1.290   6.296  0.00  0.00    +0.000 OA
ATOM     26  H   UNL     1      47.229  -0.974   6.975  0.00  0.00    +0.000 HD
ATOM     27  H   UNL     1      45.987  -0.509   8.084  0.00  0.00    +0.000 HD
ENDBRANCH  17  24
ENDBRANCH  16  20
ENDBRANCH   1  16
TORSDOF 4
ENDMDL
MODEL 4
REMARK VINA RESULT:    -7.855      1.832      2.248
REMARK INTER + INTRA:         -10.106
REMARK INTER:                  -9.628
REMARK INTRA:                  -0.478
REMARK UNBOUND:                -0.415
REMARK  Name = 
REMARK  4 active torsions:
REMARK  status: ('A' for Active; 'I' for Inactive)
REMARK    1  A    between atoms: C_2  and  C_4
REMARK    2  A    between atoms: C_7  and  C_8
REMARK    3  A    between atoms: C_8  and  N_9
REMARK    4  A    between atoms: C_12  and  C_13
REMARK                            x       y       z     vdW  Elec       q    Type
REMARK                         _______ _______ _______ _____ _____    ______ ____
ROOT
ATOM      1  N   UNL     1      45.216   4.002  12.089  0.00  0.00    +0.000 N 
ATOM      2  C   UNL     1      45.926   5.178  12.411  0.00  0.00    +0.000 A 
ATOM      3  C   UNL     1      46.823   5.154  13.481  0.00  0.00    +0.000 A 
ATOM      4  C   UNL     1      47.543   6.310  13.838  0.00  0.00    +0.000 A 
ATOM      5  C   UNL     1      47.299   7.462  13.084  0.00  0.00    +0.000 A 
ATOM      6  C   UNL     1      46.395   7.408  12.040  0.00  0.00    +0.000 A 
ATOM      7  N   UNL     1      45.709   6.302  11.703  0.00  0.00    +0.000 NA
ATOM      8  H   UNL     1      45.880   3.249  11.934  0.00  0.00    +0.000 HD
ENDROOT
BRANCH   4   9
ATOM      9  C   UNL     1      48.537   6.312  14.939  0.00  0.00    +0.000 A 
ATOM     10  C   UNL     1      48.350   5.561  16.118  0.00  0.00    +0.000 A 
ATOM     11  C   UNL     1      49.313   5.542  17.137  0.00  0.00    +0.000 A 
ATOM     12  C   UNL     1      50.481   6.287  17.007  0.00  0.00    +0.000 A 
ATOM     13  C   UNL     1      50.671   7.047  15.864  0.00  0.00    +0.000 A 
ATOM     14  F   UNL     1      51.789   7.774  15.732  0.00  0.00    +0.000 F 
ATOM     15  C   UNL     1      49.724   7.062  14.843  0.00  0.00    +0.000 A 
ENDBRANCH   4   9
BRANCH   1  16
ATOM     16  C   UNL     1      44.343   4.189  10.933  0.00  0.00    +0.000 C 
BRANCH  16  20
ATOM     17  C   UNL     1      46.389   2.743   7.410  0.00  0.00    +0.000 A 
ATOM     18  C   UNL     1      46.230   4.119   7.609  0.00  0.00    +0.000 A 
ATOM     19  C   UNL     1      45.540   4.590   8.732  0.00  0.00    +0.000 A 
ATOM     20  C   UNL     1      45.003   3.692   9.666  0.00  0.00    +0.000 A 
ATOM     21  C   UNL     1      45.145   2.314   9.443  0.00  0.00    +0.000 A 
ATOM     22  C   UNL     1      45.827   1.841   8.321  0.00  0.00    +0.000 A 
BRANCH  17  24
ATOM     23  N   UNL     1      47.172   2.952   5.115  0.00  0.00    +0.000 N 
ATOM     24  C   UNL     1      47.140   2.193   6.253  0.00  0.00    +0.000 C 
ATOM     25  O   UNL     1      47.750   1.136   6.322  0.00  0.00    +0.000 OA
ATOM     26  H   UNL     1      47.792   2.629   4.384  0.00  0.00    +0.000 HD
ATOM     27  H   UNL     1      46.917   3.928   5.116  0.00  0.00    +0.000 HD
ENDBRANCH  17  24
ENDBRANCH  16  20
ENDBRANCH   1  16
TORSDOF 4
ENDMDL
MODEL 5
REMARK VINA RESULT:    -7.394      4.939      8.564
REMARK INTER + INTRA:          -9.538
REMARK INTER:                  -8.996
REMARK INTRA:                  -0.543
REMARK UNBOUND:                -0.415
REMARK  Name = 
REMARK  4 active torsions:
REMARK  status: ('A' for Active; 'I' for Inactive)
REMARK    1  A    between atoms: C_2  and  C_4
REMARK    2  A    between atoms: C_7  and  C_8
REMARK    3  A    between atoms: C_8  and  N_9
REMARK    4  A    between atoms: C_12  and  C_13
REMARK                            x       y       z     vdW  Elec       q    Type
REMARK                         _______ _______ _______ _____ _____    ______ ____
ROOT
ATOM      1  N   UNL     1      48.134   4.031  16.865  0.00  0.00    +0.000 N 
ATOM      2  C   UNL     1      47.830   4.774  15.705  0.00  0.00    +0.000 A 
ATOM      3  C   UNL     1      46.761   4.369  14.904  0.00  0.00    +0.000 A 
ATOM      4  C   UNL     1      46.434   5.080  13.734  0.00  0.00    +0.000 A 
ATOM      5  C   UNL     1      47.235   6.182  13.421  0.00  0.00    +0.000 A 
ATOM      6  C   UNL     1      48.278   6.521  14.263  0.00  0.00    +0.000 A 
ATOM      7  N   UNL     1      48.588   5.838  15.380  0.00  0.00    +0.000 NA
ATOM      8  H   UNL     1      47.302   3.972  17.446  0.00  0.00    +0.000 HD
ENDROOT
BRANCH   4   9
ATOM      9  C   UNL     1      45.278   4.707  12.881  0.00  0.00    +0.000 A 
ATOM     10  C   UNL     1      45.293   3.563  12.059  0.00  0.00    +0.000 A 
ATOM     11  C   UNL     1      44.182   3.201  11.284  0.00  0.00    +0.000 A 
ATOM     12  C   UNL     1      43.033   3.985  11.303  0.00  0.00    +0.000 A 
ATOM     13  C   UNL     1      43.008   5.124  12.091  0.00  0.00    +0.000 A 
ATOM     14  F   UNL     1      41.910   5.891  12.111  0.00  0.00    +0.000 F 
ATOM     15  C   UNL     1      44.105   5.485  12.871  0.00  0.00    +0.000 A 
ENDBRANCH   4   9
BRANCH   1  16
ATOM     16  C   UNL     1      49.259   4.601  17.602  0.00  0.00    +0.000 C 
BRANCH  16  20
ATOM     17  C   UNL     1      52.535   1.795  17.880  0.00  0.00    +0.000 A 
ATOM     18  C   UNL     1      52.732   3.135  18.233  0.00  0.00    +0.000 A 
ATOM     19  C   UNL     1      51.683   4.053  18.113  0.00  0.00    +0.000 A 
ATOM     20  C   UNL     1      50.427   3.642  17.642  0.00  0.00    +0.000 A 
ATOM     21  C   UNL     1      50.248   2.301  17.266  0.00  0.00    +0.000 A 
ATOM     22  C   UNL     1      51.295   1.386  17.378  0.00  0.00    +0.000 A 
BRANCH  17  24
ATOM     23  N   UNL     1      53.229  -0.467  18.451  0.00  0.00    +0.000 N 
ATOM     24  C   UNL     1      53.606   0.775  18.019  0.00  0.00    +0.000 C 
ATOM     25  O   UNL     1      54.765   1.009  17.711  0.00  0.00    +0.000 OA
ATOM     26  H   UNL     1      53.941  -1.184  18.414  0.00  0.00    +0.000 HD
ATOM     27  H   UNL     1      52.264  -0.764  18.449  0.00  0.00    +0.000 HD
ENDBRANCH  17  24
ENDBRANCH  16  20
ENDBRANCH   1  16
TORSDOF 4
ENDMDL
MODEL 6
REMARK VINA RESULT:    -7.331      4.746      8.429
REMARK INTER + INTRA:          -9.460
REMARK INTER:                  -8.881
REMARK INTRA:                  -0.578
REMARK UNBOUND:                -0.415
REMARK  Name = 
REMARK  4 active torsions:
REMARK  status: ('A' for Active; 'I' for Inactive)
REMARK    1  A    between atoms: C_2  and  C_4
REMARK    2  A    between atoms: C_7  and  C_8
REMARK    3  A    between atoms: C_8  and  N_9
REMARK    4  A    between atoms: C_12  and  C_13
REMARK                            x       y       z     vdW  Elec       q    Type
REMARK                         _______ _______ _______ _____ _____    ______ ____
ROOT
ATOM      1  N   UNL     1      47.813   3.849  16.671  0.00  0.00    +0.000 N 
ATOM      2  C   UNL     1      47.678   4.668  15.530  0.00  0.00    +0.000 A 
ATOM      3  C   UNL     1      46.761   4.305  14.542  0.00  0.00    +0.000 A 
ATOM      4  C   UNL     1      46.605   5.092  13.385  0.00  0.00    +0.000 A 
ATOM      5  C   UNL     1      47.417   6.225  13.280  0.00  0.00    +0.000 A 
ATOM      6  C   UNL     1      48.303   6.519  14.299  0.00  0.00    +0.000 A 
ATOM      7  N   UNL     1      48.450   5.763  15.402  0.00  0.00    +0.000 NA
ATOM      8  H   UNL     1      46.901   3.738  17.106  0.00  0.00    +0.000 HD
ENDROOT
BRANCH   4   9
ATOM      9  C   UNL     1      45.610   4.763  12.335  0.00  0.00    +0.000 A 
ATOM     10  C   UNL     1      45.517   5.497  11.136  0.00  0.00    +0.000 A 
ATOM     11  C   UNL     1      44.597   5.155  10.135  0.00  0.00    +0.000 A 
ATOM     12  C   UNL     1      43.735   4.079  10.318  0.00  0.00    +0.000 A 
ATOM     13  C   UNL     1      43.799   3.358  11.500  0.00  0.00    +0.000 A 
ATOM     14  F   UNL     1      42.968   2.324  11.689  0.00  0.00    +0.000 F 
ATOM     15  C   UNL     1      44.718   3.686  12.494  0.00  0.00    +0.000 A 
ENDBRANCH   4   9
BRANCH   1  16
ATOM     16  C   UNL     1      48.791   4.382  17.615  0.00  0.00    +0.000 C 
BRANCH  16  20
ATOM     17  C   UNL     1      52.352   1.939  17.792  0.00  0.00    +0.000 A 
ATOM     18  C   UNL     1      52.419   3.295  18.133  0.00  0.00    +0.000 A 
ATOM     19  C   UNL     1      51.275   4.096  18.046  0.00  0.00    +0.000 A 
ATOM     20  C   UNL     1      50.055   3.551  17.618  0.00  0.00    +0.000 A 
ATOM     21  C   UNL     1      50.006   2.197  17.253  0.00  0.00    +0.000 A 
ATOM     22  C   UNL     1      51.146   1.398  17.333  0.00  0.00    +0.000 A 
BRANCH  17  24
ATOM     23  N   UNL     1      53.289  -0.256  18.271  0.00  0.00    +0.000 N 
ATOM     24  C   UNL     1      53.529   1.038  17.897  0.00  0.00    +0.000 C 
ATOM     25  O   UNL     1      54.657   1.412  17.613  0.00  0.00    +0.000 OA
ATOM     26  H   UNL     1      54.076  -0.888  18.211  0.00  0.00    +0.000 HD
ATOM     27  H   UNL     1      52.363  -0.658  18.246  0.00  0.00    +0.000 HD
ENDBRANCH  17  24
ENDBRANCH  16  20
ENDBRANCH   1  16
TORSDOF 4
ENDMDL
MODEL 7
REMARK VINA RESULT:    -6.577      4.848      9.106
REMARK INTER + INTRA:          -8.530
REMARK INTER:                  -7.966
REMARK INTRA:                  -0.564
REMARK UNBOUND:                -0.415
REMARK  Name = 
REMARK  4 active torsions:
REMARK  status: ('A' for Active; 'I' for Inactive)
REMARK    1  A    between atoms: C_2  and  C_4
REMARK    2  A    between atoms: C_7  and  C_8
REMARK    3  A    between atoms: C_8  and  N_9
REMARK    4  A    between atoms: C_12  and  C_13
REMARK                            x       y       z     vdW  Elec       q    Type
REMARK                         _______ _______ _______ _____ _____    ______ ____
ROOT
ATOM      1  N   UNL     1      48.514   7.252  13.692  0.00  0.00    +0.000 N 
ATOM      2  C   UNL     1      47.282   7.271  13.006  0.00  0.00    +0.000 A 
ATOM      3  C   UNL     1      46.963   6.207  12.159  0.00  0.00    +0.000 A 
ATOM      4  C   UNL     1      45.747   6.195  11.451  0.00  0.00    +0.000 A 
ATOM      5  C   UNL     1      44.902   7.295  11.630  0.00  0.00    +0.000 A 
ATOM      6  C   UNL     1      45.287   8.311  12.484  0.00  0.00    +0.000 A 
ATOM      7  N   UNL     1      46.451   8.319  13.158  0.00  0.00    +0.000 NA
ATOM      8  H   UNL     1      48.583   6.388  14.223  0.00  0.00    +0.000 HD
ENDROOT
BRANCH   4   9
ATOM      9  C   UNL     1      45.354   5.063  10.577  0.00  0.00    +0.000 A 
ATOM     10  C   UNL     1      44.575   3.988  11.049  0.00  0.00    +0.000 A 
ATOM     11  C   UNL     1      44.179   2.941  10.205  0.00  0.00    +0.000 A 
ATOM     12  C   UNL     1      44.567   2.937   8.869  0.00  0.00    +0.000 A 
ATOM     13  C   UNL     1      45.350   3.976   8.392  0.00  0.00    +0.000 A 
ATOM     14  F   UNL     1      45.735   3.979   7.109  0.00  0.00    +0.000 F 
ATOM     15  C   UNL     1      45.738   5.025   9.223  0.00  0.00    +0.000 A 
ENDBRANCH   4   9
BRANCH   1  16
ATOM     16  C   UNL     1      48.679   8.420  14.553  0.00  0.00    +0.000 C 
BRANCH  16  20
ATOM     17  C   UNL     1      48.265   7.255  18.695  0.00  0.00    +0.000 A 
ATOM     18  C   UNL     1      48.045   8.585  18.319  0.00  0.00    +0.000 A 
ATOM     19  C   UNL     1      48.210   8.972  16.984  0.00  0.00    +0.000 A 
ATOM     20  C   UNL     1      48.595   8.036  16.013  0.00  0.00    +0.000 A 
ATOM     21  C   UNL     1      48.839   6.711  16.406  0.00  0.00    +0.000 A 
ATOM     22  C   UNL     1      48.682   6.324  17.737  0.00  0.00    +0.000 A 
BRANCH  17  24
ATOM     23  N   UNL     1      47.151   5.794  20.292  0.00  0.00    +0.000 N 
ATOM     24  C   UNL     1      48.072   6.786  20.091  0.00  0.00    +0.000 C 
ATOM     25  O   UNL     1      48.740   7.221  21.017  0.00  0.00    +0.000 OA
ATOM     26  H   UNL     1      47.125   5.395  21.221  0.00  0.00    +0.000 HD
ATOM     27  H   UNL     1      46.791   5.236  19.532  0.00  0.00    +0.000 HD
ENDBRANCH  17  24
ENDBRANCH  16  20
ENDBRANCH   1  16
TORSDOF 4
ENDMDL
MODEL 8
REMARK VINA RESULT:    -6.489      4.714      8.470
REMARK INTER + INTRA:          -8.422
REMARK INTER:                  -7.842
REMARK INTRA:                  -0.580
REMARK UNBOUND:                -0.415
REMARK  Name = 
REMARK  4 active torsions:
REMARK  status: ('A' for Active; 'I' for Inactive)
REMARK    1  A    between atoms: C_2  and  C_4
REMARK    2  A    between atoms: C_7  and  C_8
REMARK    3  A    between atoms: C_8  and  N_9
REMARK    4  A    between atoms: C_12  and  C_13
REMARK                            x       y       z     vdW  Elec       q    Type
REMARK                         _______ _______ _______ _____ _____    ______ ____
ROOT
ATOM      1  N   UNL     1      45.365   7.196  10.539  0.00  0.00    +0.000 N 
ATOM      2  C   UNL     1      45.210   5.794  10.531  0.00  0.00    +0.000 A 
ATOM      3  C   UNL     1      45.646   5.072   9.418  0.00  0.00    +0.000 A 
ATOM      4  C   UNL     1      45.499   3.672   9.370  0.00  0.00    +0.000 A 
ATOM      5  C   UNL     1      44.890   3.064  10.472  0.00  0.00    +0.000 A 
ATOM      6  C   UNL     1      44.483   3.846  11.536  0.00  0.00    +0.000 A 
ATOM      7  N   UNL     1      44.624   5.183  11.577  0.00  0.00    +0.000 NA
ATOM      8  H   UNL     1      46.343   7.419  10.374  0.00  0.00    +0.000 HD
ENDROOT
BRANCH   4   9
ATOM      9  C   UNL     1      45.990   2.866   8.225  0.00  0.00    +0.000 A 
ATOM     10  C   UNL     1      46.316   3.449   6.984  0.00  0.00    +0.000 A 
ATOM     11  C   UNL     1      46.813   2.683   5.921  0.00  0.00    +0.000 A 
ATOM     12  C   UNL     1      46.981   1.310   6.069  0.00  0.00    +0.000 A 
ATOM     13  C   UNL     1      46.646   0.717   7.276  0.00  0.00    +0.000 A 
ATOM     14  F   UNL     1      46.797  -0.606   7.428  0.00  0.00    +0.000 F 
ATOM     15  C   UNL     1      46.162   1.474   8.340  0.00  0.00    +0.000 A 
ENDBRANCH   4   9
BRANCH   1  16
ATOM     16  C   UNL     1      44.885   7.793  11.782  0.00  0.00    +0.000 C 
BRANCH  16  20
ATOM     17  C   UNL     1      48.226   9.644  13.806  0.00  0.00    +0.000 A 
ATOM     18  C   UNL     1      47.829   8.348  14.156  0.00  0.00    +0.000 A 
ATOM     19  C   UNL     1      46.727   7.758  13.525  0.00  0.00    +0.000 A 
ATOM     20  C   UNL     1      46.013   8.456  12.540  0.00  0.00    +0.000 A 
ATOM     21  C   UNL     1      46.404   9.764  12.216  0.00  0.00    +0.000 A 
ATOM     22  C   UNL     1      47.497  10.357  12.847  0.00  0.00    +0.000 A 
BRANCH  17  24
ATOM     23  N   UNL     1      50.447   9.495  14.790  0.00  0.00    +0.000 N 
ATOM     24  C   UNL     1      49.406  10.303  14.421  0.00  0.00    +0.000 C 
ATOM     25  O   UNL     1      49.476  11.516  14.547  0.00  0.00    +0.000 OA
ATOM     26  H   UNL     1      51.292   9.967  15.084  0.00  0.00    +0.000 HD
ATOM     27  H   UNL     1      50.532   8.546  14.456  0.00  0.00    +0.000 HD
ENDBRANCH  17  24
ENDBRANCH  16  20
ENDBRANCH   1  16
TORSDOF 4
ENDMDL
MODEL 9
REMARK VINA RESULT:    -6.445      2.758      4.195
REMARK INTER + INTRA:          -8.367
REMARK INTER:                  -7.873
REMARK INTRA:                  -0.495
REMARK UNBOUND:                -0.415
REMARK  Name = 
REMARK  4 active torsions:
REMARK  status: ('A' for Active; 'I' for Inactive)
REMARK    1  A    between atoms: C_2  and  C_4
REMARK    2  A    between atoms: C_7  and  C_8
REMARK    3  A    between atoms: C_8  and  N_9
REMARK    4  A    between atoms: C_12  and  C_13
REMARK                            x       y       z     vdW  Elec       q    Type
REMARK                         _______ _______ _______ _____ _____    ______ ____
ROOT
ATOM      1  N   UNL     1      46.943   5.288  14.450  0.00  0.00    +0.000 N 
ATOM      2  C   UNL     1      47.460   4.677  15.612  0.00  0.00    +0.000 A 
ATOM      3  C   UNL     1      48.704   5.087  16.094  0.00  0.00    +0.000 A 
ATOM      4  C   UNL     1      49.257   4.494  17.245  0.00  0.00    +0.000 A 
ATOM      5  C   UNL     1      48.508   3.482  17.854  0.00  0.00    +0.000 A 
ATOM      6  C   UNL     1      47.284   3.130  17.317  0.00  0.00    +0.000 A 
ATOM      7  N   UNL     1      46.761   3.699  16.216  0.00  0.00    +0.000 NA
ATOM      8  H   UNL     1      46.917   6.294  14.591  0.00  0.00    +0.000 HD
ENDROOT
BRANCH   4   9
ATOM      9  C   UNL     1      50.555   4.932  17.813  0.00  0.00    +0.000 A 
ATOM     10  C   UNL     1      51.375   5.878  17.165  0.00  0.00    +0.000 A 
ATOM     11  C   UNL     1      52.583   6.312  17.728  0.00  0.00    +0.000 A 
ATOM     12  C   UNL     1      53.008   5.797  18.949  0.00  0.00    +0.000 A 
ATOM     13  C   UNL     1      52.225   4.851  19.590  0.00  0.00    +0.000 A 
ATOM     14  F   UNL     1      52.628   4.343  20.762  0.00  0.00    +0.000 F 
ATOM     15  C   UNL     1      51.018   4.423  19.041  0.00  0.00    +0.000 A 
ENDBRANCH   4   9
BRANCH   1  16
ATOM     16  C   UNL     1      45.625   4.766  14.097  0.00  0.00    +0.000 C 
BRANCH  16  20
ATOM     17  C   UNL     1      45.369   4.315   9.806  0.00  0.00    +0.000 A 
ATOM     18  C   UNL     1      45.700   5.558  10.358  0.00  0.00    +0.000 A 
ATOM     19  C   UNL     1      45.752   5.715  11.748  0.00  0.00    +0.000 A 
ATOM     20  C   UNL     1      45.475   4.635  12.598  0.00  0.00    +0.000 A 
ATOM     21  C   UNL     1      45.117   3.401  12.034  0.00  0.00    +0.000 A 
ATOM     22  C   UNL     1      45.058   3.242  10.649  0.00  0.00    +0.000 A 
BRANCH  17  24
ATOM     23  N   UNL     1      44.245   3.418   7.842  0.00  0.00    +0.000 N 
ATOM     24  C   UNL     1      45.331   4.087   8.339  0.00  0.00    +0.000 C 
ATOM     25  O   UNL     1      46.198   4.519   7.594  0.00  0.00    +0.000 OA
ATOM     26  H   UNL     1      44.167   3.385   6.834  0.00  0.00    +0.000 HD
ATOM     27  H   UNL     1      43.401   3.293   8.381  0.00  0.00    +0.000 HD
ENDBRANCH  17  24
ENDBRANCH  16  20
ENDBRANCH   1  16
TORSDOF 4
ENDMDL
