MODEL 1
REMARK VINA RESULT:    -9.246      0.000      0.000
REMARK INTER + INTRA:         -14.169
REMARK INTER:                 -13.299
REMARK INTRA:                  -0.870
REMARK UNBOUND:                -0.870
REMARK  Name = 
REMARK  9 active torsions:
REMARK  status: ('A' for Active; 'I' for Inactive)
REMARK    1  A    between atoms: C_1  and  C_2
REMARK    2  A    between atoms: C_2  and  N_3
REMARK    3  A    between atoms: C_2  and  C_19
REMARK    4  A    between atoms: N_3  and  C_4
REMARK    5  A    between atoms: C_7  and  C_8
REMARK    6  A    between atoms: C_8  and  N_9
REMARK    7  A    between atoms: N_9  and  C_10
REMARK    8  A    between atoms: C_13  and  N_14
REMARK    9  A    between atoms: C_19  and  C_21
REMARK                            x       y       z     vdW  Elec       q    Type
REMARK                         _______ _______ _______ _____ _____    ______ ____
ROOT
ATOM      1  C   UNL     1      45.575   6.370  12.624  0.00  0.00    +0.000 A 
ATOM      2  C   UNL     1      45.642   6.373  11.231  0.00  0.00    +0.000 A 
ATOM      3  C   UNL     1      45.260   5.250  10.492  0.00  0.00    +0.000 A 
ATOM      4  C   UNL     1      44.868   4.098  11.166  0.00  0.00    +0.000 A 
ATOM      5  N   UNL     1      44.834   4.037  12.521  0.00  0.00    +0.000 NA
ATOM      6  C   UNL     1      45.174   5.166  13.201  0.00  0.00    +0.000 A 
ENDROOT
BRANCH   1   7
ATOM      7  N   UNL     1      45.951   7.501  13.329  0.00  0.00    +0.000 N 
ATOM      8  H   UNL     1      45.309   7.833  14.047  0.00  0.00    +0.000 HD
BRANCH   7  10
ATOM      9  C   UNL     1      47.982   8.515  12.340  0.00  0.00    +0.000 C 
ATOM     10  C   UNL     1      47.351   7.874  13.577  0.00  0.00    +0.000 C 
BRANCH  10  11
ATOM     11  C   UNL     1      48.160   6.613  13.955  0.00  0.00    +0.000 C 
ATOM     12  O   UNL     1      48.702   5.947  13.057  0.00  0.00    +0.000 OA
BRANCH  11  13
ATOM     13  C   UNL     1      48.440   6.293  15.366  0.00  0.00    +0.000 A 
ATOM     14  C   UNL     1      49.079   7.220  16.176  0.00  0.00    +0.000 A 
ATOM     15  S   UNL     1      49.194   6.735  17.809  0.00  0.00    +0.000 S 
ATOM     16  C   UNL     1      48.425   5.254  17.478  0.00  0.00    +0.000 A 
ATOM     17  N   UNL     1      48.163   4.362  18.470  0.00  0.00    +0.000 NA
ATOM     18  C   UNL     1      47.532   3.305  18.082  0.00  0.00    +0.000 A 
ATOM     19  N   UNL     1      47.169   3.043  16.786  0.00  0.00    +0.000 N 
ATOM     20  C   UNL     1      47.609   3.811  15.741  0.00  0.00    +0.000 A 
ATOM     21  O   UNL     1      47.594   3.384  14.592  0.00  0.00    +0.000 OA
ATOM     22  C   UNL     1      48.145   5.105  16.130  0.00  0.00    +0.000 A 
ATOM     23  H   UNL     1      46.764   2.152  16.539  0.00  0.00    +0.000 HD
ENDBRANCH  11  13
ENDBRANCH  10  11
ENDBRANCH   7  10
ENDBRANCH   1   7
BRANCH   4  24
ATOM     24  C   UNL     1      44.567   2.830  10.380  0.00  0.00    +0.000 C 
BRANCH  24  25
ATOM     25  N   UNL     1      44.025   3.026   9.021  0.00  0.00    +0.000 NA
ATOM     26  H   UNL     1      43.872   4.032   8.920  0.00  0.00    +0.000 HD
BRANCH  25  27
ATOM     27  C   UNL     1      44.938   2.594   7.950  0.00  0.00    +0.000 C 
ATOM     28  C   UNL     1      45.712   3.771   7.339  0.00  0.00    +0.000 C 
ATOM     29  C   UNL     1      46.707   3.297   6.287  0.00  0.00    +0.000 C 
ATOM     30  C   UNL     1      47.678   2.271   6.868  0.00  0.00    +0.000 C 
ATOM     31  C   UNL     1      46.922   1.081   7.466  0.00  0.00    +0.000 C 
ATOM     32  C   UNL     1      45.906   1.537   8.517  0.00  0.00    +0.000 C 
BRANCH  30  33
ATOM     33  N   UNL     1      48.596   1.833   5.818  0.00  0.00    +0.000 NA
ATOM     34  H   UNL     1      48.070   1.422   5.048  0.00  0.00    +0.000 HD
ATOM     35  H   UNL     1      49.199   1.093   6.177  0.00  0.00    +0.000 HD
ENDBRANCH  30  33
ENDBRANCH  25  27
ENDBRANCH  24  25
ENDBRANCH   4  24
TORSDOF 8
ENDMDL
MODEL 2
REMARK VINA RESULT:    -9.050      2.157      2.782
REMARK INTER + INTRA:         -13.888
REMARK INTER:                 -13.163
REMARK INTRA:                  -0.724
REMARK UNBOUND:                -0.870
REMARK  Name = 
REMARK  9 active torsions:
REMARK  status: ('A' for Active; 'I' for Inactive)
REMARK    1  A    between atoms: C_1  and  C_2
REMARK    2  A    between atoms: C_2  and  N_3
REMARK    3  A    between atoms: C_2  and  C_19
REMARK    4  A    between atoms: N_3  and  C_4
REMARK    5  A    between atoms: C_7  and  C_8
REMARK    6  A    between atoms: C_8  and  N_9
REMARK    7  A    between atoms: N_9  and  C_10
REMARK    8  A    between atoms: C_13  and  N_14
REMARK    9  A    between atoms: C_19  and  C_21
REMARK                            x       y       z     vdW  Elec       q    Type
REMARK                         _______ _______ _______ _____ _____    ______ ____
ROOT
ATOM      1  C   UNL     1      46.501   4.094  13.585  0.00  0.00    +0.000 A 
ATOM      2  C   UNL     1      46.427   5.326  12.936  0.00  0.00    +0.000 A 
ATOM      3  C   UNL     1      45.720   5.464  11.739  0.00  0.00    +0.000 A 
ATOM      4  C   UNL     1      45.139   4.339  11.163  0.00  0.00    +0.000 A 
ATOM      5  N   UNL     1      45.227   3.113  11.737  0.00  0.00    +0.000 NA
ATOM      6  C   UNL     1      45.889   3.031  12.923  0.00  0.00    +0.000 A 
ENDROOT
BRANCH   1   7
ATOM      7  N   UNL     1      47.201   3.990  14.776  0.00  0.00    +0.000 N 
ATOM      8  H   UNL     1      47.971   3.325  14.804  0.00  0.00    +0.000 HD
BRANCH   7  10
ATOM      9  C   UNL     1      48.444   6.072  15.278  0.00  0.00    +0.000 C 
ATOM     10  C   UNL     1      47.351   5.100  15.727  0.00  0.00    +0.000 C 
BRANCH  10  11
ATOM     11  C   UNL     1      47.722   4.540  17.119  0.00  0.00    +0.000 C 
ATOM     12  O   UNL     1      46.834   4.037  17.828  0.00  0.00    +0.000 OA
BRANCH  11  13
ATOM     13  C   UNL     1      49.131   4.438  17.539  0.00  0.00    +0.000 A 
ATOM     14  C   UNL     1      49.736   5.495  18.203  0.00  0.00    +0.000 A 
ATOM     15  S   UNL     1      51.321   5.148  18.735  0.00  0.00    +0.000 S 
ATOM     16  C   UNL     1      51.261   3.587  18.063  0.00  0.00    +0.000 A 
ATOM     17  N   UNL     1      52.302   2.723  18.201  0.00  0.00    +0.000 NA
ATOM     18  C   UNL     1      52.099   1.558  17.682  0.00  0.00    +0.000 A 
ATOM     19  N   UNL     1      50.963   1.189  17.011  0.00  0.00    +0.000 N 
ATOM     20  C   UNL     1      49.996   2.097  16.668  0.00  0.00    +0.000 A 
ATOM     21  O   UNL     1      49.187   1.854  15.780  0.00  0.00    +0.000 OA
ATOM     22  C   UNL     1      50.075   3.358  17.386  0.00  0.00    +0.000 A 
ATOM     23  H   UNL     1      50.911   0.293  16.549  0.00  0.00    +0.000 HD
ENDBRANCH  11  13
ENDBRANCH  10  11
ENDBRANCH   7  10
ENDBRANCH   1   7
BRANCH   4  24
ATOM     24  C   UNL     1      44.471   4.449   9.799  0.00  0.00    +0.000 C 
BRANCH  24  25
ATOM     25  N   UNL     1      44.077   3.174   9.167  0.00  0.00    +0.000 NA
ATOM     26  H   UNL     1      43.142   3.327   8.783  0.00  0.00    +0.000 HD
BRANCH  25  27
ATOM     27  C   UNL     1      44.961   2.760   8.066  0.00  0.00    +0.000 C 
ATOM     28  C   UNL     1      45.846   3.912   7.570  0.00  0.00    +0.000 C 
ATOM     29  C   UNL     1      46.808   3.448   6.483  0.00  0.00    +0.000 C 
ATOM     30  C   UNL     1      47.674   2.288   6.971  0.00  0.00    +0.000 C 
ATOM     31  C   UNL     1      46.805   1.122   7.453  0.00  0.00    +0.000 C 
ATOM     32  C   UNL     1      45.821   1.572   8.537  0.00  0.00    +0.000 C 
BRANCH  30  33
ATOM     33  N   UNL     1      48.562   1.865   5.890  0.00  0.00    +0.000 NA
ATOM     34  H   UNL     1      48.077   1.209   5.279  0.00  0.00    +0.000 HD
ATOM     35  H   UNL     1      49.357   1.357   6.278  0.00  0.00    +0.000 HD
ENDBRANCH  30  33
ENDBRANCH  25  27
ENDBRANCH  24  25
ENDBRANCH   4  24
TORSDOF 8
ENDMDL
MODEL 3
REMARK VINA RESULT:    -8.816      0.768      1.368
REMARK INTER + INTRA:         -13.552
REMARK INTER:                 -12.854
REMARK INTRA:                  -0.698
REMARK UNBOUND:                -0.870
REMARK  Name = 
REMARK  9 active torsions:
REMARK  status: ('A' for Active; 'I' for Inactive)
REMARK    1  A    between atoms: C_1  and  C_2
REMARK    2  A    between atoms: C_2  and  N_3
REMARK    3  A    between atoms: C_2  and  C_19
REMARK    4  A    between atoms: N_3  and  C_4
REMARK    5  A    between atoms: C_7  and  C_8
REMARK    6  A    between atoms: C_8  and  N_9
REMARK    7  A    between atoms: N_9  and  C_10
REMARK    8  A    between atoms: C_13  and  N_14
REMARK    9  A    between atoms: C_19  and  C_21
REMARK                            x       y       z     vdW  Elec       q    Type
REMARK                         _______ _______ _______ _____ _____    ______ ____
ROOT
ATOM      1  C   UNL     1      45.478   6.457  12.475  0.00  0.00    +0.000 A 
ATOM      2  C   UNL     1      44.828   5.340  12.998  0.00  0.00    +0.000 A 
ATOM      3  C   UNL     1      44.405   4.300  12.165  0.00  0.00    +0.000 A 
ATOM      4  C   UNL     1      44.584   4.420  10.790  0.00  0.00    +0.000 A 
ATOM      5  N   UNL     1      45.169   5.510  10.236  0.00  0.00    +0.000 NA
ATOM      6  C   UNL     1      45.603   6.480  11.086  0.00  0.00    +0.000 A 
ENDROOT
BRANCH   1   7
ATOM      7  N   UNL     1      45.894   7.466  13.326  0.00  0.00    +0.000 N 
ATOM      8  H   UNL     1      45.325   7.638  14.153  0.00  0.00    +0.000 HD
BRANCH   7  10
ATOM      9  C   UNL     1      47.858   8.480  12.209  0.00  0.00    +0.000 C 
ATOM     10  C   UNL     1      47.301   7.859  13.491  0.00  0.00    +0.000 C 
BRANCH  10  11
ATOM     11  C   UNL     1      48.144   6.614  13.850  0.00  0.00    +0.000 C 
ATOM     12  O   UNL     1      48.658   5.944  12.938  0.00  0.00    +0.000 OA
BRANCH  11  13
ATOM     13  C   UNL     1      48.487   6.316  15.252  0.00  0.00    +0.000 A 
ATOM     14  C   UNL     1      49.259   7.207  15.984  0.00  0.00    +0.000 A 
ATOM     15  S   UNL     1      49.438   6.768  17.624  0.00  0.00    +0.000 S 
ATOM     16  C   UNL     1      48.520   5.353  17.399  0.00  0.00    +0.000 A 
ATOM     17  N   UNL     1      48.245   4.521  18.439  0.00  0.00    +0.000 NA
ATOM     18  C   UNL     1      47.499   3.514  18.133  0.00  0.00    +0.000 A 
ATOM     19  N   UNL     1      47.029   3.244  16.874  0.00  0.00    +0.000 N 
ATOM     20  C   UNL     1      47.465   3.934  15.774  0.00  0.00    +0.000 A 
ATOM     21  O   UNL     1      47.336   3.473  14.646  0.00  0.00    +0.000 OA
ATOM     22  C   UNL     1      48.139   5.185  16.078  0.00  0.00    +0.000 A 
ATOM     23  H   UNL     1      46.530   2.386  16.687  0.00  0.00    +0.000 HD
ENDBRANCH  11  13
ENDBRANCH  10  11
ENDBRANCH   7  10
ENDBRANCH   1   7
BRANCH   4  24
ATOM     24  C   UNL     1      44.020   3.354   9.861  0.00  0.00    +0.000 C 
BRANCH  24  25
ATOM     25  N   UNL     1      44.864   2.160   9.660  0.00  0.00    +0.000 NA
ATOM     26  H   UNL     1      44.250   1.443   9.266  0.00  0.00    +0.000 HD
BRANCH  25  27
ATOM     27  C   UNL     1      45.978   2.371   8.721  0.00  0.00    +0.000 C 
ATOM     28  C   UNL     1      46.440   1.061   8.067  0.00  0.00    +0.000 C 
ATOM     29  C   UNL     1      47.541   1.308   7.043  0.00  0.00    +0.000 C 
ATOM     30  C   UNL     1      47.087   2.301   5.974  0.00  0.00    +0.000 C 
ATOM     31  C   UNL     1      46.639   3.621   6.610  0.00  0.00    +0.000 C 
ATOM     32  C   UNL     1      45.542   3.393   7.653  0.00  0.00    +0.000 C 
BRANCH  30  33
ATOM     33  N   UNL     1      48.181   2.521   5.030  0.00  0.00    +0.000 NA
ATOM     34  H   UNL     1      48.984   2.918   5.516  0.00  0.00    +0.000 HD
ATOM     35  H   UNL     1      47.900   3.213   4.335  0.00  0.00    +0.000 HD
ENDBRANCH  30  33
ENDBRANCH  25  27
ENDBRANCH  24  25
ENDBRANCH   4  24
TORSDOF 8
ENDMDL
MODEL 4
REMARK VINA RESULT:    -8.474      1.669      2.082
REMARK INTER + INTRA:         -13.059
REMARK INTER:                 -11.992
REMARK INTRA:                  -1.067
REMARK UNBOUND:                -0.870
REMARK  Name = 
REMARK  9 active torsions:
REMARK  status: ('A' for Active; 'I' for Inactive)
REMARK    1  A    between atoms: C_1  and  C_2
REMARK    2  A    between atoms: C_2  and  N_3
REMARK    3  A    between atoms: C_2  and  C_19
REMARK    4  A    between atoms: N_3  and  C_4
REMARK    5  A    between atoms: C_7  and  C_8
REMARK    6  A    between atoms: C_8  and  N_9
REMARK    7  A    between atoms: N_9  and  C_10
REMARK    8  A    between atoms: C_13  and  N_14
REMARK    9  A    between atoms: C_19  and  C_21
REMARK                            x       y       z     vdW  Elec       q    Type
REMARK                         _______ _______ _______ _____ _____    ______ ____
ROOT
ATOM      1  C   UNL     1      46.201   5.607  13.045  0.00  0.00    +0.000 A 
ATOM      2  C   UNL     1      45.836   6.220  11.846  0.00  0.00    +0.000 A 
ATOM      3  C   UNL     1      45.099   5.528  10.882  0.00  0.00    +0.000 A 
ATOM      4  C   UNL     1      44.783   4.191  11.102  0.00  0.00    +0.000 A 
ATOM      5  N   UNL     1      45.158   3.543  12.233  0.00  0.00    +0.000 NA
ATOM      6  C   UNL     1      45.839   4.266  13.164  0.00  0.00    +0.000 A 
ENDROOT
BRANCH   1   7
ATOM      7  N   UNL     1      46.922   6.321  13.986  0.00  0.00    +0.000 N 
ATOM      8  H   UNL     1      47.119   5.855  14.870  0.00  0.00    +0.000 HD
BRANCH   7  10
ATOM      9  C   UNL     1      49.017   6.792  12.752  0.00  0.00    +0.000 C 
ATOM     10  C   UNL     1      47.906   7.357  13.638  0.00  0.00    +0.000 C 
BRANCH  10  11
ATOM     11  C   UNL     1      48.538   7.922  14.931  0.00  0.00    +0.000 C 
ATOM     12  O   UNL     1      47.962   8.842  15.536  0.00  0.00    +0.000 OA
BRANCH  11  13
ATOM     13  C   UNL     1      49.710   7.273  15.542  0.00  0.00    +0.000 A 
ATOM     14  C   UNL     1      50.984   7.766  15.300  0.00  0.00    +0.000 A 
ATOM     15  S   UNL     1      52.204   6.980  16.199  0.00  0.00    +0.000 S 
ATOM     16  C   UNL     1      51.072   5.930  16.914  0.00  0.00    +0.000 A 
ATOM     17  N   UNL     1      51.455   5.011  17.840  0.00  0.00    +0.000 NA
ATOM     18  C   UNL     1      50.485   4.315  18.332  0.00  0.00    +0.000 A 
ATOM     19  N   UNL     1      49.171   4.433  17.960  0.00  0.00    +0.000 N 
ATOM     20  C   UNL     1      48.788   5.188  16.883  0.00  0.00    +0.000 A 
ATOM     21  O   UNL     1      47.705   5.010  16.339  0.00  0.00    +0.000 OA
ATOM     22  C   UNL     1      49.793   6.133  16.424  0.00  0.00    +0.000 A 
ATOM     23  H   UNL     1      48.479   3.791  18.317  0.00  0.00    +0.000 HD
ENDBRANCH  11  13
ENDBRANCH  10  11
ENDBRANCH   7  10
ENDBRANCH   1   7
BRANCH   4  24
ATOM     24  C   UNL     1      44.088   3.390  10.010  0.00  0.00    +0.000 C 
BRANCH  24  25
ATOM     25  N   UNL     1      44.754   2.136   9.605  0.00  0.00    +0.000 NA
ATOM     26  H   UNL     1      44.052   1.597   9.093  0.00  0.00    +0.000 HD
BRANCH  25  27
ATOM     27  C   UNL     1      45.910   2.339   8.717  0.00  0.00    +0.000 C 
ATOM     28  C   UNL     1      46.348   1.037   8.031  0.00  0.00    +0.000 C 
ATOM     29  C   UNL     1      47.496   1.279   7.058  0.00  0.00    +0.000 C 
ATOM     30  C   UNL     1      47.121   2.328   6.012  0.00  0.00    +0.000 C 
ATOM     31  C   UNL     1      46.699   3.640   6.681  0.00  0.00    +0.000 C 
ATOM     32  C   UNL     1      45.554   3.416   7.674  0.00  0.00    +0.000 C 
BRANCH  30  33
ATOM     33  N   UNL     1      48.258   2.539   5.119  0.00  0.00    +0.000 NA
ATOM     34  H   UNL     1      48.764   3.380   5.395  0.00  0.00    +0.000 HD
ATOM     35  H   UNL     1      47.922   2.709   4.171  0.00  0.00    +0.000 HD
ENDBRANCH  30  33
ENDBRANCH  25  27
ENDBRANCH  24  25
ENDBRANCH   4  24
TORSDOF 8
ENDMDL
MODEL 5
REMARK VINA RESULT:    -8.267      1.773      2.060
REMARK INTER + INTRA:         -12.762
REMARK INTER:                 -11.933
REMARK INTRA:                  -0.830
REMARK UNBOUND:                -0.870
REMARK  Name = 
REMARK  9 active torsions:
REMARK  status: ('A' for Active; 'I' for Inactive)
REMARK    1  A    between atoms: C_1  and  C_2
REMARK    2  A    between atoms: C_2  and  N_3
REMARK    3  A    between atoms: C_2  and  C_19
REMARK    4  A    between atoms: N_3  and  C_4
REMARK    5  A    between atoms: C_7  and  C_8
REMARK    6  A    between atoms: C_8  and  N_9
REMARK    7  A    between atoms: N_9  and  C_10
REMARK    8  A    between atoms: C_13  and  N_14
REMARK    9  A    between atoms: C_19  and  C_21
REMARK                            x       y       z     vdW  Elec       q    Type
REMARK                         _______ _______ _______ _____ _____    ______ ____
ROOT
ATOM      1  C   UNL     1      46.560   5.341  13.590  0.00  0.00    +0.000 A 
ATOM      2  C   UNL     1      46.427   3.968  13.385  0.00  0.00    +0.000 A 
ATOM      3  C   UNL     1      45.567   3.469  12.402  0.00  0.00    +0.000 A 
ATOM      4  C   UNL     1      44.792   4.360  11.667  0.00  0.00    +0.000 A 
ATOM      5  N   UNL     1      44.856   5.700  11.866  0.00  0.00    +0.000 NA
ATOM      6  C   UNL     1      45.736   6.145  12.804  0.00  0.00    +0.000 A 
ENDROOT
BRANCH   1   7
ATOM      7  N   UNL     1      47.427   5.806  14.564  0.00  0.00    +0.000 N 
ATOM      8  H   UNL     1      47.764   5.128  15.246  0.00  0.00    +0.000 HD
BRANCH   7  10
ATOM      9  C   UNL     1      49.015   6.867  12.988  0.00  0.00    +0.000 C 
ATOM     10  C   UNL     1      48.344   6.936  14.360  0.00  0.00    +0.000 C 
BRANCH  10  11
ATOM     11  C   UNL     1      49.438   6.916  15.453  0.00  0.00    +0.000 C 
ATOM     12  O   UNL     1      50.631   7.015  15.120  0.00  0.00    +0.000 OA
BRANCH  11  13
ATOM     13  C   UNL     1      49.077   6.955  16.881  0.00  0.00    +0.000 A 
ATOM     14  C   UNL     1      48.587   8.125  17.442  0.00  0.00    +0.000 A 
ATOM     15  S   UNL     1      48.091   7.948  19.066  0.00  0.00    +0.000 S 
ATOM     16  C   UNL     1      48.549   6.310  19.081  0.00  0.00    +0.000 A 
ATOM     17  N   UNL     1      48.350   5.535  20.181  0.00  0.00    +0.000 NA
ATOM     18  C   UNL     1      48.701   4.301  20.034  0.00  0.00    +0.000 A 
ATOM     19  N   UNL     1      49.262   3.779  18.898  0.00  0.00    +0.000 N 
ATOM     20  C   UNL     1      49.674   4.574  17.862  0.00  0.00    +0.000 A 
ATOM     21  O   UNL     1      50.483   4.167  17.035  0.00  0.00    +0.000 OA
ATOM     22  C   UNL     1      49.132   5.922  17.887  0.00  0.00    +0.000 A 
ATOM     23  H   UNL     1      49.600   2.828  18.886  0.00  0.00    +0.000 HD
ENDBRANCH  11  13
ENDBRANCH  10  11
ENDBRANCH   7  10
ENDBRANCH   1   7
BRANCH   4  24
ATOM     24  C   UNL     1      43.763   3.827  10.680  0.00  0.00    +0.000 C 
BRANCH  24  25
ATOM     25  N   UNL     1      43.811   4.404   9.322  0.00  0.00    +0.000 NA
ATOM     26  H   UNL     1      44.244   5.325   9.421  0.00  0.00    +0.000 HD
BRANCH  25  27
ATOM     27  C   UNL     1      44.616   3.620   8.372  0.00  0.00    +0.000 C 
ATOM     28  C   UNL     1      45.900   4.354   7.959  0.00  0.00    +0.000 C 
ATOM     29  C   UNL     1      46.759   3.498   7.036  0.00  0.00    +0.000 C 
ATOM     30  C   UNL     1      47.102   2.159   7.687  0.00  0.00    +0.000 C 
ATOM     31  C   UNL     1      45.831   1.405   8.090  0.00  0.00    +0.000 C 
ATOM     32  C   UNL     1      44.946   2.255   9.007  0.00  0.00    +0.000 C 
BRANCH  30  33
ATOM     33  N   UNL     1      47.907   1.368   6.759  0.00  0.00    +0.000 NA
ATOM     34  H   UNL     1      47.635   0.387   6.814  0.00  0.00    +0.000 HD
ATOM     35  H   UNL     1      48.887   1.407   7.035  0.00  0.00    +0.000 HD
ENDBRANCH  30  33
ENDBRANCH  25  27
ENDBRANCH  24  25
ENDBRANCH   4  24
TORSDOF 8
ENDMDL
MODEL 6
REMARK VINA RESULT:    -8.239      1.817      3.637
REMARK INTER + INTRA:         -12.722
REMARK INTER:                 -11.642
REMARK INTRA:                  -1.080
REMARK UNBOUND:                -0.870
REMARK  Name = 
REMARK  9 active torsions:
REMARK  status: ('A' for Active; 'I' for Inactive)
REMARK    1  A    between atoms: C_1  and  C_2
REMARK    2  A    between atoms: C_2  and  N_3
REMARK    3  A    between atoms: C_2  and  C_19
REMARK    4  A    between atoms: N_3  and  C_4
REMARK    5  A    between atoms: C_7  and  C_8
REMARK    6  A    between atoms: C_8  and  N_9
REMARK    7  A    between atoms: N_9  and  C_10
REMARK    8  A    between atoms: C_13  and  N_14
REMARK    9  A    between atoms: C_19  and  C_21
REMARK                            x       y       z     vdW  Elec       q    Type
REMARK                         _______ _______ _______ _____ _____    ______ ____
ROOT
ATOM      1  C   UNL     1      46.158   5.022  13.751  0.00  0.00    +0.000 A 
ATOM      2  C   UNL     1      46.242   3.691  13.343  0.00  0.00    +0.000 A 
ATOM      3  C   UNL     1      45.645   3.267  12.153  0.00  0.00    +0.000 A 
ATOM      4  C   UNL     1      44.907   4.177  11.404  0.00  0.00    +0.000 A 
ATOM      5  N   UNL     1      44.760   5.470  11.789  0.00  0.00    +0.000 NA
ATOM      6  C   UNL     1      45.392   5.851  12.932  0.00  0.00    +0.000 A 
ENDROOT
BRANCH   1   7
ATOM      7  N   UNL     1      46.768   5.416  14.930  0.00  0.00    +0.000 N 
ATOM      8  H   UNL     1      46.241   6.040  15.538  0.00  0.00    +0.000 HD
BRANCH   7  10
ATOM      9  C   UNL     1      47.113   3.862  16.827  0.00  0.00    +0.000 C 
ATOM     10  C   UNL     1      47.754   4.594  15.646  0.00  0.00    +0.000 C 
BRANCH  10  11
ATOM     11  C   UNL     1      48.891   5.497  16.175  0.00  0.00    +0.000 C 
ATOM     12  O   UNL     1      49.907   4.972  16.660  0.00  0.00    +0.000 OA
BRANCH  11  13
ATOM     13  C   UNL     1      48.860   6.953  15.956  0.00  0.00    +0.000 A 
ATOM     14  C   UNL     1      48.555   7.809  17.004  0.00  0.00    +0.000 A 
ATOM     15  S   UNL     1      48.703   9.461  16.603  0.00  0.00    +0.000 S 
ATOM     16  C   UNL     1      49.145   9.087  15.004  0.00  0.00    +0.000 A 
ATOM     17  N   UNL     1      49.462  10.066  14.115  0.00  0.00    +0.000 NA
ATOM     18  C   UNL     1      49.825   9.634  12.954  0.00  0.00    +0.000 A 
ATOM     19  N   UNL     1      49.869   8.314  12.590  0.00  0.00    +0.000 N 
ATOM     20  C   UNL     1      49.350   7.326  13.384  0.00  0.00    +0.000 A 
ATOM     21  O   UNL     1      49.062   6.228  12.921  0.00  0.00    +0.000 OA
ATOM     22  C   UNL     1      49.115   7.724  14.762  0.00  0.00    +0.000 A 
ATOM     23  H   UNL     1      50.070   8.053  11.636  0.00  0.00    +0.000 HD
ENDBRANCH  11  13
ENDBRANCH  10  11
ENDBRANCH   7  10
ENDBRANCH   1   7
BRANCH   4  24
ATOM     24  C   UNL     1      44.150   3.702  10.172  0.00  0.00    +0.000 C 
BRANCH  24  25
ATOM     25  N   UNL     1      44.545   2.383   9.639  0.00  0.00    +0.000 NA
ATOM     26  H   UNL     1      43.776   2.080   9.036  0.00  0.00    +0.000 HD
BRANCH  25  27
ATOM     27  C   UNL     1      45.774   2.414   8.830  0.00  0.00    +0.000 C 
ATOM     28  C   UNL     1      46.074   1.054   8.182  0.00  0.00    +0.000 C 
ATOM     29  C   UNL     1      47.306   1.124   7.287  0.00  0.00    +0.000 C 
ATOM     30  C   UNL     1      47.148   2.198   6.213  0.00  0.00    +0.000 C 
ATOM     31  C   UNL     1      46.865   3.565   6.845  0.00  0.00    +0.000 C 
ATOM     32  C   UNL     1      45.638   3.513   7.759  0.00  0.00    +0.000 C 
BRANCH  30  33
ATOM     33  N   UNL     1      48.359   2.241   5.397  0.00  0.00    +0.000 NA
ATOM     34  H   UNL     1      48.132   2.557   4.455  0.00  0.00    +0.000 HD
ATOM     35  H   UNL     1      48.738   1.299   5.296  0.00  0.00    +0.000 HD
ENDBRANCH  30  33
ENDBRANCH  25  27
ENDBRANCH  24  25
ENDBRANCH   4  24
TORSDOF 8
ENDMDL
MODEL 7
REMARK VINA RESULT:    -8.147      2.781      4.104
REMARK INTER + INTRA:         -12.589
REMARK INTER:                 -11.430
REMARK INTRA:                  -1.160
REMARK UNBOUND:                -0.870
REMARK  Name = 
REMARK  9 active torsions:
REMARK  status: ('A' for Active; 'I' for Inactive)
REMARK    1  A    between atoms: C_1  and  C_2
REMARK    2  A    between atoms: C_2  and  N_3
REMARK    3  A    between atoms: C_2  and  C_19
REMARK    4  A    between atoms: N_3  and  C_4
REMARK    5  A    between atoms: C_7  and  C_8
REMARK    6  A    between atoms: C_8  and  N_9
REMARK    7  A    between atoms: N_9  and  C_10
REMARK    8  A    between atoms: C_13  and  N_14
REMARK    9  A    between atoms: C_19  and  C_21
REMARK                            x       y       z     vdW  Elec       q    Type
REMARK                         _______ _______ _______ _____ _____    ______ ____
ROOT
ATOM      1  C   UNL     1      46.233   5.707  13.168  0.00  0.00    +0.000 A 
ATOM      2  C   UNL     1      45.823   6.083  11.889  0.00  0.00    +0.000 A 
ATOM      3  C   UNL     1      45.229   5.157  11.026  0.00  0.00    +0.000 A 
ATOM      4  C   UNL     1      45.107   3.833  11.434  0.00  0.00    +0.000 A 
ATOM      5  N   UNL     1      45.535   3.416  12.652  0.00  0.00    +0.000 NA
ATOM      6  C   UNL     1      46.069   4.358  13.476  0.00  0.00    +0.000 A 
ENDROOT
BRANCH   1   7
ATOM      7  N   UNL     1      46.809   6.648  14.004  0.00  0.00    +0.000 N 
ATOM      8  H   UNL     1      46.236   6.999  14.770  0.00  0.00    +0.000 HD
BRANCH   7  10
ATOM      9  C   UNL     1      48.588   6.157  15.656  0.00  0.00    +0.000 C 
ATOM     10  C   UNL     1      48.253   6.719  14.273  0.00  0.00    +0.000 C 
BRANCH  10  11
ATOM     11  C   UNL     1      48.718   8.191  14.205  0.00  0.00    +0.000 C 
ATOM     12  O   UNL     1      47.941   9.091  14.566  0.00  0.00    +0.000 OA
BRANCH  11  13
ATOM     13  C   UNL     1      50.117   8.524  13.885  0.00  0.00    +0.000 A 
ATOM     14  C   UNL     1      50.907   9.181  14.818  0.00  0.00    +0.000 A 
ATOM     15  S   UNL     1      52.533   9.360  14.331  0.00  0.00    +0.000 S 
ATOM     16  C   UNL     1      52.226   8.597  12.842  0.00  0.00    +0.000 A 
ATOM     17  N   UNL     1      53.224   8.380  11.945  0.00  0.00    +0.000 NA
ATOM     18  C   UNL     1      52.856   7.748  10.881  0.00  0.00    +0.000 A 
ATOM     19  N   UNL     1      51.574   7.343  10.618  0.00  0.00    +0.000 N 
ATOM     20  C   UNL     1      50.515   7.736  11.393  0.00  0.00    +0.000 A 
ATOM     21  O   UNL     1      49.367   7.685  10.968  0.00  0.00    +0.000 OA
ATOM     22  C   UNL     1      50.888   8.270  12.692  0.00  0.00    +0.000 A 
ATOM     23  H   UNL     1      51.339   6.939   9.723  0.00  0.00    +0.000 HD
ENDBRANCH  11  13
ENDBRANCH  10  11
ENDBRANCH   7  10
ENDBRANCH   1   7
BRANCH   4  24
ATOM     24  C   UNL     1      44.576   2.790  10.461  0.00  0.00    +0.000 C 
BRANCH  24  25
ATOM     25  N   UNL     1      44.164   3.293   9.135  0.00  0.00    +0.000 NA
ATOM     26  H   UNL     1      44.246   4.311   9.182  0.00  0.00    +0.000 HD
BRANCH  25  27
ATOM     27  C   UNL     1      45.011   2.816   8.031  0.00  0.00    +0.000 C 
ATOM     28  C   UNL     1      45.896   3.932   7.457  0.00  0.00    +0.000 C 
ATOM     29  C   UNL     1      46.821   3.404   6.367  0.00  0.00    +0.000 C 
ATOM     30  C   UNL     1      47.686   2.256   6.885  0.00  0.00    +0.000 C 
ATOM     31  C   UNL     1      46.816   1.126   7.445  0.00  0.00    +0.000 C 
ATOM     32  C   UNL     1      45.869   1.639   8.533  0.00  0.00    +0.000 C 
BRANCH  30  33
ATOM     33  N   UNL     1      48.537   1.772   5.800  0.00  0.00    +0.000 NA
ATOM     34  H   UNL     1      48.178   0.886   5.446  0.00  0.00    +0.000 HD
ATOM     35  H   UNL     1      49.471   1.576   6.159  0.00  0.00    +0.000 HD
ENDBRANCH  30  33
ENDBRANCH  25  27
ENDBRANCH  24  25
ENDBRANCH   4  24
TORSDOF 8
ENDMDL
MODEL 8
REMARK VINA RESULT:    -8.082      2.265      3.457
REMARK INTER + INTRA:         -12.495
REMARK INTER:                 -11.621
REMARK INTRA:                  -0.874
REMARK UNBOUND:                -0.870
REMARK  Name = 
REMARK  9 active torsions:
REMARK  status: ('A' for Active; 'I' for Inactive)
REMARK    1  A    between atoms: C_1  and  C_2
REMARK    2  A    between atoms: C_2  and  N_3
REMARK    3  A    between atoms: C_2  and  C_19
REMARK    4  A    between atoms: N_3  and  C_4
REMARK    5  A    between atoms: C_7  and  C_8
REMARK    6  A    between atoms: C_8  and  N_9
REMARK    7  A    between atoms: N_9  and  C_10
REMARK    8  A    between atoms: C_13  and  N_14
REMARK    9  A    between atoms: C_19  and  C_21
REMARK                            x       y       z     vdW  Elec       q    Type
REMARK                         _______ _______ _______ _____ _____    ______ ____
ROOT
ATOM      1  C   UNL     1      46.459   5.020  13.970  0.00  0.00    +0.000 A 
ATOM      2  C   UNL     1      45.694   5.826  13.128  0.00  0.00    +0.000 A 
ATOM      3  C   UNL     1      44.909   5.265  12.116  0.00  0.00    +0.000 A 
ATOM      4  C   UNL     1      44.946   3.889  11.916  0.00  0.00    +0.000 A 
ATOM      5  N   UNL     1      45.712   3.073  12.683  0.00  0.00    +0.000 NA
ATOM      6  C   UNL     1      46.428   3.656  13.682  0.00  0.00    +0.000 A 
ENDROOT
BRANCH   1   7
ATOM      7  N   UNL     1      47.218   5.603  14.970  0.00  0.00    +0.000 N 
ATOM      8  H   UNL     1      46.910   6.510  15.316  0.00  0.00    +0.000 HD
BRANCH   7  10
ATOM      9  C   UNL     1      47.080   4.210  17.013  0.00  0.00    +0.000 C 
ATOM     10  C   UNL     1      47.992   4.833  15.955  0.00  0.00    +0.000 C 
BRANCH  10  11
ATOM     11  C   UNL     1      49.006   5.764  16.656  0.00  0.00    +0.000 C 
ATOM     12  O   UNL     1      50.205   5.708  16.334  0.00  0.00    +0.000 OA
BRANCH  11  13
ATOM     13  C   UNL     1      48.548   6.828  17.566  0.00  0.00    +0.000 A 
ATOM     14  C   UNL     1      48.308   6.544  18.903  0.00  0.00    +0.000 A 
ATOM     15  S   UNL     1      47.920   7.921  19.834  0.00  0.00    +0.000 S 
ATOM     16  C   UNL     1      48.026   8.936  18.473  0.00  0.00    +0.000 A 
ATOM     17  N   UNL     1      47.846  10.279  18.584  0.00  0.00    +0.000 NA
ATOM     18  C   UNL     1      48.003  10.930  17.480  0.00  0.00    +0.000 A 
ATOM     19  N   UNL     1      48.292  10.356  16.269  0.00  0.00    +0.000 N 
ATOM     20  C   UNL     1      48.262   8.999  16.085  0.00  0.00    +0.000 A 
ATOM     21  O   UNL     1      48.158   8.516  14.963  0.00  0.00    +0.000 OA
ATOM     22  C   UNL     1      48.288   8.225  17.314  0.00  0.00    +0.000 A 
ATOM     23  H   UNL     1      48.306  10.916  15.429  0.00  0.00    +0.000 HD
ENDBRANCH  11  13
ENDBRANCH  10  11
ENDBRANCH   7  10
ENDBRANCH   1   7
BRANCH   4  24
ATOM     24  C   UNL     1      44.194   3.277  10.743  0.00  0.00    +0.000 C 
BRANCH  24  25
ATOM     25  N   UNL     1      44.237   4.040   9.479  0.00  0.00    +0.000 NA
ATOM     26  H   UNL     1      44.745   4.903   9.687  0.00  0.00    +0.000 HD
BRANCH  25  27
ATOM     27  C   UNL     1      44.945   3.345   8.391  0.00  0.00    +0.000 C 
ATOM     28  C   UNL     1      46.050   4.214   7.773  0.00  0.00    +0.000 C 
ATOM     29  C   UNL     1      46.822   3.453   6.701  0.00  0.00    +0.000 C 
ATOM     30  C   UNL     1      47.416   2.161   7.261  0.00  0.00    +0.000 C 
ATOM     31  C   UNL     1      46.322   1.275   7.866  0.00  0.00    +0.000 C 
ATOM     32  C   UNL     1      45.525   2.026   8.937  0.00  0.00    +0.000 C 
BRANCH  30  33
ATOM     33  N   UNL     1      48.126   1.459   6.194  0.00  0.00    +0.000 NA
ATOM     34  H   UNL     1      47.657   1.618   5.303  0.00  0.00    +0.000 HD
ATOM     35  H   UNL     1      48.086   0.453   6.361  0.00  0.00    +0.000 HD
ENDBRANCH  30  33
ENDBRANCH  25  27
ENDBRANCH  24  25
ENDBRANCH   4  24
TORSDOF 8
ENDMDL
MODEL 9
REMARK VINA RESULT:    -7.997      1.804      2.503
REMARK INTER + INTRA:         -12.373
REMARK INTER:                 -11.598
REMARK INTRA:                  -0.775
REMARK UNBOUND:                -0.870
REMARK  Name = 
REMARK  9 active torsions:
REMARK  status: ('A' for Active; 'I' for Inactive)
REMARK    1  A    between atoms: C_1  and  C_2
REMARK    2  A    between atoms: C_2  and  N_3
REMARK    3  A    between atoms: C_2  and  C_19
REMARK    4  A    between atoms: N_3  and  C_4
REMARK    5  A    between atoms: C_7  and  C_8
REMARK    6  A    between atoms: C_8  and  N_9
REMARK    7  A    between atoms: N_9  and  C_10
REMARK    8  A    between atoms: C_13  and  N_14
REMARK    9  A    between atoms: C_19  and  C_21
REMARK                            x       y       z     vdW  Elec       q    Type
REMARK                         _______ _______ _______ _____ _____    ______ ____
ROOT
ATOM      1  C   UNL     1      46.887   5.929  12.576  0.00  0.00    +0.000 A 
ATOM      2  C   UNL     1      46.236   6.245  11.384  0.00  0.00    +0.000 A 
ATOM      3  C   UNL     1      45.272   5.388  10.844  0.00  0.00    +0.000 A 
ATOM      4  C   UNL     1      45.012   4.177  11.479  0.00  0.00    +0.000 A 
ATOM      5  N   UNL     1      45.657   3.810  12.614  0.00  0.00    +0.000 NA
ATOM      6  C   UNL     1      46.556   4.692  13.129  0.00  0.00    +0.000 A 
ENDROOT
BRANCH   1   7
ATOM      7  N   UNL     1      47.829   6.802  13.093  0.00  0.00    +0.000 N 
ATOM      8  H   UNL     1      48.262   7.454  12.441  0.00  0.00    +0.000 HD
BRANCH   7  10
ATOM      9  C   UNL     1      48.071   8.792  14.547  0.00  0.00    +0.000 C 
ATOM     10  C   UNL     1      47.812   7.286  14.481  0.00  0.00    +0.000 C 
BRANCH  10  11
ATOM     11  C   UNL     1      48.903   6.555  15.295  0.00  0.00    +0.000 C 
ATOM     12  O   UNL     1      50.099   6.797  15.063  0.00  0.00    +0.000 OA
BRANCH  11  13
ATOM     13  C   UNL     1      48.544   5.712  16.449  0.00  0.00    +0.000 A 
ATOM     14  C   UNL     1      47.850   4.527  16.256  0.00  0.00    +0.000 A 
ATOM     15  S   UNL     1      47.644   3.615  17.684  0.00  0.00    +0.000 S 
ATOM     16  C   UNL     1      48.444   4.794  18.614  0.00  0.00    +0.000 A 
ATOM     17  N   UNL     1      48.656   4.615  19.945  0.00  0.00    +0.000 NA
ATOM     18  C   UNL     1      49.318   5.567  20.512  0.00  0.00    +0.000 A 
ATOM     19  N   UNL     1      49.758   6.698  19.877  0.00  0.00    +0.000 N 
ATOM     20  C   UNL     1      49.374   7.008  18.599  0.00  0.00    +0.000 A 
ATOM     21  O   UNL     1      49.460   8.155  18.173  0.00  0.00    +0.000 OA
ATOM     22  C   UNL     1      48.804   5.896  17.857  0.00  0.00    +0.000 A 
ATOM     23  H   UNL     1      50.186   7.446  20.403  0.00  0.00    +0.000 HD
ENDBRANCH  11  13
ENDBRANCH  10  11
ENDBRANCH   7  10
ENDBRANCH   1   7
BRANCH   4  24
ATOM     24  C   UNL     1      44.057   3.180  10.838  0.00  0.00    +0.000 C 
BRANCH  24  25
ATOM     25  N   UNL     1      44.080   3.119   9.363  0.00  0.00    +0.000 NA
ATOM     26  H   UNL     1      43.801   4.048   9.038  0.00  0.00    +0.000 HD
BRANCH  25  27
ATOM     27  C   UNL     1      45.407   2.819   8.802  0.00  0.00    +0.000 C 
ATOM     28  C   UNL     1      45.547   1.341   8.407  0.00  0.00    +0.000 C 
ATOM     29  C   UNL     1      46.898   1.064   7.758  0.00  0.00    +0.000 C 
ATOM     30  C   UNL     1      47.119   1.960   6.540  0.00  0.00    +0.000 C 
ATOM     31  C   UNL     1      47.000   3.440   6.922  0.00  0.00    +0.000 C 
ATOM     32  C   UNL     1      45.654   3.736   7.589  0.00  0.00    +0.000 C 
BRANCH  30  33
ATOM     33  N   UNL     1      48.432   1.673   5.967  0.00  0.00    +0.000 NA
ATOM     34  H   UNL     1      48.386   0.826   5.402  0.00  0.00    +0.000 HD
ATOM     35  H   UNL     1      49.098   1.479   6.715  0.00  0.00    +0.000 HD
ENDBRANCH  30  33
ENDBRANCH  25  27
ENDBRANCH  24  25
ENDBRANCH   4  24
TORSDOF 8
ENDMDL
