MODEL 1
REMARK VINA RESULT:    -9.332      0.000      0.000
REMARK INTER + INTRA:         -12.325
REMARK INTER:                 -11.514
REMARK INTRA:                  -0.811
REMARK UNBOUND:                -0.811
REMARK  Name = 
REMARK  4 active torsions:
REMARK  status: ('A' for Active; 'I' for Inactive)
REMARK    1  A    between atoms: C_2  and  C_4
REMARK    2  A    between atoms: C_7  and  C_8
REMARK    3  A    between atoms: C_8  and  N_9
REMARK    4  A    between atoms: C_12  and  C_13
REMARK                            x       y       z     vdW  Elec       q    Type
REMARK                         _______ _______ _______ _____ _____    ______ ____
ROOT
ATOM      1  N   UNL     1      43.982   4.095  11.787  0.00  0.00    +0.000 N 
ATOM      2  C   UNL     1      45.137   4.621  12.339  0.00  0.00    +0.000 A 
ATOM      3  C   UNL     1      45.639   5.872  11.997  0.00  0.00    +0.000 A 
ATOM      4  C   UNL     1      46.752   6.418  12.659  0.00  0.00    +0.000 A 
ATOM      5  C   UNL     1      47.322   5.638  13.666  0.00  0.00    +0.000 A 
ATOM      6  C   UNL     1      46.776   4.393  13.944  0.00  0.00    +0.000 A 
ATOM      7  N   UNL     1      45.705   3.879  13.304  0.00  0.00    +0.000 NA
ATOM      8  H   UNL     1      43.913   3.117  12.059  0.00  0.00    +0.000 HD
ENDROOT
BRANCH   4   9
ATOM      9  C   UNL     1      47.264   7.764  12.309  0.00  0.00    +0.000 A 
ATOM     10  C   UNL     1      48.594   7.967  11.898  0.00  0.00    +0.000 A 
ATOM     11  C   UNL     1      49.074   9.243  11.573  0.00  0.00    +0.000 A 
ATOM     12  C   UNL     1      48.227  10.344  11.640  0.00  0.00    +0.000 A 
ATOM     13  C   UNL     1      46.912  10.160  12.034  0.00  0.00    +0.000 A 
ATOM     14  F   UNL     1      46.086  11.213  12.093  0.00  0.00    +0.000 F 
ATOM     15  C   UNL     1      46.432   8.897  12.372  0.00  0.00    +0.000 A 
ENDBRANCH   4   9
BRANCH   1  16
ATOM     16  C   UNL     1      43.632   4.398  10.415  0.00  0.00    +0.000 C 
BRANCH  16  20
ATOM     17  C   UNL     1      46.431   2.451   7.757  0.00  0.00    +0.000 A 
ATOM     18  C   UNL     1      46.281   3.841   7.718  0.00  0.00    +0.000 A 
ATOM     19  C   UNL     1      45.368   4.467   8.571  0.00  0.00    +0.000 A 
ATOM     20  C   UNL     1      44.591   3.716   9.468  0.00  0.00    +0.000 A 
ATOM     21  C   UNL     1      44.743   2.323   9.496  0.00  0.00    +0.000 A 
ATOM     22  C   UNL     1      45.653   1.694   8.642  0.00  0.00    +0.000 A 
BRANCH  17  24
ATOM     23  N   UNL     1      48.482   2.417   6.440  0.00  0.00    +0.000 N 
ATOM     24  C   UNL     1      47.375   1.734   6.860  0.00  0.00    +0.000 C 
ATOM     25  O   UNL     1      47.194   0.567   6.537  0.00  0.00    +0.000 OA
ATOM     26  H   UNL     1      49.163   1.882   5.915  0.00  0.00    +0.000 HD
ATOM     27  H   UNL     1      48.791   3.270   6.878  0.00  0.00    +0.000 HD
ENDBRANCH  17  24
ENDBRANCH  16  20
ENDBRANCH   1  16
TORSDOF 4
ENDMDL
MODEL 2
REMARK VINA RESULT:    -9.323      1.067      1.446
REMARK INTER + INTRA:         -12.314
REMARK INTER:                 -11.513
REMARK INTRA:                  -0.801
REMARK UNBOUND:                -0.811
REMARK  Name = 
REMARK  4 active torsions:
REMARK  status: ('A' for Active; 'I' for Inactive)
REMARK    1  A    between atoms: C_2  and  C_4
REMARK    2  A    between atoms: C_7  and  C_8
REMARK    3  A    between atoms: C_8  and  N_9
REMARK    4  A    between atoms: C_12  and  C_13
REMARK                            x       y       z     vdW  Elec       q    Type
REMARK                         _______ _______ _______ _____ _____    ______ ____
ROOT
ATOM      1  N   UNL     1      43.997   4.222  11.688  0.00  0.00    +0.000 N 
ATOM      2  C   UNL     1      45.172   4.682  12.257  0.00  0.00    +0.000 A 
ATOM      3  C   UNL     1      45.753   5.900  11.917  0.00  0.00    +0.000 A 
ATOM      4  C   UNL     1      46.885   6.383  12.595  0.00  0.00    +0.000 A 
ATOM      5  C   UNL     1      47.392   5.576  13.616  0.00  0.00    +0.000 A 
ATOM      6  C   UNL     1      46.769   4.367  13.891  0.00  0.00    +0.000 A 
ATOM      7  N   UNL     1      45.680   3.913  13.234  0.00  0.00    +0.000 NA
ATOM      8  H   UNL     1      43.866   3.251  11.963  0.00  0.00    +0.000 HD
ENDROOT
BRANCH   4   9
ATOM      9  C   UNL     1      47.481   7.694  12.248  0.00  0.00    +0.000 A 
ATOM     10  C   UNL     1      46.755   8.893  12.370  0.00  0.00    +0.000 A 
ATOM     11  C   UNL     1      47.321  10.130  12.034  0.00  0.00    +0.000 A 
ATOM     12  C   UNL     1      48.634  10.195  11.580  0.00  0.00    +0.000 A 
ATOM     13  C   UNL     1      49.365   9.024  11.463  0.00  0.00    +0.000 A 
ATOM     14  F   UNL     1      50.634   9.078  11.036  0.00  0.00    +0.000 F 
ATOM     15  C   UNL     1      48.805   7.791  11.781  0.00  0.00    +0.000 A 
ENDBRANCH   4   9
BRANCH   1  16
ATOM     16  C   UNL     1      43.689   4.537  10.309  0.00  0.00    +0.000 C 
BRANCH  16  20
ATOM     17  C   UNL     1      46.457   2.470   7.709  0.00  0.00    +0.000 A 
ATOM     18  C   UNL     1      46.334   3.862   7.635  0.00  0.00    +0.000 A 
ATOM     19  C   UNL     1      45.431   4.527   8.470  0.00  0.00    +0.000 A 
ATOM     20  C   UNL     1      44.637   3.813   9.382  0.00  0.00    +0.000 A 
ATOM     21  C   UNL     1      44.762   2.419   9.445  0.00  0.00    +0.000 A 
ATOM     22  C   UNL     1      45.662   1.752   8.610  0.00  0.00    +0.000 A 
BRANCH  17  24
ATOM     23  N   UNL     1      48.502   2.369   6.387  0.00  0.00    +0.000 N 
ATOM     24  C   UNL     1      47.389   1.714   6.833  0.00  0.00    +0.000 C 
ATOM     25  O   UNL     1      47.193   0.539   6.548  0.00  0.00    +0.000 OA
ATOM     26  H   UNL     1      49.175   1.809   5.879  0.00  0.00    +0.000 HD
ATOM     27  H   UNL     1      48.824   3.233   6.797  0.00  0.00    +0.000 HD
ENDBRANCH  17  24
ENDBRANCH  16  20
ENDBRANCH   1  16
TORSDOF 4
ENDMDL
MODEL 3
REMARK VINA RESULT:    -8.657      1.605      2.241
REMARK INTER + INTRA:         -11.492
REMARK INTER:                 -10.739
REMARK INTRA:                  -0.753
REMARK UNBOUND:                -0.811
REMARK  Name = 
REMARK  4 active torsions:
REMARK  status: ('A' for Active; 'I' for Inactive)
REMARK    1  A    between atoms: C_2  and  C_4
REMARK    2  A    between atoms: C_7  and  C_8
REMARK    3  A    between atoms: C_8  and  N_9
REMARK    4  A    between atoms: C_12  and  C_13
REMARK                            x       y       z     vdW  Elec       q    Type
REMARK                         _______ _______ _______ _____ _____    ______ ____
ROOT
ATOM      1  N   UNL     1      44.467   3.731  11.877  0.00  0.00    +0.000 N 
ATOM      2  C   UNL     1      45.217   4.845  12.213  0.00  0.00    +0.000 A 
ATOM      3  C   UNL     1      44.892   6.132  11.796  0.00  0.00    +0.000 A 
ATOM      4  C   UNL     1      45.613   7.250  12.248  0.00  0.00    +0.000 A 
ATOM      5  C   UNL     1      46.668   6.997  13.127  0.00  0.00    +0.000 A 
ATOM      6  C   UNL     1      46.943   5.686  13.489  0.00  0.00    +0.000 A 
ATOM      7  N   UNL     1      46.243   4.619  13.050  0.00  0.00    +0.000 NA
ATOM      8  H   UNL     1      44.988   2.900  12.147  0.00  0.00    +0.000 HD
ENDROOT
BRANCH   4   9
ATOM      9  C   UNL     1      45.243   8.620  11.823  0.00  0.00    +0.000 A 
ATOM     10  C   UNL     1      46.007   9.742  12.193  0.00  0.00    +0.000 A 
ATOM     11  C   UNL     1      45.649  11.036  11.792  0.00  0.00    +0.000 A 
ATOM     12  C   UNL     1      44.523  11.234  11.000  0.00  0.00    +0.000 A 
ATOM     13  C   UNL     1      43.765  10.139  10.620  0.00  0.00    +0.000 A 
ATOM     14  F   UNL     1      42.684  10.318   9.849  0.00  0.00    +0.000 F 
ATOM     15  C   UNL     1      44.107   8.852  11.026  0.00  0.00    +0.000 A 
ENDBRANCH   4   9
BRANCH   1  16
ATOM     16  C   UNL     1      43.797   3.670  10.594  0.00  0.00    +0.000 C 
BRANCH  16  20
ATOM     17  C   UNL     1      46.555   2.630   7.431  0.00  0.00    +0.000 A 
ATOM     18  C   UNL     1      46.018   1.630   8.248  0.00  0.00    +0.000 A 
ATOM     19  C   UNL     1      45.135   1.969   9.276  0.00  0.00    +0.000 A 
ATOM     20  C   UNL     1      44.782   3.309   9.506  0.00  0.00    +0.000 A 
ATOM     21  C   UNL     1      45.329   4.305   8.687  0.00  0.00    +0.000 A 
ATOM     22  C   UNL     1      46.214   3.969   7.660  0.00  0.00    +0.000 A 
BRANCH  17  24
ATOM     23  N   UNL     1      47.398   3.051   5.183  0.00  0.00    +0.000 N 
ATOM     24  C   UNL     1      47.511   2.325   6.335  0.00  0.00    +0.000 C 
ATOM     25  O   UNL     1      48.390   1.483   6.465  0.00  0.00    +0.000 OA
ATOM     26  H   UNL     1      48.119   2.901   4.489  0.00  0.00    +0.000 HD
ATOM     27  H   UNL     1      46.867   3.907   5.131  0.00  0.00    +0.000 HD
ENDBRANCH  17  24
ENDBRANCH  16  20
ENDBRANCH   1  16
TORSDOF 4
ENDMDL
MODEL 4
REMARK VINA RESULT:    -8.008      4.789      8.273
REMARK INTER + INTRA:         -10.691
REMARK INTER:                 -10.183
REMARK INTRA:                  -0.509
REMARK UNBOUND:                -0.811
REMARK  Name = 
REMARK  4 active torsions:
REMARK  status: ('A' for Active; 'I' for Inactive)
REMARK    1  A    between atoms: C_2  and  C_4
REMARK    2  A    between atoms: C_7  and  C_8
REMARK    3  A    between atoms: C_8  and  N_9
REMARK    4  A    between atoms: C_12  and  C_13
REMARK                            x       y       z     vdW  Elec       q    Type
REMARK                         _______ _______ _______ _____ _____    ______ ____
ROOT
ATOM      1  N   UNL     1      45.588   5.073  14.003  0.00  0.00    +0.000 N 
ATOM      2  C   UNL     1      44.927   4.961  12.792  0.00  0.00    +0.000 A 
ATOM      3  C   UNL     1      45.508   4.397  11.661  0.00  0.00    +0.000 A 
ATOM      4  C   UNL     1      44.769   4.201  10.482  0.00  0.00    +0.000 A 
ATOM      5  C   UNL     1      43.433   4.605  10.509  0.00  0.00    +0.000 A 
ATOM      6  C   UNL     1      42.924   5.173  11.669  0.00  0.00    +0.000 A 
ATOM      7  N   UNL     1      43.643   5.355  12.797  0.00  0.00    +0.000 NA
ATOM      8  H   UNL     1      45.032   5.662  14.619  0.00  0.00    +0.000 HD
ENDROOT
BRANCH   4   9
ATOM      9  C   UNL     1      45.386   3.573   9.290  0.00  0.00    +0.000 A 
ATOM     10  C   UNL     1      45.896   4.342   8.228  0.00  0.00    +0.000 A 
ATOM     11  C   UNL     1      46.474   3.743   7.100  0.00  0.00    +0.000 A 
ATOM     12  C   UNL     1      46.566   2.358   7.018  0.00  0.00    +0.000 A 
ATOM     13  C   UNL     1      46.077   1.587   8.059  0.00  0.00    +0.000 A 
ATOM     14  F   UNL     1      46.170   0.252   7.993  0.00  0.00    +0.000 F 
ATOM     15  C   UNL     1      45.489   2.175   9.175  0.00  0.00    +0.000 A 
ENDBRANCH   4   9
BRANCH   1  16
ATOM     16  C   UNL     1      47.018   5.300  14.029  0.00  0.00    +0.000 C 
BRANCH  16  20
ATOM     17  C   UNL     1      48.619   4.612  17.986  0.00  0.00    +0.000 A 
ATOM     18  C   UNL     1      47.632   3.763  17.473  0.00  0.00    +0.000 A 
ATOM     19  C   UNL     1      47.109   3.994  16.198  0.00  0.00    +0.000 A 
ATOM     20  C   UNL     1      47.558   5.075  15.422  0.00  0.00    +0.000 A 
ATOM     21  C   UNL     1      48.543   5.923  15.946  0.00  0.00    +0.000 A 
ATOM     22  C   UNL     1      49.065   5.696  17.221  0.00  0.00    +0.000 A 
BRANCH  17  24
ATOM     23  N   UNL     1      48.473   3.682  20.234  0.00  0.00    +0.000 N 
ATOM     24  C   UNL     1      49.197   4.421  19.342  0.00  0.00    +0.000 C 
ATOM     25  O   UNL     1      50.294   4.874  19.642  0.00  0.00    +0.000 OA
ATOM     26  H   UNL     1      48.928   3.476  21.115  0.00  0.00    +0.000 HD
ATOM     27  H   UNL     1      47.705   3.091  19.953  0.00  0.00    +0.000 HD
ENDBRANCH  17  24
ENDBRANCH  16  20
ENDBRANCH   1  16
TORSDOF 4
ENDMDL
MODEL 5
REMARK VINA RESULT:    -7.864      4.093      7.247
REMARK INTER + INTRA:         -10.514
REMARK INTER:                  -9.893
REMARK INTRA:                  -0.621
REMARK UNBOUND:                -0.811
REMARK  Name = 
REMARK  4 active torsions:
REMARK  status: ('A' for Active; 'I' for Inactive)
REMARK    1  A    between atoms: C_2  and  C_4
REMARK    2  A    between atoms: C_7  and  C_8
REMARK    3  A    between atoms: C_8  and  N_9
REMARK    4  A    between atoms: C_12  and  C_13
REMARK                            x       y       z     vdW  Elec       q    Type
REMARK                         _______ _______ _______ _____ _____    ______ ____
ROOT
ATOM      1  N   UNL     1      44.494   6.491  12.431  0.00  0.00    +0.000 N 
ATOM      2  C   UNL     1      44.249   5.286  11.795  0.00  0.00    +0.000 A 
ATOM      3  C   UNL     1      44.948   4.870  10.666  0.00  0.00    +0.000 A 
ATOM      4  C   UNL     1      44.747   3.594  10.113  0.00  0.00    +0.000 A 
ATOM      5  C   UNL     1      43.811   2.778  10.751  0.00  0.00    +0.000 A 
ATOM      6  C   UNL     1      43.141   3.265  11.865  0.00  0.00    +0.000 A 
ATOM      7  N   UNL     1      43.344   4.493  12.390  0.00  0.00    +0.000 NA
ATOM      8  H   UNL     1      43.756   6.649  13.114  0.00  0.00    +0.000 HD
ENDROOT
BRANCH   4   9
ATOM      9  C   UNL     1      45.516   3.146   8.928  0.00  0.00    +0.000 A 
ATOM     10  C   UNL     1      45.980   4.055   7.960  0.00  0.00    +0.000 A 
ATOM     11  C   UNL     1      46.703   3.626   6.838  0.00  0.00    +0.000 A 
ATOM     12  C   UNL     1      46.987   2.275   6.668  0.00  0.00    +0.000 A 
ATOM     13  C   UNL     1      46.544   1.368   7.616  0.00  0.00    +0.000 A 
ATOM     14  F   UNL     1      46.821   0.066   7.466  0.00  0.00    +0.000 F 
ATOM     15  C   UNL     1      45.814   1.786   8.726  0.00  0.00    +0.000 A 
ENDBRANCH   4   9
BRANCH   1  16
ATOM     16  C   UNL     1      44.904   7.647  11.662  0.00  0.00    +0.000 C 
BRANCH  16  20
ATOM     17  C   UNL     1      49.009   8.707  12.506  0.00  0.00    +0.000 A 
ATOM     18  C   UNL     1      48.701   7.430  12.027  0.00  0.00    +0.000 A 
ATOM     19  C   UNL     1      47.372   7.086  11.764  0.00  0.00    +0.000 A 
ATOM     20  C   UNL     1      46.335   8.008  11.982  0.00  0.00    +0.000 A 
ATOM     21  C   UNL     1      46.653   9.284  12.467  0.00  0.00    +0.000 A 
ATOM     22  C   UNL     1      47.980   9.629  12.733  0.00  0.00    +0.000 A 
BRANCH  17  24
ATOM     23  N   UNL     1      51.318   8.125  13.028  0.00  0.00    +0.000 N 
ATOM     24  C   UNL     1      50.404   9.118  12.816  0.00  0.00    +0.000 C 
ATOM     25  O   UNL     1      50.734  10.296  12.847  0.00  0.00    +0.000 OA
ATOM     26  H   UNL     1      52.280   8.421  13.135  0.00  0.00    +0.000 HD
ATOM     27  H   UNL     1      51.148   7.166  12.765  0.00  0.00    +0.000 HD
ENDBRANCH  17  24
ENDBRANCH  16  20
ENDBRANCH   1  16
TORSDOF 4
ENDMDL
MODEL 6
REMARK VINA RESULT:    -7.542      2.013      2.774
REMARK INTER + INTRA:         -10.116
REMARK INTER:                  -9.468
REMARK INTRA:                  -0.649
REMARK UNBOUND:                -0.811
REMARK  Name = 
REMARK  4 active torsions:
REMARK  status: ('A' for Active; 'I' for Inactive)
REMARK    1  A    between atoms: C_2  and  C_4
REMARK    2  A    between atoms: C_7  and  C_8
REMARK    3  A    between atoms: C_8  and  N_9
REMARK    4  A    between atoms: C_12  and  C_13
REMARK                            x       y       z     vdW  Elec       q    Type
REMARK                         _______ _______ _______ _____ _____    ______ ____
ROOT
ATOM      1  N   UNL     1      43.817   5.809  10.429  0.00  0.00    +0.000 N 
ATOM      2  C   UNL     1      44.434   6.856  11.092  0.00  0.00    +0.000 A 
ATOM      3  C   UNL     1      45.745   6.792  11.555  0.00  0.00    +0.000 A 
ATOM      4  C   UNL     1      46.372   7.912  12.126  0.00  0.00    +0.000 A 
ATOM      5  C   UNL     1      45.612   9.079  12.206  0.00  0.00    +0.000 A 
ATOM      6  C   UNL     1      44.306   9.066  11.736  0.00  0.00    +0.000 A 
ATOM      7  N   UNL     1      43.713   7.984  11.188  0.00  0.00    +0.000 NA
ATOM      8  H   UNL     1      42.826   6.023  10.343  0.00  0.00    +0.000 HD
ENDROOT
BRANCH   4   9
ATOM      9  C   UNL     1      47.778   7.845  12.590  0.00  0.00    +0.000 A 
ATOM     10  C   UNL     1      48.103   7.740  13.955  0.00  0.00    +0.000 A 
ATOM     11  C   UNL     1      49.434   7.683  14.389  0.00  0.00    +0.000 A 
ATOM     12  C   UNL     1      50.471   7.715  13.463  0.00  0.00    +0.000 A 
ATOM     13  C   UNL     1      50.168   7.809  12.115  0.00  0.00    +0.000 A 
ATOM     14  F   UNL     1      51.159   7.832  11.214  0.00  0.00    +0.000 F 
ATOM     15  C   UNL     1      48.848   7.881  11.678  0.00  0.00    +0.000 A 
ENDBRANCH   4   9
BRANCH   1  16
ATOM     16  C   UNL     1      44.143   4.441  10.772  0.00  0.00    +0.000 C 
BRANCH  16  20
ATOM     17  C   UNL     1      46.439   2.583   7.616  0.00  0.00    +0.000 A 
ATOM     18  C   UNL     1      46.340   3.976   7.681  0.00  0.00    +0.000 A 
ATOM     19  C   UNL     1      45.588   4.575   8.697  0.00  0.00    +0.000 A 
ATOM     20  C   UNL     1      44.923   3.791   9.654  0.00  0.00    +0.000 A 
ATOM     21  C   UNL     1      45.023   2.396   9.577  0.00  0.00    +0.000 A 
ATOM     22  C   UNL     1      45.771   1.796   8.561  0.00  0.00    +0.000 A 
BRANCH  17  24
ATOM     23  N   UNL     1      47.902   2.682   5.668  0.00  0.00    +0.000 N 
ATOM     24  C   UNL     1      47.211   1.896   6.547  0.00  0.00    +0.000 C 
ATOM     25  O   UNL     1      47.261   0.675   6.473  0.00  0.00    +0.000 OA
ATOM     26  H   UNL     1      48.502   2.197   5.013  0.00  0.00    +0.000 HD
ATOM     27  H   UNL     1      48.090   3.657   5.845  0.00  0.00    +0.000 HD
ENDBRANCH  17  24
ENDBRANCH  16  20
ENDBRANCH   1  16
TORSDOF 4
ENDMDL
MODEL 7
REMARK VINA RESULT:    -7.495      2.397      3.877
REMARK INTER + INTRA:         -10.059
REMARK INTER:                  -9.334
REMARK INTRA:                  -0.725
REMARK UNBOUND:                -0.811
REMARK  Name = 
REMARK  4 active torsions:
REMARK  status: ('A' for Active; 'I' for Inactive)
REMARK    1  A    between atoms: C_2  and  C_4
REMARK    2  A    between atoms: C_7  and  C_8
REMARK    3  A    between atoms: C_8  and  N_9
REMARK    4  A    between atoms: C_12  and  C_13
REMARK                            x       y       z     vdW  Elec       q    Type
REMARK                         _______ _______ _______ _____ _____    ______ ____
ROOT
ATOM      1  N   UNL     1      44.990   6.233  10.333  0.00  0.00    +0.000 N 
ATOM      2  C   UNL     1      45.522   6.696  11.524  0.00  0.00    +0.000 A 
ATOM      3  C   UNL     1      46.092   5.858  12.477  0.00  0.00    +0.000 A 
ATOM      4  C   UNL     1      46.720   6.376  13.622  0.00  0.00    +0.000 A 
ATOM      5  C   UNL     1      46.735   7.765  13.751  0.00  0.00    +0.000 A 
ATOM      6  C   UNL     1      46.135   8.539  12.767  0.00  0.00    +0.000 A 
ATOM      7  N   UNL     1      45.535   8.031  11.669  0.00  0.00    +0.000 NA
ATOM      8  H   UNL     1      44.487   6.997   9.888  0.00  0.00    +0.000 HD
ENDROOT
BRANCH   4   9
ATOM      9  C   UNL     1      47.350   5.478  14.619  0.00  0.00    +0.000 A 
ATOM     10  C   UNL     1      47.108   4.091  14.624  0.00  0.00    +0.000 A 
ATOM     11  C   UNL     1      47.703   3.248  15.571  0.00  0.00    +0.000 A 
ATOM     12  C   UNL     1      48.564   3.772  16.529  0.00  0.00    +0.000 A 
ATOM     13  C   UNL     1      48.819   5.134  16.532  0.00  0.00    +0.000 A 
ATOM     14  F   UNL     1      49.654   5.648  17.445  0.00  0.00    +0.000 F 
ATOM     15  C   UNL     1      48.221   5.980  15.603  0.00  0.00    +0.000 A 
ENDBRANCH   4   9
BRANCH   1  16
ATOM     16  C   UNL     1      44.347   4.936  10.283  0.00  0.00    +0.000 C 
BRANCH  16  20
ATOM     17  C   UNL     1      46.531   2.315   7.628  0.00  0.00    +0.000 A 
ATOM     18  C   UNL     1      46.601   3.701   7.456  0.00  0.00    +0.000 A 
ATOM     19  C   UNL     1      45.885   4.547   8.309  0.00  0.00    +0.000 A 
ATOM     20  C   UNL     1      45.089   4.020   9.339  0.00  0.00    +0.000 A 
ATOM     21  C   UNL     1      45.021   2.630   9.501  0.00  0.00    +0.000 A 
ATOM     22  C   UNL     1      45.733   1.783   8.648  0.00  0.00    +0.000 A 
BRANCH  17  24
ATOM     23  N   UNL     1      48.257   1.887   5.961  0.00  0.00    +0.000 N 
ATOM     24  C   UNL     1      47.259   1.372   6.739  0.00  0.00    +0.000 C 
ATOM     25  O   UNL     1      47.003   0.175   6.726  0.00  0.00    +0.000 OA
ATOM     26  H   UNL     1      48.807   1.215   5.440  0.00  0.00    +0.000 HD
ATOM     27  H   UNL     1      48.659   2.797   6.127  0.00  0.00    +0.000 HD
ENDBRANCH  17  24
ENDBRANCH  16  20
ENDBRANCH   1  16
TORSDOF 4
ENDMDL
MODEL 8
REMARK VINA RESULT:    -7.433      3.944      7.331
REMARK INTER + INTRA:          -9.982
REMARK INTER:                  -9.293
REMARK INTRA:                  -0.689
REMARK UNBOUND:                -0.811
REMARK  Name = 
REMARK  4 active torsions:
REMARK  status: ('A' for Active; 'I' for Inactive)
REMARK    1  A    between atoms: C_2  and  C_4
REMARK    2  A    between atoms: C_7  and  C_8
REMARK    3  A    between atoms: C_8  and  N_9
REMARK    4  A    between atoms: C_12  and  C_13
REMARK                            x       y       z     vdW  Elec       q    Type
REMARK                         _______ _______ _______ _____ _____    ______ ____
ROOT
ATOM      1  N   UNL     1      45.606   5.282  13.484  0.00  0.00    +0.000 N 
ATOM      2  C   UNL     1      44.993   5.083  12.259  0.00  0.00    +0.000 A 
ATOM      3  C   UNL     1      45.609   4.423  11.201  0.00  0.00    +0.000 A 
ATOM      4  C   UNL     1      44.916   4.143  10.011  0.00  0.00    +0.000 A 
ATOM      5  C   UNL     1      43.587   4.566   9.951  0.00  0.00    +0.000 A 
ATOM      6  C   UNL     1      43.041   5.231  11.040  0.00  0.00    +0.000 A 
ATOM      7  N   UNL     1      43.716   5.493  12.179  0.00  0.00    +0.000 NA
ATOM      8  H   UNL     1      45.036   5.926  14.027  0.00  0.00    +0.000 HD
ENDROOT
BRANCH   4   9
ATOM      9  C   UNL     1      45.570   3.414   8.900  0.00  0.00    +0.000 A 
ATOM     10  C   UNL     1      46.124   4.089   7.796  0.00  0.00    +0.000 A 
ATOM     11  C   UNL     1      46.737   3.394   6.745  0.00  0.00    +0.000 A 
ATOM     12  C   UNL     1      46.821   2.007   6.782  0.00  0.00    +0.000 A 
ATOM     13  C   UNL     1      46.288   1.328   7.866  0.00  0.00    +0.000 A 
ATOM     14  F   UNL     1      46.373  -0.008   7.915  0.00  0.00    +0.000 F 
ATOM     15  C   UNL     1      45.666   2.011   8.907  0.00  0.00    +0.000 A 
ENDBRANCH   4   9
BRANCH   1  16
ATOM     16  C   UNL     1      47.037   5.491  13.552  0.00  0.00    +0.000 C 
BRANCH  16  20
ATOM     17  C   UNL     1      48.096   9.415  12.077  0.00  0.00    +0.000 A 
ATOM     18  C   UNL     1      46.924   9.239  12.820  0.00  0.00    +0.000 A 
ATOM     19  C   UNL     1      46.578   7.968  13.287  0.00  0.00    +0.000 A 
ATOM     20  C   UNL     1      47.393   6.857  13.014  0.00  0.00    +0.000 A 
ATOM     21  C   UNL     1      48.563   7.041  12.265  0.00  0.00    +0.000 A 
ATOM     22  C   UNL     1      48.909   8.310  11.795  0.00  0.00    +0.000 A 
BRANCH  17  24
ATOM     23  N   UNL     1      47.539  11.489  10.924  0.00  0.00    +0.000 N 
ATOM     24  C   UNL     1      48.501  10.742  11.544  0.00  0.00    +0.000 C 
ATOM     25  O   UNL     1      49.639  11.170  11.683  0.00  0.00    +0.000 OA
ATOM     26  H   UNL     1      47.807  12.429  10.660  0.00  0.00    +0.000 HD
ATOM     27  H   UNL     1      46.555  11.288  11.014  0.00  0.00    +0.000 HD
ENDBRANCH  17  24
ENDBRANCH  16  20
ENDBRANCH   1  16
TORSDOF 4
ENDMDL
MODEL 9
REMARK VINA RESULT:    -7.289      5.020      7.971
REMARK INTER + INTRA:          -9.804
REMARK INTER:                  -9.059
REMARK INTRA:                  -0.746
REMARK UNBOUND:                -0.811
REMARK  Name = 
REMARK  4 active torsions:
REMARK  status: ('A' for Active; 'I' for Inactive)
REMARK    1  A    between atoms: C_2  and  C_4
REMARK    2  A    between atoms: C_7  and  C_8
REMARK    3  A    between atoms: C_8  and  N_9
REMARK    4  A    between atoms: C_12  and  C_13
REMARK                            x       y       z     vdW  Elec       q    Type
REMARK                         _______ _______ _______ _____ _____    ______ ____
ROOT
ATOM      1  N   UNL     1      48.295   6.176  16.254  0.00  0.00    +0.000 N 
ATOM      2  C   UNL     1      48.154   6.220  14.878  0.00  0.00    +0.000 A 
ATOM      3  C   UNL     1      47.125   5.574  14.200  0.00  0.00    +0.000 A 
ATOM      4  C   UNL     1      46.952   5.732  12.814  0.00  0.00    +0.000 A 
ATOM      5  C   UNL     1      47.866   6.562  12.163  0.00  0.00    +0.000 A 
ATOM      6  C   UNL     1      48.876   7.163  12.901  0.00  0.00    +0.000 A 
ATOM      7  N   UNL     1      49.032   7.006  14.233  0.00  0.00    +0.000 NA
ATOM      8  H   UNL     1      49.200   6.571  16.497  0.00  0.00    +0.000 HD
ENDROOT
BRANCH   4   9
ATOM      9  C   UNL     1      45.836   5.065  12.103  0.00  0.00    +0.000 A 
ATOM     10  C   UNL     1      45.421   5.477  10.824  0.00  0.00    +0.000 A 
ATOM     11  C   UNL     1      44.362   4.845  10.158  0.00  0.00    +0.000 A 
ATOM     12  C   UNL     1      43.702   3.777  10.756  0.00  0.00    +0.000 A 
ATOM     13  C   UNL     1      44.104   3.354  12.012  0.00  0.00    +0.000 A 
ATOM     14  F   UNL     1      43.480   2.319  12.592  0.00  0.00    +0.000 F 
ATOM     15  C   UNL     1      45.146   3.985  12.685  0.00  0.00    +0.000 A 
ENDBRANCH   4   9
BRANCH   1  16
ATOM     16  C   UNL     1      47.905   4.988  16.984  0.00  0.00    +0.000 C 
BRANCH  16  20
ATOM     17  C   UNL     1      51.273   2.335  17.540  0.00  0.00    +0.000 A 
ATOM     18  C   UNL     1      51.417   3.707  17.775  0.00  0.00    +0.000 A 
ATOM     19  C   UNL     1      50.329   4.564  17.584  0.00  0.00    +0.000 A 
ATOM     20  C   UNL     1      49.089   4.065  17.153  0.00  0.00    +0.000 A 
ATOM     21  C   UNL     1      48.956   2.690  16.915  0.00  0.00    +0.000 A 
ATOM     22  C   UNL     1      50.043   1.832  17.102  0.00  0.00    +0.000 A 
BRANCH  17  24
ATOM     23  N   UNL     1      52.116   0.160  18.248  0.00  0.00    +0.000 N 
ATOM     24  C   UNL     1      52.402   1.383  17.712  0.00  0.00    +0.000 C 
ATOM     25  O   UNL     1      53.539   1.665  17.356  0.00  0.00    +0.000 OA
ATOM     26  H   UNL     1      52.876  -0.509  18.262  0.00  0.00    +0.000 HD
ATOM     27  H   UNL     1      51.175  -0.196  18.315  0.00  0.00    +0.000 HD
ENDBRANCH  17  24
ENDBRANCH  16  20
ENDBRANCH   1  16
TORSDOF 4
ENDMDL
