MODEL 1
REMARK VINA RESULT:    -9.153      0.000      0.000
REMARK INTER + INTRA:         -13.233
REMARK INTER:                 -12.630
REMARK INTRA:                  -0.603
REMARK UNBOUND:                -0.603
REMARK  Name = 
REMARK  8 active torsions:
REMARK  status: ('A' for Active; 'I' for Inactive)
REMARK    1  A    between atoms: C_1  and  C_2
REMARK    2  A    between atoms: C_4  and  C_5
REMARK    3  A    between atoms: C_10  and  N_11
REMARK    4  A    between atoms: N_11  and  C_12
REMARK    5  A    between atoms: C_12  and  C_13
REMARK    6  A    between atoms: C_17  and  C_18
REMARK    7  A    between atoms: C_21  and  C_22
REMARK    8  A    between atoms: C_22  and  O_23
REMARK                            x       y       z     vdW  Elec       q    Type
REMARK                         _______ _______ _______ _____ _____    ______ ____
ROOT
ATOM      1  C   UNL     1      44.157   5.175  11.522  0.00  0.00    +0.000 C 
ATOM      2  C   UNL     1      43.453   4.096  12.369  0.00  0.00    +0.000 C 
ATOM      3  C   UNL     1      43.008   5.506  12.460  0.00  0.00    +0.000 C 
ENDROOT
BRANCH   1   4
ATOM      4  C   UNL     1      45.551   5.597  12.014  0.00  0.00    +0.000 A 
ATOM      5  C   UNL     1      46.316   6.550  11.331  0.00  0.00    +0.000 A 
ATOM      6  C   UNL     1      47.530   7.002  11.849  0.00  0.00    +0.000 A 
ATOM      7  C   UNL     1      47.991   6.522  13.082  0.00  0.00    +0.000 A 
ATOM      8  C   UNL     1      47.256   5.583  13.821  0.00  0.00    +0.000 A 
ATOM      9  C   UNL     1      46.071   5.105  13.234  0.00  0.00    +0.000 A 
BRANCH   8  10
ATOM     10  C   UNL     1      47.646   5.189  15.196  0.00  0.00    +0.000 A 
ATOM     11  C   UNL     1      48.484   6.021  15.962  0.00  0.00    +0.000 A 
ATOM     12  C   UNL     1      48.823   5.707  17.282  0.00  0.00    +0.000 A 
ATOM     13  C   UNL     1      48.317   4.556  17.888  0.00  0.00    +0.000 A 
ATOM     14  C   UNL     1      47.464   3.729  17.149  0.00  0.00    +0.000 A 
ATOM     15  C   UNL     1      47.140   4.037  15.822  0.00  0.00    +0.000 A 
BRANCH  13  16
ATOM     16  C   UNL     1      48.699   4.201  19.299  0.00  0.00    +0.000 C 
BRANCH  16  17
ATOM     17  O   UNL     1      48.255   2.892  19.628  0.00  0.00    +0.000 OA
ATOM     18  H   UNL     1      48.232   2.838  20.599  0.00  0.00    +0.000 HD
ENDBRANCH  16  17
ENDBRANCH  13  16
ENDBRANCH   8  10
ENDBRANCH   1   4
BRANCH   1  19
ATOM     19  N   UNL     1      44.117   4.885  10.087  0.00  0.00    +0.000 N 
ATOM     20  H   UNL     1      43.252   5.119   9.607  0.00  0.00    +0.000 HD
BRANCH  19  27
ATOM     21  C   UNL     1      44.104   1.756   9.891  0.00  0.00    +0.000 C 
ATOM     22  C   UNL     1      44.928   2.724   9.109  0.00  0.00    +0.000 A 
ATOM     23  C   UNL     1      45.878   2.157   8.231  0.00  0.00    +0.000 A 
ATOM     24  C   UNL     1      46.692   2.944   7.426  0.00  0.00    +0.000 A 
ATOM     25  C   UNL     1      46.511   4.305   7.533  0.00  0.00    +0.000 A 
ATOM     26  N   UNL     1      45.636   4.887   8.401  0.00  0.00    +0.000 NA
ATOM     27  C   UNL     1      44.859   4.111   9.206  0.00  0.00    +0.000 A 
BRANCH  24  28
ATOM     28  C   UNL     1      47.671   2.274   6.537  0.00  0.00    +0.000 C 
ATOM     29  N   UNL     1      47.954   2.812   5.314  0.00  0.00    +0.000 N 
ATOM     30  O   UNL     1      48.237   1.243   6.886  0.00  0.00    +0.000 OA
ATOM     31  H   UNL     1      47.570   3.662   4.935  0.00  0.00    +0.000 HD
ATOM     32  H   UNL     1      48.641   2.315   4.759  0.00  0.00    +0.000 HD
ENDBRANCH  24  28
ENDBRANCH  19  27
ENDBRANCH   1  19
TORSDOF 7
ENDMDL
MODEL 2
REMARK VINA RESULT:    -8.946      3.173      4.535
REMARK INTER + INTRA:         -12.949
REMARK INTER:                 -11.857
REMARK INTRA:                  -1.092
REMARK UNBOUND:                -0.603
REMARK  Name = 
REMARK  8 active torsions:
REMARK  status: ('A' for Active; 'I' for Inactive)
REMARK    1  A    between atoms: C_1  and  C_2
REMARK    2  A    between atoms: C_4  and  C_5
REMARK    3  A    between atoms: C_10  and  N_11
REMARK    4  A    between atoms: N_11  and  C_12
REMARK    5  A    between atoms: C_12  and  C_13
REMARK    6  A    between atoms: C_17  and  C_18
REMARK    7  A    between atoms: C_21  and  C_22
REMARK    8  A    between atoms: C_22  and  O_23
REMARK                            x       y       z     vdW  Elec       q    Type
REMARK                         _______ _______ _______ _____ _____    ______ ____
ROOT
ATOM      1  C   UNL     1      43.758   5.385  11.097  0.00  0.00    +0.000 C 
ATOM      2  C   UNL     1      42.617   4.579  11.749  0.00  0.00    +0.000 C 
ATOM      3  C   UNL     1      42.552   6.059  11.728  0.00  0.00    +0.000 C 
ENDROOT
BRANCH   1   4
ATOM      4  C   UNL     1      45.060   5.468  11.912  0.00  0.00    +0.000 A 
ATOM      5  C   UNL     1      45.501   4.403  12.707  0.00  0.00    +0.000 A 
ATOM      6  C   UNL     1      46.736   4.453  13.352  0.00  0.00    +0.000 A 
ATOM      7  C   UNL     1      47.569   5.569  13.192  0.00  0.00    +0.000 A 
ATOM      8  C   UNL     1      47.189   6.655  12.391  0.00  0.00    +0.000 A 
ATOM      9  C   UNL     1      45.909   6.595  11.810  0.00  0.00    +0.000 A 
BRANCH   8  10
ATOM     10  C   UNL     1      48.121   7.765  12.081  0.00  0.00    +0.000 A 
ATOM     11  C   UNL     1      49.472   7.496  11.787  0.00  0.00    +0.000 A 
ATOM     12  C   UNL     1      50.363   8.514  11.433  0.00  0.00    +0.000 A 
ATOM     13  C   UNL     1      49.927   9.837  11.343  0.00  0.00    +0.000 A 
ATOM     14  C   UNL     1      48.583  10.119  11.611  0.00  0.00    +0.000 A 
ATOM     15  C   UNL     1      47.697   9.100  11.982  0.00  0.00    +0.000 A 
BRANCH  13  16
ATOM     16  C   UNL     1      50.888  10.939  10.989  0.00  0.00    +0.000 C 
BRANCH  16  17
ATOM     17  O   UNL     1      52.024  10.421  10.312  0.00  0.00    +0.000 OA
ATOM     18  H   UNL     1      51.908   9.456  10.265  0.00  0.00    +0.000 HD
ENDBRANCH  16  17
ENDBRANCH  13  16
ENDBRANCH   8  10
ENDBRANCH   1   4
BRANCH   1  19
ATOM     19  N   UNL     1      43.979   5.023   9.696  0.00  0.00    +0.000 N 
ATOM     20  H   UNL     1      43.268   5.329   9.036  0.00  0.00    +0.000 HD
BRANCH  19  27
ATOM     21  C   UNL     1      44.025   1.911  10.078  0.00  0.00    +0.000 C 
ATOM     22  C   UNL     1      44.879   2.741   9.178  0.00  0.00    +0.000 A 
ATOM     23  C   UNL     1      45.888   2.048   8.474  0.00  0.00    +0.000 A 
ATOM     24  C   UNL     1      46.736   2.696   7.584  0.00  0.00    +0.000 A 
ATOM     25  C   UNL     1      46.529   4.048   7.429  0.00  0.00    +0.000 A 
ATOM     26  N   UNL     1      45.596   4.756   8.125  0.00  0.00    +0.000 NA
ATOM     27  C   UNL     1      44.783   4.121   9.015  0.00  0.00    +0.000 A 
BRANCH  24  28
ATOM     28  C   UNL     1      47.776   1.899   6.889  0.00  0.00    +0.000 C 
ATOM     29  N   UNL     1      48.618   2.511   6.005  0.00  0.00    +0.000 N 
ATOM     30  O   UNL     1      47.897   0.698   7.102  0.00  0.00    +0.000 OA
ATOM     31  H   UNL     1      48.626   3.490   5.770  0.00  0.00    +0.000 HD
ATOM     32  H   UNL     1      49.316   1.916   5.572  0.00  0.00    +0.000 HD
ENDBRANCH  24  28
ENDBRANCH  19  27
ENDBRANCH   1  19
TORSDOF 7
ENDMDL
MODEL 3
REMARK VINA RESULT:    -8.605      2.669      8.302
REMARK INTER + INTRA:         -12.478
REMARK INTER:                 -11.295
REMARK INTRA:                  -1.183
REMARK UNBOUND:                -0.603
REMARK  Name = 
REMARK  8 active torsions:
REMARK  status: ('A' for Active; 'I' for Inactive)
REMARK    1  A    between atoms: C_1  and  C_2
REMARK    2  A    between atoms: C_4  and  C_5
REMARK    3  A    between atoms: C_10  and  N_11
REMARK    4  A    between atoms: N_11  and  C_12
REMARK    5  A    between atoms: C_12  and  C_13
REMARK    6  A    between atoms: C_17  and  C_18
REMARK    7  A    between atoms: C_21  and  C_22
REMARK    8  A    between atoms: C_22  and  O_23
REMARK                            x       y       z     vdW  Elec       q    Type
REMARK                         _______ _______ _______ _____ _____    ______ ____
ROOT
ATOM      1  C   UNL     1      46.231   7.317  12.690  0.00  0.00    +0.000 C 
ATOM      2  C   UNL     1      46.597   8.605  11.925  0.00  0.00    +0.000 C 
ATOM      3  C   UNL     1      45.648   8.671  13.061  0.00  0.00    +0.000 C 
ENDROOT
BRANCH   1   4
ATOM      4  C   UNL     1      45.270   6.365  11.961  0.00  0.00    +0.000 A 
ATOM      5  C   UNL     1      43.881   6.467  12.105  0.00  0.00    +0.000 A 
ATOM      6  C   UNL     1      43.020   5.667  11.353  0.00  0.00    +0.000 A 
ATOM      7  C   UNL     1      43.539   4.761  10.418  0.00  0.00    +0.000 A 
ATOM      8  C   UNL     1      44.921   4.632  10.215  0.00  0.00    +0.000 A 
ATOM      9  C   UNL     1      45.756   5.408  11.039  0.00  0.00    +0.000 A 
BRANCH   8  10
ATOM     10  C   UNL     1      45.478   3.801   9.121  0.00  0.00    +0.000 A 
ATOM     11  C   UNL     1      46.126   4.408   8.028  0.00  0.00    +0.000 A 
ATOM     12  C   UNL     1      46.713   3.652   7.010  0.00  0.00    +0.000 A 
ATOM     13  C   UNL     1      46.689   2.257   7.061  0.00  0.00    +0.000 A 
ATOM     14  C   UNL     1      46.070   1.636   8.151  0.00  0.00    +0.000 A 
ATOM     15  C   UNL     1      45.467   2.397   9.160  0.00  0.00    +0.000 A 
BRANCH  13  16
ATOM     16  C   UNL     1      47.297   1.439   5.954  0.00  0.00    +0.000 C 
BRANCH  16  17
ATOM     17  O   UNL     1      48.661   1.786   5.758  0.00  0.00    +0.000 OA
ATOM     18  H   UNL     1      49.177   0.969   5.863  0.00  0.00    +0.000 HD
ENDBRANCH  16  17
ENDBRANCH  13  16
ENDBRANCH   8  10
ENDBRANCH   1   4
BRANCH   1  19
ATOM     19  N   UNL     1      47.401   6.637  13.249  0.00  0.00    +0.000 N 
ATOM     20  H   UNL     1      48.174   6.476  12.608  0.00  0.00    +0.000 HD
BRANCH  19  27
ATOM     21  C   UNL     1      46.520   3.673  13.769  0.00  0.00    +0.000 C 
ATOM     22  C   UNL     1      47.261   4.588  14.686  0.00  0.00    +0.000 A 
ATOM     23  C   UNL     1      47.526   4.083  15.979  0.00  0.00    +0.000 A 
ATOM     24  C   UNL     1      48.231   4.821  16.922  0.00  0.00    +0.000 A 
ATOM     25  C   UNL     1      48.656   6.067  16.518  0.00  0.00    +0.000 A 
ATOM     26  N   UNL     1      48.380   6.602  15.296  0.00  0.00    +0.000 NA
ATOM     27  C   UNL     1      47.668   5.884  14.384  0.00  0.00    +0.000 A 
BRANCH  24  28
ATOM     28  C   UNL     1      48.461   4.225  18.260  0.00  0.00    +0.000 C 
ATOM     29  N   UNL     1      47.878   3.032  18.578  0.00  0.00    +0.000 N 
ATOM     30  O   UNL     1      49.173   4.785  19.086  0.00  0.00    +0.000 OA
ATOM     31  H   UNL     1      47.296   2.474  17.975  0.00  0.00    +0.000 HD
ATOM     32  H   UNL     1      48.084   2.670  19.502  0.00  0.00    +0.000 HD
ENDBRANCH  24  28
ENDBRANCH  19  27
ENDBRANCH   1  19
TORSDOF 7
ENDMDL
MODEL 4
REMARK VINA RESULT:    -7.997      3.089      3.916
REMARK INTER + INTRA:         -11.639
REMARK INTER:                 -11.197
REMARK INTRA:                  -0.443
REMARK UNBOUND:                -0.603
REMARK  Name = 
REMARK  8 active torsions:
REMARK  status: ('A' for Active; 'I' for Inactive)
REMARK    1  A    between atoms: C_1  and  C_2
REMARK    2  A    between atoms: C_4  and  C_5
REMARK    3  A    between atoms: C_10  and  N_11
REMARK    4  A    between atoms: N_11  and  C_12
REMARK    5  A    between atoms: C_12  and  C_13
REMARK    6  A    between atoms: C_17  and  C_18
REMARK    7  A    between atoms: C_21  and  C_22
REMARK    8  A    between atoms: C_22  and  O_23
REMARK                            x       y       z     vdW  Elec       q    Type
REMARK                         _______ _______ _______ _____ _____    ______ ____
ROOT
ATOM      1  C   UNL     1      44.838   5.764  11.584  0.00  0.00    +0.000 C 
ATOM      2  C   UNL     1      45.391   4.638  12.481  0.00  0.00    +0.000 C 
ATOM      3  C   UNL     1      44.131   5.322  12.854  0.00  0.00    +0.000 C 
ENDROOT
BRANCH   1   4
ATOM      4  C   UNL     1      45.579   7.108  11.676  0.00  0.00    +0.000 A 
ATOM      5  C   UNL     1      44.891   8.327  11.724  0.00  0.00    +0.000 A 
ATOM      6  C   UNL     1      45.572   9.528  11.917  0.00  0.00    +0.000 A 
ATOM      7  C   UNL     1      46.963   9.528  12.093  0.00  0.00    +0.000 A 
ATOM      8  C   UNL     1      47.701   8.336  12.076  0.00  0.00    +0.000 A 
ATOM      9  C   UNL     1      46.986   7.153  11.814  0.00  0.00    +0.000 A 
BRANCH   8  10
ATOM     10  C   UNL     1      49.142   8.301  12.421  0.00  0.00    +0.000 A 
ATOM     11  C   UNL     1      50.117   8.424  11.413  0.00  0.00    +0.000 A 
ATOM     12  C   UNL     1      51.482   8.454  11.711  0.00  0.00    +0.000 A 
ATOM     13  C   UNL     1      51.920   8.381  13.035  0.00  0.00    +0.000 A 
ATOM     14  C   UNL     1      50.964   8.281  14.052  0.00  0.00    +0.000 A 
ATOM     15  C   UNL     1      49.598   8.234  13.749  0.00  0.00    +0.000 A 
BRANCH  13  16
ATOM     16  C   UNL     1      53.389   8.387  13.359  0.00  0.00    +0.000 C 
BRANCH  16  17
ATOM     17  O   UNL     1      53.779   7.160  13.959  0.00  0.00    +0.000 OA
ATOM     18  H   UNL     1      54.678   7.289  14.306  0.00  0.00    +0.000 HD
ENDBRANCH  16  17
ENDBRANCH  13  16
ENDBRANCH   8  10
ENDBRANCH   1   4
BRANCH   1  19
ATOM     19  N   UNL     1      44.606   5.329  10.205  0.00  0.00    +0.000 N 
ATOM     20  H   UNL     1      43.725   5.617   9.786  0.00  0.00    +0.000 HD
BRANCH  19  27
ATOM     21  C   UNL     1      44.084   2.238  10.291  0.00  0.00    +0.000 C 
ATOM     22  C   UNL     1      44.993   2.993   9.380  0.00  0.00    +0.000 A 
ATOM     23  C   UNL     1      45.776   2.211   8.503  0.00  0.00    +0.000 A 
ATOM     24  C   UNL     1      46.645   2.788   7.585  0.00  0.00    +0.000 A 
ATOM     25  C   UNL     1      46.690   4.164   7.581  0.00  0.00    +0.000 A 
ATOM     26  N   UNL     1      45.982   4.948   8.441  0.00  0.00    +0.000 NA
ATOM     27  C   UNL     1      45.151   4.376   9.356  0.00  0.00    +0.000 A 
BRANCH  24  28
ATOM     28  C   UNL     1      47.440   1.898   6.705  0.00  0.00    +0.000 C 
ATOM     29  N   UNL     1      48.539   2.389   6.060  0.00  0.00    +0.000 N 
ATOM     30  O   UNL     1      47.129   0.721   6.552  0.00  0.00    +0.000 OA
ATOM     31  H   UNL     1      48.900   3.327   6.130  0.00  0.00    +0.000 HD
ATOM     32  H   UNL     1      49.048   1.729   5.484  0.00  0.00    +0.000 HD
ENDBRANCH  24  28
ENDBRANCH  19  27
ENDBRANCH   1  19
TORSDOF 7
ENDMDL
MODEL 5
REMARK VINA RESULT:    -7.630      3.051      8.105
REMARK INTER + INTRA:         -11.132
REMARK INTER:                 -10.270
REMARK INTRA:                  -0.862
REMARK UNBOUND:                -0.603
REMARK  Name = 
REMARK  8 active torsions:
REMARK  status: ('A' for Active; 'I' for Inactive)
REMARK    1  A    between atoms: C_1  and  C_2
REMARK    2  A    between atoms: C_4  and  C_5
REMARK    3  A    between atoms: C_10  and  N_11
REMARK    4  A    between atoms: N_11  and  C_12
REMARK    5  A    between atoms: C_12  and  C_13
REMARK    6  A    between atoms: C_17  and  C_18
REMARK    7  A    between atoms: C_21  and  C_22
REMARK    8  A    between atoms: C_22  and  O_23
REMARK                            x       y       z     vdW  Elec       q    Type
REMARK                         _______ _______ _______ _____ _____    ______ ____
ROOT
ATOM      1  C   UNL     1      48.448   8.432  13.364  0.00  0.00    +0.000 C 
ATOM      2  C   UNL     1      49.474   9.141  12.457  0.00  0.00    +0.000 C 
ATOM      3  C   UNL     1      48.833   9.889  13.563  0.00  0.00    +0.000 C 
ENDROOT
BRANCH   1   4
ATOM      4  C   UNL     1      47.063   8.197  12.739  0.00  0.00    +0.000 A 
ATOM      5  C   UNL     1      46.145   9.240  12.567  0.00  0.00    +0.000 A 
ATOM      6  C   UNL     1      44.938   9.032  11.901  0.00  0.00    +0.000 A 
ATOM      7  C   UNL     1      44.637   7.771  11.369  0.00  0.00    +0.000 A 
ATOM      8  C   UNL     1      45.527   6.695  11.492  0.00  0.00    +0.000 A 
ATOM      9  C   UNL     1      46.704   6.928  12.227  0.00  0.00    +0.000 A 
BRANCH   8  10
ATOM     10  C   UNL     1      45.299   5.405  10.798  0.00  0.00    +0.000 A 
ATOM     11  C   UNL     1      45.624   5.264   9.436  0.00  0.00    +0.000 A 
ATOM     12  C   UNL     1      45.476   4.046   8.767  0.00  0.00    +0.000 A 
ATOM     13  C   UNL     1      45.013   2.918   9.446  0.00  0.00    +0.000 A 
ATOM     14  C   UNL     1      44.705   3.033  10.806  0.00  0.00    +0.000 A 
ATOM     15  C   UNL     1      44.839   4.259  11.469  0.00  0.00    +0.000 A 
BRANCH  13  16
ATOM     16  C   UNL     1      44.827   1.610   8.725  0.00  0.00    +0.000 C 
BRANCH  16  17
ATOM     17  O   UNL     1      46.081   1.045   8.371  0.00  0.00    +0.000 OA
ATOM     18  H   UNL     1      46.491   0.731   9.196  0.00  0.00    +0.000 HD
ENDBRANCH  16  17
ENDBRANCH  13  16
ENDBRANCH   8  10
ENDBRANCH   1   4
BRANCH   1  19
ATOM     19  N   UNL     1      48.995   7.241  14.016  0.00  0.00    +0.000 N 
ATOM     20  H   UNL     1      49.698   6.725  13.491  0.00  0.00    +0.000 HD
BRANCH  19  27
ATOM     21  C   UNL     1      49.648   7.728  17.044  0.00  0.00    +0.000 C 
ATOM     22  C   UNL     1      48.930   6.572  16.431  0.00  0.00    +0.000 A 
ATOM     23  C   UNL     1      48.574   5.529  17.315  0.00  0.00    +0.000 A 
ATOM     24  C   UNL     1      47.880   4.407  16.880  0.00  0.00    +0.000 A 
ATOM     25  C   UNL     1      47.559   4.377  15.541  0.00  0.00    +0.000 A 
ATOM     26  N   UNL     1      47.924   5.343  14.653  0.00  0.00    +0.000 NA
ATOM     27  C   UNL     1      48.627   6.430  15.080  0.00  0.00    +0.000 A 
BRANCH  24  28
ATOM     28  C   UNL     1      47.550   3.351  17.868  0.00  0.00    +0.000 C 
ATOM     29  N   UNL     1      48.334   3.191  18.974  0.00  0.00    +0.000 N 
ATOM     30  O   UNL     1      46.577   2.621  17.710  0.00  0.00    +0.000 OA
ATOM     31  H   UNL     1      49.140   3.745  19.218  0.00  0.00    +0.000 HD
ATOM     32  H   UNL     1      48.050   2.462  19.618  0.00  0.00    +0.000 HD
ENDBRANCH  24  28
ENDBRANCH  19  27
ENDBRANCH   1  19
TORSDOF 7
ENDMDL
MODEL 6
REMARK VINA RESULT:    -7.578      4.704      8.709
REMARK INTER + INTRA:         -11.061
REMARK INTER:                  -9.944
REMARK INTRA:                  -1.117
REMARK UNBOUND:                -0.603
REMARK  Name = 
REMARK  8 active torsions:
REMARK  status: ('A' for Active; 'I' for Inactive)
REMARK    1  A    between atoms: C_1  and  C_2
REMARK    2  A    between atoms: C_4  and  C_5
REMARK    3  A    between atoms: C_10  and  N_11
REMARK    4  A    between atoms: N_11  and  C_12
REMARK    5  A    between atoms: C_12  and  C_13
REMARK    6  A    between atoms: C_17  and  C_18
REMARK    7  A    between atoms: C_21  and  C_22
REMARK    8  A    between atoms: C_22  and  O_23
REMARK                            x       y       z     vdW  Elec       q    Type
REMARK                         _______ _______ _______ _____ _____    ______ ____
ROOT
ATOM      1  C   UNL     1      48.927   5.502  17.602  0.00  0.00    +0.000 C 
ATOM      2  C   UNL     1      48.335   6.374  18.726  0.00  0.00    +0.000 C 
ATOM      3  C   UNL     1      47.584   5.193  18.241  0.00  0.00    +0.000 C 
ENDROOT
BRANCH   1   4
ATOM      4  C   UNL     1      48.860   6.106  16.190  0.00  0.00    +0.000 A 
ATOM      5  C   UNL     1      49.850   6.973  15.711  0.00  0.00    +0.000 A 
ATOM      6  C   UNL     1      49.832   7.426  14.392  0.00  0.00    +0.000 A 
ATOM      7  C   UNL     1      48.828   6.995  13.515  0.00  0.00    +0.000 A 
ATOM      8  C   UNL     1      47.823   6.110  13.932  0.00  0.00    +0.000 A 
ATOM      9  C   UNL     1      47.839   5.729  15.286  0.00  0.00    +0.000 A 
BRANCH   8  10
ATOM     10  C   UNL     1      46.854   5.519  12.979  0.00  0.00    +0.000 A 
ATOM     11  C   UNL     1      46.203   4.309  13.287  0.00  0.00    +0.000 A 
ATOM     12  C   UNL     1      45.241   3.756  12.437  0.00  0.00    +0.000 A 
ATOM     13  C   UNL     1      44.882   4.407  11.256  0.00  0.00    +0.000 A 
ATOM     14  C   UNL     1      45.501   5.622  10.945  0.00  0.00    +0.000 A 
ATOM     15  C   UNL     1      46.477   6.165  11.789  0.00  0.00    +0.000 A 
BRANCH  13  16
ATOM     16  C   UNL     1      43.866   3.803  10.325  0.00  0.00    +0.000 C 
BRANCH  16  17
ATOM     17  O   UNL     1      43.674   4.625   9.183  0.00  0.00    +0.000 OA
ATOM     18  H   UNL     1      44.108   5.475   9.372  0.00  0.00    +0.000 HD
ENDBRANCH  16  17
ENDBRANCH  13  16
ENDBRANCH   8  10
ENDBRANCH   1   4
BRANCH   1  19
ATOM     19  N   UNL     1      50.248   4.965  17.936  0.00  0.00    +0.000 N 
ATOM     20  H   UNL     1      50.958   5.648  18.191  0.00  0.00    +0.000 HD
BRANCH  19  27
ATOM     21  C   UNL     1      49.023   2.325  16.770  0.00  0.00    +0.000 C 
ATOM     22  C   UNL     1      50.407   2.551  17.280  0.00  0.00    +0.000 A 
ATOM     23  C   UNL     1      51.243   1.413  17.319  0.00  0.00    +0.000 A 
ATOM     24  C   UNL     1      52.563   1.489  17.748  0.00  0.00    +0.000 A 
ATOM     25  C   UNL     1      53.003   2.738  18.126  0.00  0.00    +0.000 A 
ATOM     26  N   UNL     1      52.212   3.847  18.143  0.00  0.00    +0.000 NA
ATOM     27  C   UNL     1      50.912   3.762  17.746  0.00  0.00    +0.000 A 
BRANCH  24  28
ATOM     28  C   UNL     1      53.374   0.248  17.768  0.00  0.00    +0.000 C 
ATOM     29  N   UNL     1      53.873  -0.253  16.600  0.00  0.00    +0.000 N 
ATOM     30  O   UNL     1      53.610  -0.334  18.822  0.00  0.00    +0.000 OA
ATOM     31  H   UNL     1      53.763   0.151  15.684  0.00  0.00    +0.000 HD
ATOM     32  H   UNL     1      54.430  -1.096  16.681  0.00  0.00    +0.000 HD
ENDBRANCH  24  28
ENDBRANCH  19  27
ENDBRANCH   1  19
TORSDOF 7
ENDMDL
MODEL 7
REMARK VINA RESULT:    -7.394      3.501      7.712
REMARK INTER + INTRA:         -10.807
REMARK INTER:                  -9.327
REMARK INTRA:                  -1.480
REMARK UNBOUND:                -0.603
REMARK  Name = 
REMARK  8 active torsions:
REMARK  status: ('A' for Active; 'I' for Inactive)
REMARK    1  A    between atoms: C_1  and  C_2
REMARK    2  A    between atoms: C_4  and  C_5
REMARK    3  A    between atoms: C_10  and  N_11
REMARK    4  A    between atoms: N_11  and  C_12
REMARK    5  A    between atoms: C_12  and  C_13
REMARK    6  A    between atoms: C_17  and  C_18
REMARK    7  A    between atoms: C_21  and  C_22
REMARK    8  A    between atoms: C_22  and  O_23
REMARK                            x       y       z     vdW  Elec       q    Type
REMARK                         _______ _______ _______ _____ _____    ______ ____
ROOT
ATOM      1  C   UNL     1      46.680   4.728  14.214  0.00  0.00    +0.000 C 
ATOM      2  C   UNL     1      46.378   4.109  15.593  0.00  0.00    +0.000 C 
ATOM      3  C   UNL     1      47.379   3.471  14.706  0.00  0.00    +0.000 C 
ENDROOT
BRANCH   1   4
ATOM      4  C   UNL     1      45.605   4.504  13.138  0.00  0.00    +0.000 A 
ATOM      5  C   UNL     1      44.283   4.930  13.318  0.00  0.00    +0.000 A 
ATOM      6  C   UNL     1      43.347   4.819  12.290  0.00  0.00    +0.000 A 
ATOM      7  C   UNL     1      43.726   4.296  11.046  0.00  0.00    +0.000 A 
ATOM      8  C   UNL     1      45.041   3.874  10.802  0.00  0.00    +0.000 A 
ATOM      9  C   UNL     1      45.938   3.943  11.883  0.00  0.00    +0.000 A 
BRANCH   8  10
ATOM     10  C   UNL     1      45.497   3.474   9.450  0.00  0.00    +0.000 A 
ATOM     11  C   UNL     1      45.898   4.450   8.518  0.00  0.00    +0.000 A 
ATOM     12  C   UNL     1      46.389   4.102   7.256  0.00  0.00    +0.000 A 
ATOM     13  C   UNL     1      46.513   2.761   6.889  0.00  0.00    +0.000 A 
ATOM     14  C   UNL     1      46.140   1.777   7.810  0.00  0.00    +0.000 A 
ATOM     15  C   UNL     1      45.633   2.128   9.067  0.00  0.00    +0.000 A 
BRANCH  13  16
ATOM     16  C   UNL     1      47.015   2.383   5.522  0.00  0.00    +0.000 C 
BRANCH  16  17
ATOM     17  O   UNL     1      48.333   1.857   5.596  0.00  0.00    +0.000 OA
ATOM     18  H   UNL     1      48.709   2.158   6.441  0.00  0.00    +0.000 HD
ENDBRANCH  16  17
ENDBRANCH  13  16
ENDBRANCH   8  10
ENDBRANCH   1   4
BRANCH   1  19
ATOM     19  N   UNL     1      47.125   6.120  14.302  0.00  0.00    +0.000 N 
ATOM     20  H   UNL     1      46.610   6.716  14.945  0.00  0.00    +0.000 HD
BRANCH  19  27
ATOM     21  C   UNL     1      46.211   7.765  11.794  0.00  0.00    +0.000 C 
ATOM     22  C   UNL     1      47.577   7.676  12.389  0.00  0.00    +0.000 A 
ATOM     23  C   UNL     1      48.601   8.350  11.687  0.00  0.00    +0.000 A 
ATOM     24  C   UNL     1      49.913   8.368  12.144  0.00  0.00    +0.000 A 
ATOM     25  C   UNL     1      50.150   7.696  13.322  0.00  0.00    +0.000 A 
ATOM     26  N   UNL     1      49.197   6.999  14.002  0.00  0.00    +0.000 NA
ATOM     27  C   UNL     1      47.917   6.963  13.535  0.00  0.00    +0.000 A 
BRANCH  24  28
ATOM     28  C   UNL     1      50.932   9.091  11.346  0.00  0.00    +0.000 C 
ATOM     29  N   UNL     1      51.799   8.387  10.560  0.00  0.00    +0.000 N 
ATOM     30  O   UNL     1      51.004  10.315  11.375  0.00  0.00    +0.000 OA
ATOM     31  H   UNL     1      51.817   7.388  10.441  0.00  0.00    +0.000 HD
ATOM     32  H   UNL     1      52.463   8.939  10.028  0.00  0.00    +0.000 HD
ENDBRANCH  24  28
ENDBRANCH  19  27
ENDBRANCH   1  19
TORSDOF 7
ENDMDL
MODEL 8
REMARK VINA RESULT:    -7.369      2.903      5.137
REMARK INTER + INTRA:         -10.772
REMARK INTER:                  -9.524
REMARK INTRA:                  -1.248
REMARK UNBOUND:                -0.603
REMARK  Name = 
REMARK  8 active torsions:
REMARK  status: ('A' for Active; 'I' for Inactive)
REMARK    1  A    between atoms: C_1  and  C_2
REMARK    2  A    between atoms: C_4  and  C_5
REMARK    3  A    between atoms: C_10  and  N_11
REMARK    4  A    between atoms: N_11  and  C_12
REMARK    5  A    between atoms: C_12  and  C_13
REMARK    6  A    between atoms: C_17  and  C_18
REMARK    7  A    between atoms: C_21  and  C_22
REMARK    8  A    between atoms: C_22  and  O_23
REMARK                            x       y       z     vdW  Elec       q    Type
REMARK                         _______ _______ _______ _____ _____    ______ ____
ROOT
ATOM      1  C   UNL     1      48.217   8.052  13.869  0.00  0.00    +0.000 C 
ATOM      2  C   UNL     1      48.583   9.409  13.235  0.00  0.00    +0.000 C 
ATOM      3  C   UNL     1      49.306   8.185  12.816  0.00  0.00    +0.000 C 
ENDROOT
BRANCH   1   4
ATOM      4  C   UNL     1      48.716   7.837  15.307  0.00  0.00    +0.000 A 
ATOM      5  C   UNL     1      48.307   8.664  16.360  0.00  0.00    +0.000 A 
ATOM      6  C   UNL     1      48.681   8.390  17.676  0.00  0.00    +0.000 A 
ATOM      7  C   UNL     1      49.458   7.260  17.965  0.00  0.00    +0.000 A 
ATOM      8  C   UNL     1      49.878   6.384  16.953  0.00  0.00    +0.000 A 
ATOM      9  C   UNL     1      49.535   6.731  15.634  0.00  0.00    +0.000 A 
BRANCH   8  10
ATOM     10  C   UNL     1      50.558   5.103  17.259  0.00  0.00    +0.000 A 
ATOM     11  C   UNL     1      49.838   3.893  17.233  0.00  0.00    +0.000 A 
ATOM     12  C   UNL     1      50.461   2.662  17.459  0.00  0.00    +0.000 A 
ATOM     13  C   UNL     1      51.835   2.598  17.700  0.00  0.00    +0.000 A 
ATOM     14  C   UNL     1      52.570   3.788  17.707  0.00  0.00    +0.000 A 
ATOM     15  C   UNL     1      51.940   5.021  17.498  0.00  0.00    +0.000 A 
BRANCH  13  16
ATOM     16  C   UNL     1      52.506   1.279  17.969  0.00  0.00    +0.000 C 
BRANCH  16  17
ATOM     17  O   UNL     1      51.544   0.246  18.131  0.00  0.00    +0.000 OA
ATOM     18  H   UNL     1      52.029  -0.597  18.106  0.00  0.00    +0.000 HD
ENDBRANCH  16  17
ENDBRANCH  13  16
ENDBRANCH   8  10
ENDBRANCH   1   4
BRANCH   1  19
ATOM     19  N   UNL     1      46.806   7.705  13.692  0.00  0.00    +0.000 N 
ATOM     20  H   UNL     1      46.157   8.113  14.360  0.00  0.00    +0.000 HD
BRANCH  19  27
ATOM     21  C   UNL     1      46.796   4.629  14.300  0.00  0.00    +0.000 C 
ATOM     22  C   UNL     1      46.096   5.351  13.198  0.00  0.00    +0.000 A 
ATOM     23  C   UNL     1      45.412   4.541  12.266  0.00  0.00    +0.000 A 
ATOM     24  C   UNL     1      44.698   5.086  11.206  0.00  0.00    +0.000 A 
ATOM     25  C   UNL     1      44.696   6.461  11.125  0.00  0.00    +0.000 A 
ATOM     26  N   UNL     1      45.380   7.271  11.980  0.00  0.00    +0.000 NA
ATOM     27  C   UNL     1      46.099   6.730  13.002  0.00  0.00    +0.000 A 
BRANCH  24  28
ATOM     28  C   UNL     1      44.014   4.167  10.264  0.00  0.00    +0.000 C 
ATOM     29  N   UNL     1      44.093   4.394   8.920  0.00  0.00    +0.000 N 
ATOM     30  O   UNL     1      43.382   3.200  10.675  0.00  0.00    +0.000 OA
ATOM     31  H   UNL     1      44.600   5.139   8.471  0.00  0.00    +0.000 HD
ATOM     32  H   UNL     1      43.616   3.724   8.328  0.00  0.00    +0.000 HD
ENDBRANCH  24  28
ENDBRANCH  19  27
ENDBRANCH   1  19
TORSDOF 7
ENDMDL
MODEL 9
REMARK VINA RESULT:    -7.234      4.367      8.190
REMARK INTER + INTRA:         -10.586
REMARK INTER:                  -9.399
REMARK INTRA:                  -1.187
REMARK UNBOUND:                -0.603
REMARK  Name = 
REMARK  8 active torsions:
REMARK  status: ('A' for Active; 'I' for Inactive)
REMARK    1  A    between atoms: C_1  and  C_2
REMARK    2  A    between atoms: C_4  and  C_5
REMARK    3  A    between atoms: C_10  and  N_11
REMARK    4  A    between atoms: N_11  and  C_12
REMARK    5  A    between atoms: C_12  and  C_13
REMARK    6  A    between atoms: C_17  and  C_18
REMARK    7  A    between atoms: C_21  and  C_22
REMARK    8  A    between atoms: C_22  and  O_23
REMARK                            x       y       z     vdW  Elec       q    Type
REMARK                         _______ _______ _______ _____ _____    ______ ____
ROOT
ATOM      1  C   UNL     1      48.749   8.137  16.735  0.00  0.00    +0.000 C 
ATOM      2  C   UNL     1      49.702   9.216  17.286  0.00  0.00    +0.000 C 
ATOM      3  C   UNL     1      48.263   9.525  17.114  0.00  0.00    +0.000 C 
ENDROOT
BRANCH   1   4
ATOM      4  C   UNL     1      48.857   7.867  15.225  0.00  0.00    +0.000 A 
ATOM      5  C   UNL     1      50.024   8.157  14.506  0.00  0.00    +0.000 A 
ATOM      6  C   UNL     1      50.145   7.807  13.162  0.00  0.00    +0.000 A 
ATOM      7  C   UNL     1      49.100   7.132  12.514  0.00  0.00    +0.000 A 
ATOM      8  C   UNL     1      47.918   6.797  13.190  0.00  0.00    +0.000 A 
ATOM      9  C   UNL     1      47.809   7.225  14.525  0.00  0.00    +0.000 A 
BRANCH   8  10
ATOM     10  C   UNL     1      46.876   5.944  12.569  0.00  0.00    +0.000 A 
ATOM     11  C   UNL     1      46.359   6.264  11.300  0.00  0.00    +0.000 A 
ATOM     12  C   UNL     1      45.419   5.450  10.662  0.00  0.00    +0.000 A 
ATOM     13  C   UNL     1      44.978   4.272  11.267  0.00  0.00    +0.000 A 
ATOM     14  C   UNL     1      45.497   3.926  12.519  0.00  0.00    +0.000 A 
ATOM     15  C   UNL     1      46.425   4.753  13.163  0.00  0.00    +0.000 A 
BRANCH  13  16
ATOM     16  C   UNL     1      43.947   3.405  10.597  0.00  0.00    +0.000 C 
BRANCH  16  17
ATOM     17  O   UNL     1      42.752   3.356  11.363  0.00  0.00    +0.000 OA
ATOM     18  H   UNL     1      42.472   2.424  11.389  0.00  0.00    +0.000 HD
ENDBRANCH  16  17
ENDBRANCH  13  16
ENDBRANCH   8  10
ENDBRANCH   1   4
BRANCH   1  19
ATOM     19  N   UNL     1      48.752   6.913  17.539  0.00  0.00    +0.000 N 
ATOM     20  H   UNL     1      48.454   7.012  18.507  0.00  0.00    +0.000 HD
BRANCH  19  27
ATOM     21  C   UNL     1      47.234   4.245  16.897  0.00  0.00    +0.000 C 
ATOM     22  C   UNL     1      48.685   4.431  17.195  0.00  0.00    +0.000 A 
ATOM     23  C   UNL     1      49.453   3.248  17.280  0.00  0.00    +0.000 A 
ATOM     24  C   UNL     1      50.820   3.280  17.527  0.00  0.00    +0.000 A 
ATOM     25  C   UNL     1      51.377   4.530  17.677  0.00  0.00    +0.000 A 
ATOM     26  N   UNL     1      50.660   5.688  17.646  0.00  0.00    +0.000 NA
ATOM     27  C   UNL     1      49.315   5.650  17.429  0.00  0.00    +0.000 A 
BRANCH  24  28
ATOM     28  C   UNL     1      51.555   1.995  17.610  0.00  0.00    +0.000 C 
ATOM     29  N   UNL     1      52.615   1.876  18.462  0.00  0.00    +0.000 N 
ATOM     30  O   UNL     1      51.220   1.032  16.928  0.00  0.00    +0.000 OA
ATOM     31  H   UNL     1      52.963   2.588  19.084  0.00  0.00    +0.000 HD
ATOM     32  H   UNL     1      53.068   0.969  18.484  0.00  0.00    +0.000 HD
ENDBRANCH  24  28
ENDBRANCH  19  27
ENDBRANCH   1  19
TORSDOF 7
ENDMDL
