MODEL 1
REMARK VINA RESULT:   -10.005      0.000      0.000
REMARK INTER + INTRA:         -13.852
REMARK INTER:                 -12.929
REMARK INTRA:                  -0.923
REMARK UNBOUND:                -0.923
REMARK  Name = 
REMARK  5 active torsions:
REMARK  status: ('A' for Active; 'I' for Inactive)
REMARK    1  A    between atoms: C_2  and  C_4
REMARK    2  A    between atoms: N_8  and  C_9
REMARK    3  A    between atoms: C_9  and  C_10
REMARK    4  A    between atoms: C_10  and  C_13
REMARK    5  A    between atoms: C_17  and  C_18
REMARK                            x       y       z     vdW  Elec       q    Type
REMARK                         _______ _______ _______ _____ _____    ______ ____
ROOT
ATOM      1  C   UNL     1      43.520   5.671  12.035  0.00  0.00    +0.000 C 
ATOM      2  F   UNL     1      42.939   6.769  11.465  0.00  0.00    +0.000 F 
ATOM      3  F   UNL     1      42.820   5.448  13.188  0.00  0.00    +0.000 F 
ENDROOT
BRANCH   1   4
ATOM      4  C   UNL     1      44.997   5.889  12.317  0.00  0.00    +0.000 A 
ATOM      5  C   UNL     1      45.790   6.654  11.458  0.00  0.00    +0.000 A 
ATOM      6  C   UNL     1      47.142   6.840  11.736  0.00  0.00    +0.000 A 
ATOM      7  C   UNL     1      47.708   6.272  12.882  0.00  0.00    +0.000 A 
ATOM      8  C   UNL     1      46.942   5.514  13.786  0.00  0.00    +0.000 A 
ATOM      9  C   UNL     1      45.584   5.324  13.467  0.00  0.00    +0.000 A 
BRANCH   8  10
ATOM     10  C   UNL     1      47.531   4.966  15.033  0.00  0.00    +0.000 A 
ATOM     11  C   UNL     1      47.328   3.628  15.423  0.00  0.00    +0.000 A 
ATOM     12  C   UNL     1      47.878   3.119  16.606  0.00  0.00    +0.000 A 
ATOM     13  C   UNL     1      48.653   3.939  17.414  0.00  0.00    +0.000 A 
ATOM     14  F   UNL     1      49.185   3.428  18.534  0.00  0.00    +0.000 F 
ATOM     15  C   UNL     1      48.871   5.264  17.061  0.00  0.00    +0.000 A 
ATOM     16 CL   UNL     1      49.837   6.291  18.051  0.00  0.00    +0.000 Cl
ATOM     17  C   UNL     1      48.307   5.776  15.888  0.00  0.00    +0.000 A 
ENDBRANCH   8  10
ENDBRANCH   1   4
BRANCH   1  18
ATOM     18  C   UNL     1      43.313   4.464  11.084  0.00  0.00    +0.000 C 
BRANCH  18  23
ATOM     19  C   UNL     1      46.500   2.480   7.641  0.00  0.00    +0.000 A 
ATOM     20  C   UNL     1      45.680   1.838   8.562  0.00  0.00    +0.000 A 
ATOM     21  C   UNL     1      44.747   2.588   9.279  0.00  0.00    +0.000 A 
ATOM     22  C   UNL     1      44.662   3.961   9.080  0.00  0.00    +0.000 A 
ATOM     23  N   UNL     1      43.708   4.750   9.698  0.00  0.00    +0.000 N 
ATOM     24  N   UNL     1      45.470   4.600   8.210  0.00  0.00    +0.000 NA
ATOM     25  C   UNL     1      46.373   3.854   7.515  0.00  0.00    +0.000 A 
ATOM     26  H   UNL     1      43.918   5.727   9.493  0.00  0.00    +0.000 HD
BRANCH  19  28
ATOM     27  N   UNL     1      48.592   2.458   6.410  0.00  0.00    +0.000 N 
ATOM     28  C   UNL     1      47.488   1.759   6.816  0.00  0.00    +0.000 C 
ATOM     29  O   UNL     1      47.345   0.577   6.531  0.00  0.00    +0.000 OA
ATOM     30  H   UNL     1      49.311   1.928   5.931  0.00  0.00    +0.000 HD
ATOM     31  H   UNL     1      48.866   3.336   6.829  0.00  0.00    +0.000 HD
ENDBRANCH  19  28
ENDBRANCH  18  23
ENDBRANCH   1  18
TORSDOF 5
ENDMDL
MODEL 2
REMARK VINA RESULT:    -9.974      2.624      4.139
REMARK INTER + INTRA:         -13.813
REMARK INTER:                 -12.702
REMARK INTRA:                  -1.111
REMARK UNBOUND:                -0.923
REMARK  Name = 
REMARK  5 active torsions:
REMARK  status: ('A' for Active; 'I' for Inactive)
REMARK    1  A    between atoms: C_2  and  C_4
REMARK    2  A    between atoms: N_8  and  C_9
REMARK    3  A    between atoms: C_9  and  C_10
REMARK    4  A    between atoms: C_10  and  C_13
REMARK    5  A    between atoms: C_17  and  C_18
REMARK                            x       y       z     vdW  Elec       q    Type
REMARK                         _______ _______ _______ _____ _____    ______ ____
ROOT
ATOM      1  C   UNL     1      43.452   5.544  12.138  0.00  0.00    +0.000 C 
ATOM      2  F   UNL     1      43.053   6.702  11.532  0.00  0.00    +0.000 F 
ATOM      3  F   UNL     1      42.590   5.369  13.185  0.00  0.00    +0.000 F 
ENDROOT
BRANCH   1   4
ATOM      4  C   UNL     1      44.893   5.616  12.614  0.00  0.00    +0.000 A 
ATOM      5  C   UNL     1      45.438   4.611  13.419  0.00  0.00    +0.000 A 
ATOM      6  C   UNL     1      46.761   4.699  13.843  0.00  0.00    +0.000 A 
ATOM      7  C   UNL     1      47.552   5.786  13.459  0.00  0.00    +0.000 A 
ATOM      8  C   UNL     1      47.052   6.807  12.631  0.00  0.00    +0.000 A 
ATOM      9  C   UNL     1      45.705   6.704  12.235  0.00  0.00    +0.000 A 
BRANCH   8  10
ATOM     10  C   UNL     1      47.912   7.926  12.172  0.00  0.00    +0.000 A 
ATOM     11  C   UNL     1      47.417   9.240  12.049  0.00  0.00    +0.000 A 
ATOM     12  C   UNL     1      48.231  10.290  11.606  0.00  0.00    +0.000 A 
ATOM     13  C   UNL     1      49.560  10.045  11.291  0.00  0.00    +0.000 A 
ATOM     14  F   UNL     1      50.327  11.067  10.885  0.00  0.00    +0.000 F 
ATOM     15  C   UNL     1      50.080   8.762  11.399  0.00  0.00    +0.000 A 
ATOM     16 CL   UNL     1      51.730   8.446  11.018  0.00  0.00    +0.000 Cl
ATOM     17  C   UNL     1      49.262   7.711  11.824  0.00  0.00    +0.000 A 
ENDBRANCH   8  10
ENDBRANCH   1   4
BRANCH   1  18
ATOM     18  C   UNL     1      43.260   4.379  11.133  0.00  0.00    +0.000 C 
BRANCH  18  23
ATOM     19  C   UNL     1      46.501   2.532   7.664  0.00  0.00    +0.000 A 
ATOM     20  C   UNL     1      45.662   1.854   8.541  0.00  0.00    +0.000 A 
ATOM     21  C   UNL     1      44.720   2.576   9.274  0.00  0.00    +0.000 A 
ATOM     22  C   UNL     1      44.643   3.957   9.133  0.00  0.00    +0.000 A 
ATOM     23  N   UNL     1      43.680   4.723   9.768  0.00  0.00    +0.000 N 
ATOM     24  N   UNL     1      45.468   4.629   8.306  0.00  0.00    +0.000 NA
ATOM     25  C   UNL     1      46.381   3.911   7.595  0.00  0.00    +0.000 A 
ATOM     26  H   UNL     1      43.897   5.707   9.609  0.00  0.00    +0.000 HD
BRANCH  19  28
ATOM     27  N   UNL     1      48.555   2.587   6.373  0.00  0.00    +0.000 N 
ATOM     28  C   UNL     1      47.501   1.842   6.826  0.00  0.00    +0.000 C 
ATOM     29  O   UNL     1      47.410   0.649   6.570  0.00  0.00    +0.000 OA
ATOM     30  H   UNL     1      49.286   2.083   5.885  0.00  0.00    +0.000 HD
ATOM     31  H   UNL     1      48.796   3.486   6.765  0.00  0.00    +0.000 HD
ENDBRANCH  19  28
ENDBRANCH  18  23
ENDBRANCH   1  18
TORSDOF 5
ENDMDL
MODEL 3
REMARK VINA RESULT:    -8.929      3.151      3.827
REMARK INTER + INTRA:         -12.462
REMARK INTER:                 -11.621
REMARK INTRA:                  -0.841
REMARK UNBOUND:                -0.923
REMARK  Name = 
REMARK  5 active torsions:
REMARK  status: ('A' for Active; 'I' for Inactive)
REMARK    1  A    between atoms: C_2  and  C_4
REMARK    2  A    between atoms: N_8  and  C_9
REMARK    3  A    between atoms: C_9  and  C_10
REMARK    4  A    between atoms: C_10  and  C_13
REMARK    5  A    between atoms: C_17  and  C_18
REMARK                            x       y       z     vdW  Elec       q    Type
REMARK                         _______ _______ _______ _____ _____    ______ ____
ROOT
ATOM      1  C   UNL     1      44.667   4.887  12.298  0.00  0.00    +0.000 C 
ATOM      2  F   UNL     1      44.142   4.671  13.542  0.00  0.00    +0.000 F 
ATOM      3  F   UNL     1      45.644   3.944  12.149  0.00  0.00    +0.000 F 
ENDROOT
BRANCH   1   4
ATOM      4  C   UNL     1      45.225   6.292  12.152  0.00  0.00    +0.000 A 
ATOM      5  C   UNL     1      44.384   7.382  11.908  0.00  0.00    +0.000 A 
ATOM      6  C   UNL     1      44.918   8.661  11.776  0.00  0.00    +0.000 A 
ATOM      7  C   UNL     1      46.296   8.862  11.898  0.00  0.00    +0.000 A 
ATOM      8  C   UNL     1      47.177   7.799  12.166  0.00  0.00    +0.000 A 
ATOM      9  C   UNL     1      46.612   6.514  12.272  0.00  0.00    +0.000 A 
BRANCH   8  10
ATOM     10  C   UNL     1      48.632   8.025  12.358  0.00  0.00    +0.000 A 
ATOM     11  C   UNL     1      49.148   8.545  13.561  0.00  0.00    +0.000 A 
ATOM     12  C   UNL     1      50.521   8.766  13.733  0.00  0.00    +0.000 A 
ATOM     13  C   UNL     1      51.402   8.456  12.707  0.00  0.00    +0.000 A 
ATOM     14  F   UNL     1      52.714   8.658  12.898  0.00  0.00    +0.000 F 
ATOM     15  C   UNL     1      50.927   7.943  11.507  0.00  0.00    +0.000 A 
ATOM     16 CL   UNL     1      52.010   7.547  10.229  0.00  0.00    +0.000 Cl
ATOM     17  C   UNL     1      49.554   7.740  11.330  0.00  0.00    +0.000 A 
ENDBRANCH   8  10
ENDBRANCH   1   4
BRANCH   1  18
ATOM     18  C   UNL     1      43.555   4.624  11.250  0.00  0.00    +0.000 C 
BRANCH  18  23
ATOM     19  C   UNL     1      46.526   2.533   7.680  0.00  0.00    +0.000 A 
ATOM     20  C   UNL     1      45.650   1.923   8.571  0.00  0.00    +0.000 A 
ATOM     21  C   UNL     1      44.797   2.719   9.335  0.00  0.00    +0.000 A 
ATOM     22  C   UNL     1      44.843   4.103   9.211  0.00  0.00    +0.000 A 
ATOM     23  N   UNL     1      43.971   4.946   9.878  0.00  0.00    +0.000 N 
ATOM     24  N   UNL     1      45.706   4.708   8.370  0.00  0.00    +0.000 NA
ATOM     25  C   UNL     1      46.531   3.918   7.628  0.00  0.00    +0.000 A 
ATOM     26  H   UNL     1      44.273   5.908   9.724  0.00  0.00    +0.000 HD
BRANCH  19  28
ATOM     27  N   UNL     1      48.539   2.420   6.328  0.00  0.00    +0.000 N 
ATOM     28  C   UNL     1      47.438   1.766   6.809  0.00  0.00    +0.000 C 
ATOM     29  O   UNL     1      47.236   0.587   6.550  0.00  0.00    +0.000 OA
ATOM     30  H   UNL     1      49.210   1.859   5.817  0.00  0.00    +0.000 HD
ATOM     31  H   UNL     1      48.868   3.293   6.717  0.00  0.00    +0.000 HD
ENDBRANCH  19  28
ENDBRANCH  18  23
ENDBRANCH   1  18
TORSDOF 5
ENDMDL
MODEL 4
REMARK VINA RESULT:    -8.591      2.962      3.488
REMARK INTER + INTRA:         -12.026
REMARK INTER:                 -10.750
REMARK INTRA:                  -1.276
REMARK UNBOUND:                -0.923
REMARK  Name = 
REMARK  5 active torsions:
REMARK  status: ('A' for Active; 'I' for Inactive)
REMARK    1  A    between atoms: C_2  and  C_4
REMARK    2  A    between atoms: N_8  and  C_9
REMARK    3  A    between atoms: C_9  and  C_10
REMARK    4  A    between atoms: C_10  and  C_13
REMARK    5  A    between atoms: C_17  and  C_18
REMARK                            x       y       z     vdW  Elec       q    Type
REMARK                         _______ _______ _______ _____ _____    ______ ____
ROOT
ATOM      1  C   UNL     1      43.779   4.411  12.602  0.00  0.00    +0.000 C 
ATOM      2  F   UNL     1      42.651   4.560  13.359  0.00  0.00    +0.000 F 
ATOM      3  F   UNL     1      44.615   3.630  13.349  0.00  0.00    +0.000 F 
ENDROOT
BRANCH   1   4
ATOM      4  C   UNL     1      44.420   5.747  12.266  0.00  0.00    +0.000 A 
ATOM      5  C   UNL     1      43.693   6.757  11.630  0.00  0.00    +0.000 A 
ATOM      6  C   UNL     1      44.302   7.973  11.331  0.00  0.00    +0.000 A 
ATOM      7  C   UNL     1      45.640   8.192  11.674  0.00  0.00    +0.000 A 
ATOM      8  C   UNL     1      46.403   7.212  12.334  0.00  0.00    +0.000 A 
ATOM      9  C   UNL     1      45.768   5.985  12.604  0.00  0.00    +0.000 A 
BRANCH   8  10
ATOM     10  C   UNL     1      47.803   7.470  12.754  0.00  0.00    +0.000 A 
ATOM     11  C   UNL     1      48.157   7.606  14.111  0.00  0.00    +0.000 A 
ATOM     12  C   UNL     1      49.478   7.859  14.501  0.00  0.00    +0.000 A 
ATOM     13  C   UNL     1      50.472   7.967  13.538  0.00  0.00    +0.000 A 
ATOM     14  F   UNL     1      51.733   8.193  13.933  0.00  0.00    +0.000 F 
ATOM     15  C   UNL     1      50.158   7.840  12.191  0.00  0.00    +0.000 A 
ATOM     16 CL   UNL     1      51.382   7.965  10.987  0.00  0.00    +0.000 Cl
ATOM     17  C   UNL     1      48.835   7.605  11.802  0.00  0.00    +0.000 A 
ENDBRANCH   8  10
ENDBRANCH   1   4
BRANCH   1  18
ATOM     18  C   UNL     1      43.399   3.641  11.310  0.00  0.00    +0.000 C 
BRANCH  18  23
ATOM     19  C   UNL     1      46.500   2.811   7.356  0.00  0.00    +0.000 A 
ATOM     20  C   UNL     1      46.158   4.007   7.977  0.00  0.00    +0.000 A 
ATOM     21  C   UNL     1      45.433   3.970   9.168  0.00  0.00    +0.000 A 
ATOM     22  C   UNL     1      45.048   2.748   9.707  0.00  0.00    +0.000 A 
ATOM     23  N   UNL     1      44.399   2.637  10.925  0.00  0.00    +0.000 N 
ATOM     24  N   UNL     1      45.351   1.582   9.102  0.00  0.00    +0.000 NA
ATOM     25  C   UNL     1      46.062   1.634   7.941  0.00  0.00    +0.000 A 
ATOM     26  H   UNL     1      44.117   1.665  11.051  0.00  0.00    +0.000 HD
BRANCH  19  28
ATOM     27  N   UNL     1      48.635   2.516   6.240  0.00  0.00    +0.000 N 
ATOM     28  C   UNL     1      47.295   2.758   6.113  0.00  0.00    +0.000 C 
ATOM     29  O   UNL     1      46.775   2.893   5.014  0.00  0.00    +0.000 OA
ATOM     30  H   UNL     1      49.152   2.380   5.379  0.00  0.00    +0.000 HD
ATOM     31  H   UNL     1      49.046   2.151   7.088  0.00  0.00    +0.000 HD
ENDBRANCH  19  28
ENDBRANCH  18  23
ENDBRANCH   1  18
TORSDOF 5
ENDMDL
MODEL 5
REMARK VINA RESULT:    -8.570      4.680      8.203
REMARK INTER + INTRA:         -11.998
REMARK INTER:                 -11.192
REMARK INTRA:                  -0.806
REMARK UNBOUND:                -0.923
REMARK  Name = 
REMARK  5 active torsions:
REMARK  status: ('A' for Active; 'I' for Inactive)
REMARK    1  A    between atoms: C_2  and  C_4
REMARK    2  A    between atoms: N_8  and  C_9
REMARK    3  A    between atoms: C_9  and  C_10
REMARK    4  A    between atoms: C_10  and  C_13
REMARK    5  A    between atoms: C_17  and  C_18
REMARK                            x       y       z     vdW  Elec       q    Type
REMARK                         _______ _______ _______ _____ _____    ______ ____
ROOT
ATOM      1  C   UNL     1      45.707   7.183  12.262  0.00  0.00    +0.000 C 
ATOM      2  F   UNL     1      44.859   7.912  13.049  0.00  0.00    +0.000 F 
ATOM      3  F   UNL     1      46.270   8.086  11.404  0.00  0.00    +0.000 F 
ENDROOT
BRANCH   1   4
ATOM      4  C   UNL     1      44.981   6.081  11.510  0.00  0.00    +0.000 A 
ATOM      5  C   UNL     1      43.644   5.780  11.784  0.00  0.00    +0.000 A 
ATOM      6  C   UNL     1      42.999   4.764  11.083  0.00  0.00    +0.000 A 
ATOM      7  C   UNL     1      43.683   4.049  10.095  0.00  0.00    +0.000 A 
ATOM      8  C   UNL     1      45.022   4.334   9.770  0.00  0.00    +0.000 A 
ATOM      9  C   UNL     1      45.655   5.350  10.510  0.00  0.00    +0.000 A 
BRANCH   8  10
ATOM     10  C   UNL     1      45.725   3.617   8.677  0.00  0.00    +0.000 A 
ATOM     11  C   UNL     1      46.294   4.304   7.586  0.00  0.00    +0.000 A 
ATOM     12  C   UNL     1      46.947   3.622   6.552  0.00  0.00    +0.000 A 
ATOM     13  C   UNL     1      47.056   2.239   6.600  0.00  0.00    +0.000 A 
ATOM     14  F   UNL     1      47.700   1.605   5.610  0.00  0.00    +0.000 F 
ATOM     15  C   UNL     1      46.505   1.530   7.660  0.00  0.00    +0.000 A 
ATOM     16 CL   UNL     1      46.638  -0.185   7.736  0.00  0.00    +0.000 Cl
ATOM     17  C   UNL     1      45.836   2.211   8.683  0.00  0.00    +0.000 A 
ENDBRANCH   8  10
ENDBRANCH   1   4
BRANCH   1  18
ATOM     18  C   UNL     1      46.821   6.593  13.166  0.00  0.00    +0.000 C 
BRANCH  18  23
ATOM     19  C   UNL     1      48.621   3.867  17.074  0.00  0.00    +0.000 A 
ATOM     20  C   UNL     1      48.736   5.228  16.817  0.00  0.00    +0.000 A 
ATOM     21  C   UNL     1      47.996   5.787  15.775  0.00  0.00    +0.000 A 
ATOM     22  C   UNL     1      47.173   4.979  14.999  0.00  0.00    +0.000 A 
ATOM     23  N   UNL     1      46.352   5.481  14.004  0.00  0.00    +0.000 N 
ATOM     24  N   UNL     1      47.072   3.653  15.221  0.00  0.00    +0.000 NA
ATOM     25  C   UNL     1      47.799   3.122  16.244  0.00  0.00    +0.000 A 
ATOM     26  H   UNL     1      45.939   4.695  13.501  0.00  0.00    +0.000 HD
BRANCH  19  28
ATOM     27  N   UNL     1      48.702   3.131  19.386  0.00  0.00    +0.000 N 
ATOM     28  C   UNL     1      49.341   3.201  18.178  0.00  0.00    +0.000 C 
ATOM     29  O   UNL     1      50.448   2.705  18.014  0.00  0.00    +0.000 OA
ATOM     30  H   UNL     1      49.159   2.585  20.106  0.00  0.00    +0.000 HD
ATOM     31  H   UNL     1      47.711   3.294  19.488  0.00  0.00    +0.000 HD
ENDBRANCH  19  28
ENDBRANCH  18  23
ENDBRANCH   1  18
TORSDOF 5
ENDMDL
MODEL 6
REMARK VINA RESULT:    -8.293      5.005      7.962
REMARK INTER + INTRA:         -11.640
REMARK INTER:                 -10.399
REMARK INTRA:                  -1.242
REMARK UNBOUND:                -0.923
REMARK  Name = 
REMARK  5 active torsions:
REMARK  status: ('A' for Active; 'I' for Inactive)
REMARK    1  A    between atoms: C_2  and  C_4
REMARK    2  A    between atoms: N_8  and  C_9
REMARK    3  A    between atoms: C_9  and  C_10
REMARK    4  A    between atoms: C_10  and  C_13
REMARK    5  A    between atoms: C_17  and  C_18
REMARK                            x       y       z     vdW  Elec       q    Type
REMARK                         _______ _______ _______ _____ _____    ______ ____
ROOT
ATOM      1  C   UNL     1      48.885   8.145  12.297  0.00  0.00    +0.000 C 
ATOM      2  F   UNL     1      49.377   9.176  11.547  0.00  0.00    +0.000 F 
ATOM      3  F   UNL     1      49.653   7.062  11.971  0.00  0.00    +0.000 F 
ENDROOT
BRANCH   1   4
ATOM      4  C   UNL     1      47.415   7.887  12.016  0.00  0.00    +0.000 A 
ATOM      5  C   UNL     1      46.446   8.856  12.291  0.00  0.00    +0.000 A 
ATOM      6  C   UNL     1      45.104   8.596  12.027  0.00  0.00    +0.000 A 
ATOM      7  C   UNL     1      44.721   7.370  11.475  0.00  0.00    +0.000 A 
ATOM      8  C   UNL     1      45.664   6.375  11.162  0.00  0.00    +0.000 A 
ATOM      9  C   UNL     1      47.010   6.656  11.460  0.00  0.00    +0.000 A 
BRANCH   8  10
ATOM     10  C   UNL     1      45.262   5.099  10.517  0.00  0.00    +0.000 A 
ATOM     11  C   UNL     1      44.474   4.145  11.191  0.00  0.00    +0.000 A 
ATOM     12  C   UNL     1      44.106   2.938  10.581  0.00  0.00    +0.000 A 
ATOM     13  C   UNL     1      44.509   2.673   9.280  0.00  0.00    +0.000 A 
ATOM     14  F   UNL     1      44.132   1.521   8.708  0.00  0.00    +0.000 F 
ATOM     15  C   UNL     1      45.288   3.592   8.587  0.00  0.00    +0.000 A 
ATOM     16 CL   UNL     1      45.788   3.278   6.970  0.00  0.00    +0.000 Cl
ATOM     17  C   UNL     1      45.670   4.788   9.204  0.00  0.00    +0.000 A 
ENDBRANCH   8  10
ENDBRANCH   1   4
BRANCH   1  18
ATOM     18  C   UNL     1      49.110   8.484  13.794  0.00  0.00    +0.000 C 
BRANCH  18  23
ATOM     19  C   UNL     1      48.117   4.499  16.808  0.00  0.00    +0.000 A 
ATOM     20  C   UNL     1      47.442   4.944  15.676  0.00  0.00    +0.000 A 
ATOM     21  C   UNL     1      48.011   5.953  14.900  0.00  0.00    +0.000 A 
ATOM     22  C   UNL     1      49.227   6.512  15.272  0.00  0.00    +0.000 A 
ATOM     23  N   UNL     1      49.885   7.458  14.505  0.00  0.00    +0.000 N 
ATOM     24  N   UNL     1      49.880   6.108  16.381  0.00  0.00    +0.000 NA
ATOM     25  C   UNL     1      49.314   5.120  17.128  0.00  0.00    +0.000 A 
ATOM     26  H   UNL     1      50.686   7.801  15.034  0.00  0.00    +0.000 HD
BRANCH  19  28
ATOM     27  N   UNL     1      48.357   3.070  18.755  0.00  0.00    +0.000 N 
ATOM     28  C   UNL     1      47.605   3.413  17.665  0.00  0.00    +0.000 C 
ATOM     29  O   UNL     1      46.537   2.861  17.432  0.00  0.00    +0.000 OA
ATOM     30  H   UNL     1      47.949   2.396  19.391  0.00  0.00    +0.000 HD
ATOM     31  H   UNL     1      49.093   3.661  19.116  0.00  0.00    +0.000 HD
ENDBRANCH  19  28
ENDBRANCH  18  23
ENDBRANCH   1  18
TORSDOF 5
ENDMDL
MODEL 7
REMARK VINA RESULT:    -8.243      2.149      2.725
REMARK INTER + INTRA:         -11.575
REMARK INTER:                 -10.420
REMARK INTRA:                  -1.155
REMARK UNBOUND:                -0.923
REMARK  Name = 
REMARK  5 active torsions:
REMARK  status: ('A' for Active; 'I' for Inactive)
REMARK    1  A    between atoms: C_2  and  C_4
REMARK    2  A    between atoms: N_8  and  C_9
REMARK    3  A    between atoms: C_9  and  C_10
REMARK    4  A    between atoms: C_10  and  C_13
REMARK    5  A    between atoms: C_17  and  C_18
REMARK                            x       y       z     vdW  Elec       q    Type
REMARK                         _______ _______ _______ _____ _____    ______ ____
ROOT
ATOM      1  C   UNL     1      44.666   6.109  11.398  0.00  0.00    +0.000 C 
ATOM      2  F   UNL     1      45.359   6.641  10.347  0.00  0.00    +0.000 F 
ATOM      3  F   UNL     1      43.961   7.151  11.931  0.00  0.00    +0.000 F 
ENDROOT
BRANCH   1   4
ATOM      4  C   UNL     1      45.587   5.478  12.428  0.00  0.00    +0.000 A 
ATOM      5  C   UNL     1      45.480   4.123  12.758  0.00  0.00    +0.000 A 
ATOM      6  C   UNL     1      46.335   3.567  13.706  0.00  0.00    +0.000 A 
ATOM      7  C   UNL     1      47.309   4.357  14.323  0.00  0.00    +0.000 A 
ATOM      8  C   UNL     1      47.467   5.718  14.005  0.00  0.00    +0.000 A 
ATOM      9  C   UNL     1      46.575   6.259  13.060  0.00  0.00    +0.000 A 
BRANCH   8  10
ATOM     10  C   UNL     1      48.544   6.538  14.614  0.00  0.00    +0.000 A 
ATOM     11  C   UNL     1      48.754   6.569  16.007  0.00  0.00    +0.000 A 
ATOM     12  C   UNL     1      49.765   7.352  16.578  0.00  0.00    +0.000 A 
ATOM     13  C   UNL     1      50.594   8.108  15.760  0.00  0.00    +0.000 A 
ATOM     14  F   UNL     1      51.567   8.838  16.325  0.00  0.00    +0.000 F 
ATOM     15  C   UNL     1      50.414   8.102  14.383  0.00  0.00    +0.000 A 
ATOM     16 CL   UNL     1      51.440   9.030  13.358  0.00  0.00    +0.000 Cl
ATOM     17  C   UNL     1      49.392   7.334  13.817  0.00  0.00    +0.000 A 
ENDBRANCH   8  10
ENDBRANCH   1   4
BRANCH   1  18
ATOM     18  C   UNL     1      43.665   5.064  10.839  0.00  0.00    +0.000 C 
BRANCH  18  23
ATOM     19  C   UNL     1      46.349   2.154   7.634  0.00  0.00    +0.000 A 
ATOM     20  C   UNL     1      45.775   1.827   8.858  0.00  0.00    +0.000 A 
ATOM     21  C   UNL     1      44.921   2.742   9.473  0.00  0.00    +0.000 A 
ATOM     22  C   UNL     1      44.669   3.969   8.869  0.00  0.00    +0.000 A 
ATOM     23  N   UNL     1      43.771   4.887   9.384  0.00  0.00    +0.000 N 
ATOM     24  N   UNL     1      45.239   4.309   7.696  0.00  0.00    +0.000 NA
ATOM     25  C   UNL     1      46.069   3.404   7.106  0.00  0.00    +0.000 A 
ATOM     26  H   UNL     1      43.845   5.748   8.841  0.00  0.00    +0.000 HD
BRANCH  19  28
ATOM     27  N   UNL     1      48.337   1.772   6.295  0.00  0.00    +0.000 N 
ATOM     28  C   UNL     1      47.235   1.231   6.898  0.00  0.00    +0.000 C 
ATOM     29  O   UNL     1      47.013   0.028   6.853  0.00  0.00    +0.000 OA
ATOM     30  H   UNL     1      48.991   1.119   5.881  0.00  0.00    +0.000 HD
ATOM     31  H   UNL     1      48.685   2.694   6.521  0.00  0.00    +0.000 HD
ENDBRANCH  19  28
ENDBRANCH  18  23
ENDBRANCH   1  18
TORSDOF 5
ENDMDL
MODEL 8
REMARK VINA RESULT:    -7.983      4.899      7.953
REMARK INTER + INTRA:         -11.239
REMARK INTER:                 -10.061
REMARK INTRA:                  -1.179
REMARK UNBOUND:                -0.923
REMARK  Name = 
REMARK  5 active torsions:
REMARK  status: ('A' for Active; 'I' for Inactive)
REMARK    1  A    between atoms: C_2  and  C_4
REMARK    2  A    between atoms: N_8  and  C_9
REMARK    3  A    between atoms: C_9  and  C_10
REMARK    4  A    between atoms: C_10  and  C_13
REMARK    5  A    between atoms: C_17  and  C_18
REMARK                            x       y       z     vdW  Elec       q    Type
REMARK                         _______ _______ _______ _____ _____    ______ ____
ROOT
ATOM      1  C   UNL     1      49.350   8.422  12.235  0.00  0.00    +0.000 C 
ATOM      2  F   UNL     1      49.750   9.473  11.458  0.00  0.00    +0.000 F 
ATOM      3  F   UNL     1      50.049   7.343  11.772  0.00  0.00    +0.000 F 
ENDROOT
BRANCH   1   4
ATOM      4  C   UNL     1      47.851   8.189  12.150  0.00  0.00    +0.000 A 
ATOM      5  C   UNL     1      46.945   9.126  12.654  0.00  0.00    +0.000 A 
ATOM      6  C   UNL     1      45.575   8.891  12.566  0.00  0.00    +0.000 A 
ATOM      7  C   UNL     1      45.101   7.721  11.964  0.00  0.00    +0.000 A 
ATOM      8  C   UNL     1      45.975   6.762  11.422  0.00  0.00    +0.000 A 
ATOM      9  C   UNL     1      47.354   7.016  11.546  0.00  0.00    +0.000 A 
BRANCH   8  10
ATOM     10  C   UNL     1      45.468   5.553  10.727  0.00  0.00    +0.000 A 
ATOM     11  C   UNL     1      45.757   5.301   9.371  0.00  0.00    +0.000 A 
ATOM     12  C   UNL     1      45.268   4.164   8.717  0.00  0.00    +0.000 A 
ATOM     13  C   UNL     1      44.490   3.250   9.414  0.00  0.00    +0.000 A 
ATOM     14  F   UNL     1      44.045   2.159   8.775  0.00  0.00    +0.000 F 
ATOM     15  C   UNL     1      44.183   3.468  10.751  0.00  0.00    +0.000 A 
ATOM     16 CL   UNL     1      43.225   2.339  11.630  0.00  0.00    +0.000 Cl
ATOM     17  C   UNL     1      44.658   4.614  11.398  0.00  0.00    +0.000 A 
ENDBRANCH   8  10
ENDBRANCH   1   4
BRANCH   1  18
ATOM     18  C   UNL     1      49.781   8.707  13.697  0.00  0.00    +0.000 C 
BRANCH  18  23
ATOM     19  C   UNL     1      48.273   4.905  16.734  0.00  0.00    +0.000 A 
ATOM     20  C   UNL     1      47.622   5.485  15.651  0.00  0.00    +0.000 A 
ATOM     21  C   UNL     1      48.315   6.391  14.848  0.00  0.00    +0.000 A 
ATOM     22  C   UNL     1      49.632   6.717  15.149  0.00  0.00    +0.000 A 
ATOM     23  N   UNL     1      50.401   7.545  14.350  0.00  0.00    +0.000 N 
ATOM     24  N   UNL     1      50.267   6.182  16.211  0.00  0.00    +0.000 NA
ATOM     25  C   UNL     1      49.579   5.296  16.984  0.00  0.00    +0.000 A 
ATOM     26  H   UNL     1      51.282   7.729  14.831  0.00  0.00    +0.000 HD
BRANCH  19  28
ATOM     27  N   UNL     1      48.078   3.830  18.901  0.00  0.00    +0.000 N 
ATOM     28  C   UNL     1      47.627   3.911  17.612  0.00  0.00    +0.000 C 
ATOM     29  O   UNL     1      46.705   3.209  17.217  0.00  0.00    +0.000 OA
ATOM     30  H   UNL     1      47.562   3.219  19.523  0.00  0.00    +0.000 HD
ATOM     31  H   UNL     1      48.644   4.551  19.327  0.00  0.00    +0.000 HD
ENDBRANCH  19  28
ENDBRANCH  18  23
ENDBRANCH   1  18
TORSDOF 5
ENDMDL
MODEL 9
REMARK VINA RESULT:    -7.570      5.333      8.625
REMARK INTER + INTRA:         -10.705
REMARK INTER:                  -9.928
REMARK INTRA:                  -0.777
REMARK UNBOUND:                -0.923
REMARK  Name = 
REMARK  5 active torsions:
REMARK  status: ('A' for Active; 'I' for Inactive)
REMARK    1  A    between atoms: C_2  and  C_4
REMARK    2  A    between atoms: N_8  and  C_9
REMARK    3  A    between atoms: C_9  and  C_10
REMARK    4  A    between atoms: C_10  and  C_13
REMARK    5  A    between atoms: C_17  and  C_18
REMARK                            x       y       z     vdW  Elec       q    Type
REMARK                         _______ _______ _______ _____ _____    ______ ____
ROOT
ATOM      1  C   UNL     1      48.693   8.148  12.607  0.00  0.00    +0.000 C 
ATOM      2  F   UNL     1      49.144   9.378  12.218  0.00  0.00    +0.000 F 
ATOM      3  F   UNL     1      49.541   7.250  12.020  0.00  0.00    +0.000 F 
ENDROOT
BRANCH   1   4
ATOM      4  C   UNL     1      47.254   7.908  12.184  0.00  0.00    +0.000 A 
ATOM      5  C   UNL     1      46.280   8.898  12.343  0.00  0.00    +0.000 A 
ATOM      6  C   UNL     1      44.967   8.655  11.948  0.00  0.00    +0.000 A 
ATOM      7  C   UNL     1      44.619   7.424  11.383  0.00  0.00    +0.000 A 
ATOM      8  C   UNL     1      45.571   6.408  11.184  0.00  0.00    +0.000 A 
ATOM      9  C   UNL     1      46.885   6.673  11.612  0.00  0.00    +0.000 A 
BRANCH   8  10
ATOM     10  C   UNL     1      45.212   5.127  10.525  0.00  0.00    +0.000 A 
ATOM     11  C   UNL     1      44.440   4.147  11.179  0.00  0.00    +0.000 A 
ATOM     12  C   UNL     1      44.113   2.936  10.556  0.00  0.00    +0.000 A 
ATOM     13  C   UNL     1      44.543   2.692   9.259  0.00  0.00    +0.000 A 
ATOM     14  F   UNL     1      44.205   1.533   8.674  0.00  0.00    +0.000 F 
ATOM     15  C   UNL     1      45.307   3.635   8.585  0.00  0.00    +0.000 A 
ATOM     16 CL   UNL     1      45.840   3.347   6.973  0.00  0.00    +0.000 Cl
ATOM     17  C   UNL     1      45.648   4.836   9.215  0.00  0.00    +0.000 A 
ENDBRANCH   8  10
ENDBRANCH   1   4
BRANCH   1  18
ATOM     18  C   UNL     1      48.840   8.041  14.147  0.00  0.00    +0.000 C 
BRANCH  18  23
ATOM     19  C   UNL     1      49.138   5.339  18.454  0.00  0.00    +0.000 A 
ATOM     20  C   UNL     1      49.169   6.716  18.270  0.00  0.00    +0.000 A 
ATOM     21  C   UNL     1      48.880   7.238  17.009  0.00  0.00    +0.000 A 
ATOM     22  C   UNL     1      48.585   6.381  15.955  0.00  0.00    +0.000 A 
ATOM     23  N   UNL     1      48.211   6.835  14.702  0.00  0.00    +0.000 N 
ATOM     24  N   UNL     1      48.577   5.042  16.114  0.00  0.00    +0.000 NA
ATOM     25  C   UNL     1      48.859   4.547  17.352  0.00  0.00    +0.000 A 
ATOM     26  H   UNL     1      48.163   6.034  14.071  0.00  0.00    +0.000 HD
BRANCH  19  28
ATOM     27  N   UNL     1      48.535   3.719  20.159  0.00  0.00    +0.000 N 
ATOM     28  C   UNL     1      49.396   4.705  19.762  0.00  0.00    +0.000 C 
ATOM     29  O   UNL     1      50.357   5.023  20.450  0.00  0.00    +0.000 OA
ATOM     30  H   UNL     1      48.777   3.222  21.007  0.00  0.00    +0.000 HD
ATOM     31  H   UNL     1      47.899   3.261  19.520  0.00  0.00    +0.000 HD
ENDBRANCH  19  28
ENDBRANCH  18  23
ENDBRANCH   1  18
TORSDOF 5
ENDMDL
