MODEL 1
REMARK VINA RESULT:    -9.119      0.000      0.000
REMARK INTER + INTRA:         -12.448
REMARK INTER:                 -11.785
REMARK INTRA:                  -0.663
REMARK UNBOUND:                -0.663
REMARK  Name = 
REMARK  5 active torsions:
REMARK  status: ('A' for Active; 'I' for Inactive)
REMARK    1  A    between atoms: C_2  and  O_4
REMARK    2  A    between atoms: O_4  and  C_5
REMARK    3  A    between atoms: C_9  and  C_10
REMARK    4  A    between atoms: C_10  and  N_11
REMARK    5  A    between atoms: C_16  and  C_17
REMARK                            x       y       z     vdW  Elec       q    Type
REMARK                         _______ _______ _______ _____ _____    ______ ____
ROOT
ATOM      1  C   UNL     1      44.322   5.963  11.144  0.00  0.00    +0.000 C 
ENDROOT
BRANCH   1   2
ATOM      2  N   UNL     1      43.871   4.699  10.561  0.00  0.00    +0.000 N 
ATOM      3  C   UNL     1      43.289   3.703  11.308  0.00  0.00    +0.000 A 
ATOM      4  N   UNL     1      43.614   2.509  10.870  0.00  0.00    +0.000 NA
ATOM      5  C   UNL     1      44.429   2.729   9.789  0.00  0.00    +0.000 A 
ATOM      6  C   UNL     1      45.198   1.815   9.053  0.00  0.00    +0.000 A 
ATOM      7  C   UNL     1      46.027   2.292   8.023  0.00  0.00    +0.000 A 
ATOM      8  C   UNL     1      45.973   3.649   7.659  0.00  0.00    +0.000 A 
ATOM      9  C   UNL     1      45.208   4.575   8.384  0.00  0.00    +0.000 A 
ATOM     10  C   UNL     1      44.500   4.087   9.488  0.00  0.00    +0.000 A 
BRANCH   7  11
ATOM     11  C   UNL     1      47.029   1.373   7.365  0.00  0.00    +0.000 C 
ATOM     12  F   UNL     1      48.306   1.849   7.382  0.00  0.00    +0.000 F 
ATOM     13  F   UNL     1      47.079   0.139   7.937  0.00  0.00    +0.000 F 
ATOM     14  F   UNL     1      46.737   1.160   6.049  0.00  0.00    +0.000 F 
ENDBRANCH   7  11
ENDBRANCH   1   2
BRANCH   1  19
ATOM     15  C   UNL     1      46.658   4.918  13.933  0.00  0.00    +0.000 A 
ATOM     16  C   UNL     1      47.857   5.532  13.596  0.00  0.00    +0.000 A 
ATOM     17  C   UNL     1      47.897   6.382  12.486  0.00  0.00    +0.000 A 
ATOM     18  C   UNL     1      46.759   6.594  11.695  0.00  0.00    +0.000 A 
ATOM     19  C   UNL     1      45.552   5.964  12.015  0.00  0.00    +0.000 A 
ATOM     20  C   UNL     1      45.521   5.126  13.150  0.00  0.00    +0.000 A 
BRANCH  15  21
ATOM     21  O   UNL     1      46.510   3.975  14.977  0.00  0.00    +0.000 OA
BRANCH  21  23
ATOM     22  N   UNL     1      47.153   4.709  17.006  0.00  0.00    +0.000 N 
ATOM     23  C   UNL     1      47.424   3.826  16.006  0.00  0.00    +0.000 C 
ATOM     24  O   UNL     1      48.354   3.040  16.065  0.00  0.00    +0.000 OA
ATOM     25  H   UNL     1      47.735   4.697  17.831  0.00  0.00    +0.000 HD
ATOM     26  H   UNL     1      46.374   5.341  16.939  0.00  0.00    +0.000 HD
ENDBRANCH  21  23
ENDBRANCH  15  21
ENDBRANCH   1  19
TORSDOF 5
ENDMDL
MODEL 2
REMARK VINA RESULT:    -8.594      2.372      2.950
REMARK INTER + INTRA:         -11.769
REMARK INTER:                 -10.893
REMARK INTRA:                  -0.876
REMARK UNBOUND:                -0.663
REMARK  Name = 
REMARK  5 active torsions:
REMARK  status: ('A' for Active; 'I' for Inactive)
REMARK    1  A    between atoms: C_2  and  O_4
REMARK    2  A    between atoms: O_4  and  C_5
REMARK    3  A    between atoms: C_9  and  C_10
REMARK    4  A    between atoms: C_10  and  N_11
REMARK    5  A    between atoms: C_16  and  C_17
REMARK                            x       y       z     vdW  Elec       q    Type
REMARK                         _______ _______ _______ _____ _____    ______ ____
ROOT
ATOM      1  C   UNL     1      44.355   5.797  11.235  0.00  0.00    +0.000 C 
ENDROOT
BRANCH   1   2
ATOM      2  N   UNL     1      43.899   4.570  10.583  0.00  0.00    +0.000 N 
ATOM      3  C   UNL     1      43.298   3.543  11.271  0.00  0.00    +0.000 A 
ATOM      4  N   UNL     1      43.616   2.369  10.776  0.00  0.00    +0.000 NA
ATOM      5  C   UNL     1      44.447   2.637   9.718  0.00  0.00    +0.000 A 
ATOM      6  C   UNL     1      45.216   1.753   8.945  0.00  0.00    +0.000 A 
ATOM      7  C   UNL     1      46.062   2.274   7.950  0.00  0.00    +0.000 A 
ATOM      8  C   UNL     1      46.025   3.648   7.656  0.00  0.00    +0.000 A 
ATOM      9  C   UNL     1      45.261   4.544   8.418  0.00  0.00    +0.000 A 
ATOM     10  C   UNL     1      44.535   4.007   9.487  0.00  0.00    +0.000 A 
BRANCH   7  11
ATOM     11  C   UNL     1      47.063   1.379   7.258  0.00  0.00    +0.000 C 
ATOM     12  F   UNL     1      46.824   1.211   5.928  0.00  0.00    +0.000 F 
ATOM     13  F   UNL     1      48.343   1.832   7.357  0.00  0.00    +0.000 F 
ATOM     14  F   UNL     1      47.074   0.122   7.789  0.00  0.00    +0.000 F 
ENDBRANCH   7  11
ENDBRANCH   1   2
BRANCH   1  19
ATOM     15  C   UNL     1      47.869   6.856  12.161  0.00  0.00    +0.000 A 
ATOM     16  C   UNL     1      48.096   6.201  13.364  0.00  0.00    +0.000 A 
ATOM     17  C   UNL     1      47.127   5.319  13.852  0.00  0.00    +0.000 A 
ATOM     18  C   UNL     1      45.922   5.116  13.164  0.00  0.00    +0.000 A 
ATOM     19  C   UNL     1      45.675   5.787  11.962  0.00  0.00    +0.000 A 
ATOM     20  C   UNL     1      46.671   6.657  11.471  0.00  0.00    +0.000 A 
BRANCH  15  21
ATOM     21  O   UNL     1      48.731   7.831  11.608  0.00  0.00    +0.000 OA
BRANCH  21  23
ATOM     22  N   UNL     1      50.929   7.380  11.417  0.00  0.00    +0.000 N 
ATOM     23  C   UNL     1      49.997   8.099  12.101  0.00  0.00    +0.000 C 
ATOM     24  O   UNL     1      50.295   8.855  13.010  0.00  0.00    +0.000 OA
ATOM     25  H   UNL     1      51.901   7.492  11.664  0.00  0.00    +0.000 HD
ATOM     26  H   UNL     1      50.659   6.770  10.664  0.00  0.00    +0.000 HD
ENDBRANCH  21  23
ENDBRANCH  15  21
ENDBRANCH   1  19
TORSDOF 5
ENDMDL
MODEL 3
REMARK VINA RESULT:    -8.061      2.970      4.039
REMARK INTER + INTRA:         -11.081
REMARK INTER:                 -10.619
REMARK INTRA:                  -0.462
REMARK UNBOUND:                -0.663
REMARK  Name = 
REMARK  5 active torsions:
REMARK  status: ('A' for Active; 'I' for Inactive)
REMARK    1  A    between atoms: C_2  and  O_4
REMARK    2  A    between atoms: O_4  and  C_5
REMARK    3  A    between atoms: C_9  and  C_10
REMARK    4  A    between atoms: C_10  and  N_11
REMARK    5  A    between atoms: C_16  and  C_17
REMARK                            x       y       z     vdW  Elec       q    Type
REMARK                         _______ _______ _______ _____ _____    ______ ____
ROOT
ATOM      1  C   UNL     1      44.957   5.235  12.806  0.00  0.00    +0.000 C 
ENDROOT
BRANCH   1   2
ATOM      2  N   UNL     1      44.231   4.541  11.743  0.00  0.00    +0.000 N 
ATOM      3  C   UNL     1      43.414   3.462  11.984  0.00  0.00    +0.000 A 
ATOM      4  N   UNL     1      43.454   2.588  11.006  0.00  0.00    +0.000 NA
ATOM      5  C   UNL     1      44.320   3.118  10.083  0.00  0.00    +0.000 A 
ATOM      6  C   UNL     1      44.865   2.528   8.932  0.00  0.00    +0.000 A 
ATOM      7  C   UNL     1      45.804   3.248   8.174  0.00  0.00    +0.000 A 
ATOM      8  C   UNL     1      46.081   4.588   8.500  0.00  0.00    +0.000 A 
ATOM      9  C   UNL     1      45.543   5.192   9.646  0.00  0.00    +0.000 A 
ATOM     10  C   UNL     1      44.718   4.400  10.452  0.00  0.00    +0.000 A 
BRANCH   7  11
ATOM     11  C   UNL     1      46.573   2.566   7.067  0.00  0.00    +0.000 C 
ATOM     12  F   UNL     1      46.558   1.206   7.144  0.00  0.00    +0.000 F 
ATOM     13  F   UNL     1      46.114   2.878   5.825  0.00  0.00    +0.000 F 
ATOM     14  F   UNL     1      47.892   2.917   7.073  0.00  0.00    +0.000 F 
ENDBRANCH   7  11
ENDBRANCH   1   2
BRANCH   1  19
ATOM     15  C   UNL     1      45.654   8.921  12.306  0.00  0.00    +0.000 A 
ATOM     16  C   UNL     1      47.037   8.976  12.191  0.00  0.00    +0.000 A 
ATOM     17  C   UNL     1      47.765   7.782  12.185  0.00  0.00    +0.000 A 
ATOM     18  C   UNL     1      47.126   6.543  12.325  0.00  0.00    +0.000 A 
ATOM     19  C   UNL     1      45.735   6.480  12.462  0.00  0.00    +0.000 A 
ATOM     20  C   UNL     1      45.011   7.690  12.445  0.00  0.00    +0.000 A 
BRANCH  15  21
ATOM     21  O   UNL     1      44.817  10.057  12.409  0.00  0.00    +0.000 OA
BRANCH  21  23
ATOM     22  N   UNL     1      42.730  10.828  12.060  0.00  0.00    +0.000 N 
ATOM     23  C   UNL     1      43.873  10.400  11.456  0.00  0.00    +0.000 C 
ATOM     24  O   UNL     1      43.988  10.346  10.244  0.00  0.00    +0.000 OA
ATOM     25  H   UNL     1      41.960  11.126  11.479  0.00  0.00    +0.000 HD
ATOM     26  H   UNL     1      42.662  10.872  13.062  0.00  0.00    +0.000 HD
ENDBRANCH  21  23
ENDBRANCH  15  21
ENDBRANCH   1  19
TORSDOF 5
ENDMDL
MODEL 4
REMARK VINA RESULT:    -7.813      2.309      2.938
REMARK INTER + INTRA:         -10.760
REMARK INTER:                 -10.066
REMARK INTRA:                  -0.694
REMARK UNBOUND:                -0.663
REMARK  Name = 
REMARK  5 active torsions:
REMARK  status: ('A' for Active; 'I' for Inactive)
REMARK    1  A    between atoms: C_2  and  O_4
REMARK    2  A    between atoms: O_4  and  C_5
REMARK    3  A    between atoms: C_9  and  C_10
REMARK    4  A    between atoms: C_10  and  N_11
REMARK    5  A    between atoms: C_16  and  C_17
REMARK                            x       y       z     vdW  Elec       q    Type
REMARK                         _______ _______ _______ _____ _____    ______ ____
ROOT
ATOM      1  C   UNL     1      45.260   5.192  12.283  0.00  0.00    +0.000 C 
ENDROOT
BRANCH   1   2
ATOM      2  N   UNL     1      44.521   4.475  11.243  0.00  0.00    +0.000 N 
ATOM      3  C   UNL     1      43.697   3.410  11.519  0.00  0.00    +0.000 A 
ATOM      4  N   UNL     1      43.724   2.510  10.564  0.00  0.00    +0.000 NA
ATOM      5  C   UNL     1      44.589   3.007   9.622  0.00  0.00    +0.000 A 
ATOM      6  C   UNL     1      45.122   2.382   8.485  0.00  0.00    +0.000 A 
ATOM      7  C   UNL     1      46.062   3.073   7.701  0.00  0.00    +0.000 A 
ATOM      8  C   UNL     1      46.352   4.418   7.990  0.00  0.00    +0.000 A 
ATOM      9  C   UNL     1      45.827   5.058   9.122  0.00  0.00    +0.000 A 
ATOM     10  C   UNL     1      45.000   4.295   9.954  0.00  0.00    +0.000 A 
BRANCH   7  11
ATOM     11  C   UNL     1      46.818   2.354   6.609  0.00  0.00    +0.000 C 
ATOM     12  F   UNL     1      46.772   0.997   6.709  0.00  0.00    +0.000 F 
ATOM     13  F   UNL     1      46.370   2.655   5.360  0.00  0.00    +0.000 F 
ATOM     14  F   UNL     1      48.145   2.676   6.613  0.00  0.00    +0.000 F 
ENDBRANCH   7  11
ENDBRANCH   1   2
BRANCH   1  19
ATOM     15  C   UNL     1      46.551   8.710  12.809  0.00  0.00    +0.000 A 
ATOM     16  C   UNL     1      45.684   9.488  12.053  0.00  0.00    +0.000 A 
ATOM     17  C   UNL     1      44.596   8.877  11.424  0.00  0.00    +0.000 A 
ATOM     18  C   UNL     1      44.388   7.493  11.519  0.00  0.00    +0.000 A 
ATOM     19  C   UNL     1      45.268   6.699  12.261  0.00  0.00    +0.000 A 
ATOM     20  C   UNL     1      46.350   7.332  12.908  0.00  0.00    +0.000 A 
BRANCH  15  21
ATOM     21  O   UNL     1      47.731   9.195  13.421  0.00  0.00    +0.000 OA
BRANCH  21  23
ATOM     22  N   UNL     1      47.501   9.248  15.660  0.00  0.00    +0.000 N 
ATOM     23  C   UNL     1      48.216   8.721  14.628  0.00  0.00    +0.000 C 
ATOM     24  O   UNL     1      49.141   7.947  14.805  0.00  0.00    +0.000 OA
ATOM     25  H   UNL     1      47.739   8.972  16.602  0.00  0.00    +0.000 HD
ATOM     26  H   UNL     1      46.735   9.877  15.489  0.00  0.00    +0.000 HD
ENDBRANCH  21  23
ENDBRANCH  15  21
ENDBRANCH   1  19
TORSDOF 5
ENDMDL
MODEL 5
REMARK VINA RESULT:    -7.221      3.629      4.900
REMARK INTER + INTRA:          -9.994
REMARK INTER:                  -9.248
REMARK INTRA:                  -0.746
REMARK UNBOUND:                -0.663
REMARK  Name = 
REMARK  5 active torsions:
REMARK  status: ('A' for Active; 'I' for Inactive)
REMARK    1  A    between atoms: C_2  and  O_4
REMARK    2  A    between atoms: O_4  and  C_5
REMARK    3  A    between atoms: C_9  and  C_10
REMARK    4  A    between atoms: C_10  and  N_11
REMARK    5  A    between atoms: C_16  and  C_17
REMARK                            x       y       z     vdW  Elec       q    Type
REMARK                         _______ _______ _______ _____ _____    ______ ____
ROOT
ATOM      1  C   UNL     1      47.332   6.793  12.956  0.00  0.00    +0.000 C 
ENDROOT
BRANCH   1   2
ATOM      2  N   UNL     1      46.121   5.985  12.812  0.00  0.00    +0.000 N 
ATOM      3  C   UNL     1      45.662   5.152  13.803  0.00  0.00    +0.000 A 
ATOM      4  N   UNL     1      45.109   4.066  13.314  0.00  0.00    +0.000 NA
ATOM      5  C   UNL     1      45.198   4.198  11.952  0.00  0.00    +0.000 A 
ATOM      6  C   UNL     1      44.924   3.257  10.947  0.00  0.00    +0.000 A 
ATOM      7  C   UNL     1      45.167   3.599   9.606  0.00  0.00    +0.000 A 
ATOM      8  C   UNL     1      45.550   4.912   9.281  0.00  0.00    +0.000 A 
ATOM      9  C   UNL     1      45.826   5.865  10.273  0.00  0.00    +0.000 A 
ATOM     10  C   UNL     1      45.703   5.447  11.604  0.00  0.00    +0.000 A 
BRANCH   7  11
ATOM     11  C   UNL     1      45.098   2.543   8.527  0.00  0.00    +0.000 C 
ATOM     12  F   UNL     1      44.352   1.456   8.867  0.00  0.00    +0.000 F 
ATOM     13  F   UNL     1      44.578   3.006   7.358  0.00  0.00    +0.000 F 
ATOM     14  F   UNL     1      46.334   2.055   8.214  0.00  0.00    +0.000 F 
ENDBRANCH   7  11
ENDBRANCH   1   2
BRANCH   1  19
ATOM     15  C   UNL     1      46.139  10.247  11.971  0.00  0.00    +0.000 A 
ATOM     16  C   UNL     1      47.297  10.875  11.532  0.00  0.00    +0.000 A 
ATOM     17  C   UNL     1      48.485  10.141  11.466  0.00  0.00    +0.000 A 
ATOM     18  C   UNL     1      48.529   8.797  11.865  0.00  0.00    +0.000 A 
ATOM     19  C   UNL     1      47.372   8.162  12.327  0.00  0.00    +0.000 A 
ATOM     20  C   UNL     1      46.176   8.909  12.369  0.00  0.00    +0.000 A 
BRANCH  15  21
ATOM     21  O   UNL     1      44.899  10.902  12.162  0.00  0.00    +0.000 OA
BRANCH  21  23
ATOM     22  N   UNL     1      42.655  10.737  12.088  0.00  0.00    +0.000 N 
ATOM     23  C   UNL     1      43.797  10.703  11.348  0.00  0.00    +0.000 C 
ATOM     24  O   UNL     1      43.787  10.519  10.143  0.00  0.00    +0.000 OA
ATOM     25  H   UNL     1      41.770  10.622  11.615  0.00  0.00    +0.000 HD
ATOM     26  H   UNL     1      42.688  10.900  13.080  0.00  0.00    +0.000 HD
ENDBRANCH  21  23
ENDBRANCH  15  21
ENDBRANCH   1  19
TORSDOF 5
ENDMDL
MODEL 6
REMARK VINA RESULT:    -6.914      3.800      5.556
REMARK INTER + INTRA:          -9.597
REMARK INTER:                  -8.854
REMARK INTRA:                  -0.744
REMARK UNBOUND:                -0.663
REMARK  Name = 
REMARK  5 active torsions:
REMARK  status: ('A' for Active; 'I' for Inactive)
REMARK    1  A    between atoms: C_2  and  O_4
REMARK    2  A    between atoms: O_4  and  C_5
REMARK    3  A    between atoms: C_9  and  C_10
REMARK    4  A    between atoms: C_10  and  N_11
REMARK    5  A    between atoms: C_16  and  C_17
REMARK                            x       y       z     vdW  Elec       q    Type
REMARK                         _______ _______ _______ _____ _____    ______ ____
ROOT
ATOM      1  C   UNL     1      48.319   7.025  15.121  0.00  0.00    +0.000 C 
ENDROOT
BRANCH   1   2
ATOM      2  N   UNL     1      48.237   6.612  13.720  0.00  0.00    +0.000 N 
ATOM      3  C   UNL     1      48.762   7.359  12.694  0.00  0.00    +0.000 A 
ATOM      4  N   UNL     1      48.032   7.279  11.606  0.00  0.00    +0.000 NA
ATOM      5  C   UNL     1      46.996   6.439  11.927  0.00  0.00    +0.000 A 
ATOM      6  C   UNL     1      45.833   6.141  11.200  0.00  0.00    +0.000 A 
ATOM      7  C   UNL     1      44.864   5.300  11.774  0.00  0.00    +0.000 A 
ATOM      8  C   UNL     1      45.132   4.666  13.000  0.00  0.00    +0.000 A 
ATOM      9  C   UNL     1      46.290   4.952  13.738  0.00  0.00    +0.000 A 
ATOM     10  C   UNL     1      47.169   5.898  13.198  0.00  0.00    +0.000 A 
BRANCH   7  11
ATOM     11  C   UNL     1      43.511   5.141  11.121  0.00  0.00    +0.000 C 
ATOM     12  F   UNL     1      43.568   4.661   9.847  0.00  0.00    +0.000 F 
ATOM     13  F   UNL     1      42.683   4.305  11.803  0.00  0.00    +0.000 F 
ATOM     14  F   UNL     1      42.846   6.330  11.033  0.00  0.00    +0.000 F 
ENDBRANCH   7  11
ENDBRANCH   1   2
BRANCH   1  19
ATOM     15  C   UNL     1      50.170   4.518  17.268  0.00  0.00    +0.000 A 
ATOM     16  C   UNL     1      51.452   5.045  17.347  0.00  0.00    +0.000 A 
ATOM     17  C   UNL     1      51.711   6.291  16.768  0.00  0.00    +0.000 A 
ATOM     18  C   UNL     1      50.709   6.994  16.084  0.00  0.00    +0.000 A 
ATOM     19  C   UNL     1      49.420   6.461  15.982  0.00  0.00    +0.000 A 
ATOM     20  C   UNL     1      49.168   5.213  16.590  0.00  0.00    +0.000 A 
BRANCH  15  21
ATOM     21  O   UNL     1      49.805   3.234  17.739  0.00  0.00    +0.000 OA
BRANCH  21  23
ATOM     22  N   UNL     1      50.990   1.323  17.620  0.00  0.00    +0.000 N 
ATOM     23  C   UNL     1      50.020   2.069  17.023  0.00  0.00    +0.000 C 
ATOM     24  O   UNL     1      49.457   1.709  16.003  0.00  0.00    +0.000 OA
ATOM     25  H   UNL     1      51.237   0.435  17.210  0.00  0.00    +0.000 HD
ATOM     26  H   UNL     1      51.434   1.637  18.467  0.00  0.00    +0.000 HD
ENDBRANCH  21  23
ENDBRANCH  15  21
ENDBRANCH   1  19
TORSDOF 5
ENDMDL
MODEL 7
REMARK VINA RESULT:    -6.750      5.063      7.614
REMARK INTER + INTRA:          -9.386
REMARK INTER:                  -8.684
REMARK INTRA:                  -0.701
REMARK UNBOUND:                -0.663
REMARK  Name = 
REMARK  5 active torsions:
REMARK  status: ('A' for Active; 'I' for Inactive)
REMARK    1  A    between atoms: C_2  and  O_4
REMARK    2  A    between atoms: O_4  and  C_5
REMARK    3  A    between atoms: C_9  and  C_10
REMARK    4  A    between atoms: C_10  and  N_11
REMARK    5  A    between atoms: C_16  and  C_17
REMARK                            x       y       z     vdW  Elec       q    Type
REMARK                         _______ _______ _______ _____ _____    ______ ____
ROOT
ATOM      1  C   UNL     1      45.997   6.239   9.997  0.00  0.00    +0.000 C 
ENDROOT
BRANCH   1   2
ATOM      2  N   UNL     1      45.638   6.802  11.299  0.00  0.00    +0.000 N 
ATOM      3  C   UNL     1      44.806   7.886  11.436  0.00  0.00    +0.000 A 
ATOM      4  N   UNL     1      45.156   8.649  12.445  0.00  0.00    +0.000 NA
ATOM      5  C   UNL     1      46.251   8.036  12.998  0.00  0.00    +0.000 A 
ATOM      6  C   UNL     1      47.129   8.505  13.988  0.00  0.00    +0.000 A 
ATOM      7  C   UNL     1      48.241   7.722  14.343  0.00  0.00    +0.000 A 
ATOM      8  C   UNL     1      48.382   6.431  13.804  0.00  0.00    +0.000 A 
ATOM      9  C   UNL     1      47.513   5.946  12.816  0.00  0.00    +0.000 A 
ATOM     10  C   UNL     1      46.496   6.808  12.389  0.00  0.00    +0.000 A 
BRANCH   7  11
ATOM     11  C   UNL     1      49.321   8.292  15.233  0.00  0.00    +0.000 C 
ATOM     12  F   UNL     1      49.913   9.411  14.731  0.00  0.00    +0.000 F 
ATOM     13  F   UNL     1      48.871   8.627  16.472  0.00  0.00    +0.000 F 
ATOM     14  F   UNL     1      50.335   7.402  15.435  0.00  0.00    +0.000 F 
ENDBRANCH   7  11
ENDBRANCH   1   2
BRANCH   1  19
ATOM     15  C   UNL     1      45.655   3.009   8.055  0.00  0.00    +0.000 A 
ATOM     16  C   UNL     1      44.873   2.215   8.884  0.00  0.00    +0.000 A 
ATOM     17  C   UNL     1      44.363   2.763  10.065  0.00  0.00    +0.000 A 
ATOM     18  C   UNL     1      44.657   4.083  10.438  0.00  0.00    +0.000 A 
ATOM     19  C   UNL     1      45.460   4.882   9.619  0.00  0.00    +0.000 A 
ATOM     20  C   UNL     1      45.950   4.324   8.419  0.00  0.00    +0.000 A 
BRANCH  15  21
ATOM     21  O   UNL     1      46.296   2.547   6.881  0.00  0.00    +0.000 OA
BRANCH  21  23
ATOM     22  N   UNL     1      48.498   2.517   6.413  0.00  0.00    +0.000 N 
ATOM     23  C   UNL     1      47.453   1.787   6.891  0.00  0.00    +0.000 C 
ATOM     24  O   UNL     1      47.580   0.632   7.260  0.00  0.00    +0.000 OA
ATOM     25  H   UNL     1      49.411   2.088   6.380  0.00  0.00    +0.000 HD
ATOM     26  H   UNL     1      48.371   3.472   6.123  0.00  0.00    +0.000 HD
ENDBRANCH  21  23
ENDBRANCH  15  21
ENDBRANCH   1  19
TORSDOF 5
ENDMDL
MODEL 8
REMARK VINA RESULT:    -6.747      5.153      7.839
REMARK INTER + INTRA:          -9.383
REMARK INTER:                  -8.851
REMARK INTRA:                  -0.532
REMARK UNBOUND:                -0.663
REMARK  Name = 
REMARK  5 active torsions:
REMARK  status: ('A' for Active; 'I' for Inactive)
REMARK    1  A    between atoms: C_2  and  O_4
REMARK    2  A    between atoms: O_4  and  C_5
REMARK    3  A    between atoms: C_9  and  C_10
REMARK    4  A    between atoms: C_10  and  N_11
REMARK    5  A    between atoms: C_16  and  C_17
REMARK                            x       y       z     vdW  Elec       q    Type
REMARK                         _______ _______ _______ _____ _____    ______ ____
ROOT
ATOM      1  C   UNL     1      45.585   5.994  11.596  0.00  0.00    +0.000 C 
ENDROOT
BRANCH   1   2
ATOM      2  N   UNL     1      46.794   5.768  12.388  0.00  0.00    +0.000 N 
ATOM      3  C   UNL     1      46.800   5.009  13.534  0.00  0.00    +0.000 A 
ATOM      4  N   UNL     1      47.641   5.477  14.427  0.00  0.00    +0.000 NA
ATOM      5  C   UNL     1      48.216   6.576  13.841  0.00  0.00    +0.000 A 
ATOM      6  C   UNL     1      49.052   7.551  14.407  0.00  0.00    +0.000 A 
ATOM      7  C   UNL     1      49.460   8.641  13.620  0.00  0.00    +0.000 A 
ATOM      8  C   UNL     1      49.139   8.670  12.251  0.00  0.00    +0.000 A 
ATOM      9  C   UNL     1      48.306   7.702  11.671  0.00  0.00    +0.000 A 
ATOM     10  C   UNL     1      47.808   6.705  12.517  0.00  0.00    +0.000 A 
BRANCH   7  11
ATOM     11  C   UNL     1      50.167   9.816  14.255  0.00  0.00    +0.000 C 
ATOM     12  F   UNL     1      50.773   9.519  15.438  0.00  0.00    +0.000 F 
ATOM     13  F   UNL     1      51.133  10.352  13.461  0.00  0.00    +0.000 F 
ATOM     14  F   UNL     1      49.307  10.838  14.532  0.00  0.00    +0.000 F 
ENDBRANCH   7  11
ENDBRANCH   1   2
BRANCH   1  19
ATOM     15  C   UNL     1      45.388   3.914   8.441  0.00  0.00    +0.000 A 
ATOM     16  C   UNL     1      44.659   2.800   8.834  0.00  0.00    +0.000 A 
ATOM     17  C   UNL     1      44.136   2.753  10.130  0.00  0.00    +0.000 A 
ATOM     18  C   UNL     1      44.365   3.793  11.042  0.00  0.00    +0.000 A 
ATOM     19  C   UNL     1      45.115   4.910  10.660  0.00  0.00    +0.000 A 
ATOM     20  C   UNL     1      45.619   4.954   9.343  0.00  0.00    +0.000 A 
BRANCH  15  21
ATOM     21  O   UNL     1      46.037   4.043   7.190  0.00  0.00    +0.000 OA
BRANCH  21  23
ATOM     22  N   UNL     1      47.079   3.278   5.346  0.00  0.00    +0.000 N 
ATOM     23  C   UNL     1      46.918   3.101   6.687  0.00  0.00    +0.000 C 
ATOM     24  O   UNL     1      47.493   2.219   7.301  0.00  0.00    +0.000 OA
ATOM     25  H   UNL     1      47.711   2.666   4.852  0.00  0.00    +0.000 HD
ATOM     26  H   UNL     1      46.600   4.018   4.863  0.00  0.00    +0.000 HD
ENDBRANCH  21  23
ENDBRANCH  15  21
ENDBRANCH   1  19
TORSDOF 5
ENDMDL
MODEL 9
REMARK VINA RESULT:    -6.666      4.652      7.643
REMARK INTER + INTRA:          -9.278
REMARK INTER:                  -8.543
REMARK INTRA:                  -0.735
REMARK UNBOUND:                -0.663
REMARK  Name = 
REMARK  5 active torsions:
REMARK  status: ('A' for Active; 'I' for Inactive)
REMARK    1  A    between atoms: C_2  and  O_4
REMARK    2  A    between atoms: O_4  and  C_5
REMARK    3  A    between atoms: C_9  and  C_10
REMARK    4  A    between atoms: C_10  and  N_11
REMARK    5  A    between atoms: C_16  and  C_17
REMARK                            x       y       z     vdW  Elec       q    Type
REMARK                         _______ _______ _______ _____ _____    ______ ____
ROOT
ATOM      1  C   UNL     1      47.055   6.047  12.400  0.00  0.00    +0.000 C 
ENDROOT
BRANCH   1   2
ATOM      2  N   UNL     1      47.325   6.503  13.763  0.00  0.00    +0.000 N 
ATOM      3  C   UNL     1      48.068   7.627  14.036  0.00  0.00    +0.000 A 
ATOM      4  N   UNL     1      48.784   7.488  15.128  0.00  0.00    +0.000 NA
ATOM      5  C   UNL     1      48.492   6.231  15.594  0.00  0.00    +0.000 A 
ATOM      6  C   UNL     1      49.101   5.500  16.625  0.00  0.00    +0.000 A 
ATOM      7  C   UNL     1      48.676   4.184  16.875  0.00  0.00    +0.000 A 
ATOM      8  C   UNL     1      47.565   3.670  16.183  0.00  0.00    +0.000 A 
ATOM      9  C   UNL     1      46.944   4.388  15.151  0.00  0.00    +0.000 A 
ATOM     10  C   UNL     1      47.481   5.642  14.839  0.00  0.00    +0.000 A 
BRANCH   7  11
ATOM     11  C   UNL     1      49.455   3.298  17.818  0.00  0.00    +0.000 C 
ATOM     12  F   UNL     1      49.931   2.161  17.238  0.00  0.00    +0.000 F 
ATOM     13  F   UNL     1      50.533   3.920  18.369  0.00  0.00    +0.000 F 
ATOM     14  F   UNL     1      48.692   2.879  18.869  0.00  0.00    +0.000 F 
ENDBRANCH   7  11
ENDBRANCH   1   2
BRANCH   1  19
ATOM     15  C   UNL     1      44.189   4.702  10.325  0.00  0.00    +0.000 A 
ATOM     16  C   UNL     1      43.098   4.803  11.179  0.00  0.00    +0.000 A 
ATOM     17  C   UNL     1      43.267   5.404  12.430  0.00  0.00    +0.000 A 
ATOM     18  C   UNL     1      44.522   5.872  12.845  0.00  0.00    +0.000 A 
ATOM     19  C   UNL     1      45.631   5.756  11.999  0.00  0.00    +0.000 A 
ATOM     20  C   UNL     1      45.441   5.168  10.732  0.00  0.00    +0.000 A 
BRANCH  15  21
ATOM     21  O   UNL     1      44.166   4.043   9.074  0.00  0.00    +0.000 OA
BRANCH  21  23
ATOM     22  N   UNL     1      44.569   1.865   9.477  0.00  0.00    +0.000 N 
ATOM     23  C   UNL     1      44.967   2.956   8.768  0.00  0.00    +0.000 C 
ATOM     24  O   UNL     1      45.904   2.921   7.989  0.00  0.00    +0.000 OA
ATOM     25  H   UNL     1      45.059   0.993   9.338  0.00  0.00    +0.000 HD
ATOM     26  H   UNL     1      43.786   1.916  10.107  0.00  0.00    +0.000 HD
ENDBRANCH  21  23
ENDBRANCH  15  21
ENDBRANCH   1  19
TORSDOF 5
ENDMDL
