MODEL 1
REMARK VINA RESULT:    -9.074      0.000      0.000
REMARK INTER + INTRA:         -12.434
REMARK INTER:                 -11.726
REMARK INTRA:                  -0.708
REMARK UNBOUND:                -0.708
REMARK  Name = 
REMARK  5 active torsions:
REMARK  status: ('A' for Active; 'I' for Inactive)
REMARK    1  A    between atoms: C_2  and  C_4
REMARK    2  A    between atoms: C_7  and  N_8
REMARK    3  A    between atoms: N_8  and  C_9
REMARK    4  A    between atoms: C_9  and  C_10
REMARK    5  A    between atoms: C_15  and  C_16
REMARK                            x       y       z     vdW  Elec       q    Type
REMARK                         _______ _______ _______ _____ _____    ______ ____
ROOT
ATOM      1  C   UNL     1      44.858   4.846  11.915  0.00  0.00    +0.000 A 
ATOM      2  C   UNL     1      45.464   3.959  12.809  0.00  0.00    +0.000 A 
ATOM      3  C   UNL     1      46.617   4.342  13.478  0.00  0.00    +0.000 A 
ATOM      4  F   UNL     1      47.200   3.485  14.327  0.00  0.00    +0.000 F 
ATOM      5  C   UNL     1      47.182   5.600  13.286  0.00  0.00    +0.000 A 
ATOM      6  C   UNL     1      46.606   6.522  12.397  0.00  0.00    +0.000 A 
ATOM      7  C   UNL     1      45.439   6.114  11.719  0.00  0.00    +0.000 A 
ENDROOT
BRANCH   6   8
ATOM      8  C   UNL     1      47.196   7.863  12.177  0.00  0.00    +0.000 A 
ATOM      9  C   UNL     1      48.533   8.028  11.796  0.00  0.00    +0.000 A 
ATOM     10  C   UNL     1      49.032   9.308  11.605  0.00  0.00    +0.000 A 
ATOM     11  N   UNL     1      48.302  10.430  11.757  0.00  0.00    +0.000 NA
ATOM     12  C   UNL     1      47.018  10.277  12.116  0.00  0.00    +0.000 A 
ATOM     13  N   UNL     1      46.252  11.434  12.210  0.00  0.00    +0.000 N 
ATOM     14  C   UNL     1      46.438   9.034  12.331  0.00  0.00    +0.000 A 
ATOM     15  H   UNL     1      46.882  12.221  12.074  0.00  0.00    +0.000 HD
ATOM     16  H   UNL     1      45.754  11.489  13.090  0.00  0.00    +0.000 HD
ENDBRANCH   6   8
BRANCH   1  17
ATOM     17  C   UNL     1      43.595   4.467  11.176  0.00  0.00    +0.000 C 
BRANCH  17  18
ATOM     18  N   UNL     1      43.746   4.828   9.771  0.00  0.00    +0.000 N 
ATOM     19  H   UNL     1      43.993   5.806   9.657  0.00  0.00    +0.000 HD
BRANCH  18  23
ATOM     20  C   UNL     1      46.348   2.328   7.804  0.00  0.00    +0.000 A 
ATOM     21  C   UNL     1      46.390   3.698   7.598  0.00  0.00    +0.000 A 
ATOM     22  N   UNL     1      45.537   4.558   8.216  0.00  0.00    +0.000 NA
ATOM     23  C   UNL     1      44.626   4.013   9.048  0.00  0.00    +0.000 A 
ATOM     24  C   UNL     1      44.599   2.623   9.242  0.00  0.00    +0.000 A 
ATOM     25  N   UNL     1      45.440   1.744   8.628  0.00  0.00    +0.000 NA
BRANCH  20  27
ATOM     26  N   UNL     1      48.423   2.080   6.571  0.00  0.00    +0.000 N 
ATOM     27  C   UNL     1      47.333   1.454   7.113  0.00  0.00    +0.000 C 
ATOM     28  O   UNL     1      47.187   0.241   7.036  0.00  0.00    +0.000 OA
ATOM     29  H   UNL     1      49.135   1.523   6.119  0.00  0.00    +0.000 HD
ATOM     30  H   UNL     1      48.556   3.077   6.695  0.00  0.00    +0.000 HD
ENDBRANCH  20  27
ENDBRANCH  18  23
ENDBRANCH  17  18
ENDBRANCH   1  17
TORSDOF 5
ENDMDL
MODEL 2
REMARK VINA RESULT:    -8.866      0.488      1.331
REMARK INTER + INTRA:         -12.166
REMARK INTER:                 -11.449
REMARK INTRA:                  -0.717
REMARK UNBOUND:                -0.708
REMARK  Name = 
REMARK  5 active torsions:
REMARK  status: ('A' for Active; 'I' for Inactive)
REMARK    1  A    between atoms: C_2  and  C_4
REMARK    2  A    between atoms: C_7  and  N_8
REMARK    3  A    between atoms: N_8  and  C_9
REMARK    4  A    between atoms: C_9  and  C_10
REMARK    5  A    between atoms: C_15  and  C_16
REMARK                            x       y       z     vdW  Elec       q    Type
REMARK                         _______ _______ _______ _____ _____    ______ ____
ROOT
ATOM      1  C   UNL     1      44.894   4.887  11.818  0.00  0.00    +0.000 A 
ATOM      2  C   UNL     1      45.477   4.001  12.728  0.00  0.00    +0.000 A 
ATOM      3  C   UNL     1      46.612   4.386  13.427  0.00  0.00    +0.000 A 
ATOM      4  F   UNL     1      47.173   3.531  14.292  0.00  0.00    +0.000 F 
ATOM      5  C   UNL     1      47.180   5.644  13.250  0.00  0.00    +0.000 A 
ATOM      6  C   UNL     1      46.626   6.566  12.346  0.00  0.00    +0.000 A 
ATOM      7  C   UNL     1      45.478   6.156  11.638  0.00  0.00    +0.000 A 
ENDROOT
BRANCH   6   8
ATOM      8  C   UNL     1      47.219   7.908  12.141  0.00  0.00    +0.000 A 
ATOM      9  C   UNL     1      46.468   9.079  12.296  0.00  0.00    +0.000 A 
ATOM     10  C   UNL     1      47.076  10.308  12.091  0.00  0.00    +0.000 A 
ATOM     11  N   UNL     1      48.371  10.459  11.752  0.00  0.00    +0.000 NA
ATOM     12  C   UNL     1      49.097   9.340  11.607  0.00  0.00    +0.000 A 
ATOM     13  N   UNL     1      50.447   9.503  11.318  0.00  0.00    +0.000 N 
ATOM     14  C   UNL     1      48.568   8.070  11.790  0.00  0.00    +0.000 A 
ATOM     15  H   UNL     1      50.604  10.497  11.169  0.00  0.00    +0.000 HD
ATOM     16  H   UNL     1      50.736   8.946  10.524  0.00  0.00    +0.000 HD
ENDBRANCH   6   8
BRANCH   1  17
ATOM     17  C   UNL     1      43.651   4.506  11.047  0.00  0.00    +0.000 C 
BRANCH  17  18
ATOM     18  N   UNL     1      43.831   4.883   9.649  0.00  0.00    +0.000 N 
ATOM     19  H   UNL     1      44.097   5.858   9.552  0.00  0.00    +0.000 HD
BRANCH  18  23
ATOM     20  C   UNL     1      46.425   2.366   7.692  0.00  0.00    +0.000 A 
ATOM     21  C   UNL     1      46.491   3.737   7.503  0.00  0.00    +0.000 A 
ATOM     22  N   UNL     1      45.642   4.603   8.118  0.00  0.00    +0.000 NA
ATOM     23  C   UNL     1      44.710   4.063   8.930  0.00  0.00    +0.000 A 
ATOM     24  C   UNL     1      44.659   2.671   9.107  0.00  0.00    +0.000 A 
ATOM     25  N   UNL     1      45.495   1.786   8.496  0.00  0.00    +0.000 NA
BRANCH  20  27
ATOM     26  N   UNL     1      48.497   2.103   6.458  0.00  0.00    +0.000 N 
ATOM     27  C   UNL     1      47.406   1.484   7.006  0.00  0.00    +0.000 C 
ATOM     28  O   UNL     1      47.257   0.271   6.938  0.00  0.00    +0.000 OA
ATOM     29  H   UNL     1      49.206   1.541   6.009  0.00  0.00    +0.000 HD
ATOM     30  H   UNL     1      48.633   3.101   6.574  0.00  0.00    +0.000 HD
ENDBRANCH  20  27
ENDBRANCH  18  23
ENDBRANCH  17  18
ENDBRANCH   1  17
TORSDOF 5
ENDMDL
MODEL 3
REMARK VINA RESULT:    -8.820      3.162      4.222
REMARK INTER + INTRA:         -12.106
REMARK INTER:                 -11.531
REMARK INTRA:                  -0.576
REMARK UNBOUND:                -0.708
REMARK  Name = 
REMARK  5 active torsions:
REMARK  status: ('A' for Active; 'I' for Inactive)
REMARK    1  A    between atoms: C_2  and  C_4
REMARK    2  A    between atoms: C_7  and  N_8
REMARK    3  A    between atoms: N_8  and  C_9
REMARK    4  A    between atoms: C_9  and  C_10
REMARK    5  A    between atoms: C_15  and  C_16
REMARK                            x       y       z     vdW  Elec       q    Type
REMARK                         _______ _______ _______ _____ _____    ______ ____
ROOT
ATOM      1  C   UNL     1      45.523   5.465  12.009  0.00  0.00    +0.000 A 
ATOM      2  C   UNL     1      46.287   6.388  11.291  0.00  0.00    +0.000 A 
ATOM      3  C   UNL     1      47.444   6.907  11.855  0.00  0.00    +0.000 A 
ATOM      4  F   UNL     1      48.168   7.799  11.167  0.00  0.00    +0.000 F 
ATOM      5  C   UNL     1      47.868   6.518  13.123  0.00  0.00    +0.000 A 
ATOM      6  C   UNL     1      47.130   5.592  13.879  0.00  0.00    +0.000 A 
ATOM      7  C   UNL     1      45.954   5.082  13.294  0.00  0.00    +0.000 A 
ENDROOT
BRANCH   6   8
ATOM      8  C   UNL     1      47.565   5.170  15.231  0.00  0.00    +0.000 A 
ATOM      9  C   UNL     1      48.538   5.877  15.948  0.00  0.00    +0.000 A 
ATOM     10  C   UNL     1      48.906   5.435  17.210  0.00  0.00    +0.000 A 
ATOM     11  N   UNL     1      48.376   4.352  17.812  0.00  0.00    +0.000 NA
ATOM     12  C   UNL     1      47.439   3.675  17.131  0.00  0.00    +0.000 A 
ATOM     13  N   UNL     1      46.850   2.596  17.782  0.00  0.00    +0.000 N 
ATOM     14  C   UNL     1      47.013   4.045  15.863  0.00  0.00    +0.000 A 
ATOM     15  H   UNL     1      47.347   2.469  18.660  0.00  0.00    +0.000 HD
ATOM     16  H   UNL     1      46.858   1.759  17.212  0.00  0.00    +0.000 HD
ENDBRANCH   6   8
BRANCH   1  17
ATOM     17  C   UNL     1      44.263   4.871  11.422  0.00  0.00    +0.000 C 
BRANCH  17  18
ATOM     18  N   UNL     1      44.274   5.076   9.978  0.00  0.00    +0.000 N 
ATOM     19  H   UNL     1      44.614   6.000   9.731  0.00  0.00    +0.000 HD
BRANCH  18  23
ATOM     20  C   UNL     1      46.312   2.099   8.010  0.00  0.00    +0.000 A 
ATOM     21  C   UNL     1      46.441   3.422   7.620  0.00  0.00    +0.000 A 
ATOM     22  N   UNL     1      45.772   4.435   8.233  0.00  0.00    +0.000 NA
ATOM     23  C   UNL     1      44.957   4.092   9.252  0.00  0.00    +0.000 A 
ATOM     24  C   UNL     1      44.839   2.746   9.631  0.00  0.00    +0.000 A 
ATOM     25  N   UNL     1      45.495   1.715   9.026  0.00  0.00    +0.000 NA
BRANCH  20  27
ATOM     26  N   UNL     1      46.797  -0.248   7.629  0.00  0.00    +0.000 N 
ATOM     27  C   UNL     1      47.098   1.049   7.309  0.00  0.00    +0.000 C 
ATOM     28  O   UNL     1      47.962   1.321   6.486  0.00  0.00    +0.000 OA
ATOM     29  H   UNL     1      47.284  -0.996   7.155  0.00  0.00    +0.000 HD
ATOM     30  H   UNL     1      46.040  -0.456   8.270  0.00  0.00    +0.000 HD
ENDBRANCH  20  27
ENDBRANCH  18  23
ENDBRANCH  17  18
ENDBRANCH   1  17
TORSDOF 5
ENDMDL
MODEL 4
REMARK VINA RESULT:    -8.457      3.012      4.088
REMARK INTER + INTRA:         -11.637
REMARK INTER:                 -11.090
REMARK INTRA:                  -0.546
REMARK UNBOUND:                -0.708
REMARK  Name = 
REMARK  5 active torsions:
REMARK  status: ('A' for Active; 'I' for Inactive)
REMARK    1  A    between atoms: C_2  and  C_4
REMARK    2  A    between atoms: C_7  and  N_8
REMARK    3  A    between atoms: N_8  and  C_9
REMARK    4  A    between atoms: C_9  and  C_10
REMARK    5  A    between atoms: C_15  and  C_16
REMARK                            x       y       z     vdW  Elec       q    Type
REMARK                         _______ _______ _______ _____ _____    ______ ____
ROOT
ATOM      1  C   UNL     1      45.480   5.259  12.073  0.00  0.00    +0.000 A 
ATOM      2  C   UNL     1      46.168   6.284  11.419  0.00  0.00    +0.000 A 
ATOM      3  C   UNL     1      47.286   6.849  12.017  0.00  0.00    +0.000 A 
ATOM      4  F   UNL     1      47.937   7.838  11.391  0.00  0.00    +0.000 F 
ATOM      5  C   UNL     1      47.746   6.408  13.255  0.00  0.00    +0.000 A 
ATOM      6  C   UNL     1      47.085   5.379  13.946  0.00  0.00    +0.000 A 
ATOM      7  C   UNL     1      45.947   4.822  13.329  0.00  0.00    +0.000 A 
ENDROOT
BRANCH   6   8
ATOM      8  C   UNL     1      47.558   4.900  15.265  0.00  0.00    +0.000 A 
ATOM      9  C   UNL     1      47.226   3.630  15.752  0.00  0.00    +0.000 A 
ATOM     10  C   UNL     1      47.697   3.235  16.995  0.00  0.00    +0.000 A 
ATOM     11  N   UNL     1      48.476   4.001  17.783  0.00  0.00    +0.000 NA
ATOM     12  C   UNL     1      48.801   5.217  17.319  0.00  0.00    +0.000 A 
ATOM     13  N   UNL     1      49.657   5.980  18.107  0.00  0.00    +0.000 N 
ATOM     14  C   UNL     1      48.372   5.694  16.088  0.00  0.00    +0.000 A 
ATOM     15  H   UNL     1      49.795   5.471  18.977  0.00  0.00    +0.000 HD
ATOM     16  H   UNL     1      49.299   6.914  18.261  0.00  0.00    +0.000 HD
ENDBRANCH   6   8
BRANCH   1  17
ATOM     17  C   UNL     1      44.265   4.612  11.448  0.00  0.00    +0.000 C 
BRANCH  17  18
ATOM     18  N   UNL     1      44.231   4.949  10.029  0.00  0.00    +0.000 N 
ATOM     19  H   UNL     1      44.487   5.918   9.865  0.00  0.00    +0.000 HD
BRANCH  18  23
ATOM     20  C   UNL     1      46.463   2.343   7.767  0.00  0.00    +0.000 A 
ATOM     21  C   UNL     1      46.529   3.710   7.545  0.00  0.00    +0.000 A 
ATOM     22  N   UNL     1      45.795   4.604   8.259  0.00  0.00    +0.000 NA
ATOM     23  C   UNL     1      44.980   4.098   9.207  0.00  0.00    +0.000 A 
ATOM     24  C   UNL     1      44.926   2.711   9.415  0.00  0.00    +0.000 A 
ATOM     25  N   UNL     1      45.648   1.797   8.707  0.00  0.00    +0.000 NA
BRANCH  20  27
ATOM     26  N   UNL     1      48.369   2.006   6.304  0.00  0.00    +0.000 N 
ATOM     27  C   UNL     1      47.318   1.428   6.964  0.00  0.00    +0.000 C 
ATOM     28  O   UNL     1      47.103   0.226   6.897  0.00  0.00    +0.000 OA
ATOM     29  H   UNL     1      48.996   1.420   5.771  0.00  0.00    +0.000 HD
ATOM     30  H   UNL     1      48.566   2.994   6.417  0.00  0.00    +0.000 HD
ENDBRANCH  20  27
ENDBRANCH  18  23
ENDBRANCH  17  18
ENDBRANCH   1  17
TORSDOF 5
ENDMDL
MODEL 5
REMARK VINA RESULT:    -8.267      1.657      2.234
REMARK INTER + INTRA:         -11.391
REMARK INTER:                 -10.636
REMARK INTRA:                  -0.754
REMARK UNBOUND:                -0.708
REMARK  Name = 
REMARK  5 active torsions:
REMARK  status: ('A' for Active; 'I' for Inactive)
REMARK    1  A    between atoms: C_2  and  C_4
REMARK    2  A    between atoms: C_7  and  N_8
REMARK    3  A    between atoms: N_8  and  C_9
REMARK    4  A    between atoms: C_9  and  C_10
REMARK    5  A    between atoms: C_15  and  C_16
REMARK                            x       y       z     vdW  Elec       q    Type
REMARK                         _______ _______ _______ _____ _____    ______ ____
ROOT
ATOM      1  C   UNL     1      44.983   4.594  12.290  0.00  0.00    +0.000 A 
ATOM      2  C   UNL     1      46.009   4.372  13.212  0.00  0.00    +0.000 A 
ATOM      3  C   UNL     1      46.755   5.446  13.679  0.00  0.00    +0.000 A 
ATOM      4  F   UNL     1      47.743   5.228  14.556  0.00  0.00    +0.000 F 
ATOM      5  C   UNL     1      46.495   6.746  13.254  0.00  0.00    +0.000 A 
ATOM      6  C   UNL     1      45.473   7.014  12.329  0.00  0.00    +0.000 A 
ATOM      7  C   UNL     1      44.731   5.911  11.859  0.00  0.00    +0.000 A 
ENDROOT
BRANCH   6   8
ATOM      8  C   UNL     1      45.186   8.390  11.864  0.00  0.00    +0.000 A 
ATOM      9  C   UNL     1      45.946   9.487  12.288  0.00  0.00    +0.000 A 
ATOM     10  C   UNL     1      45.630  10.754  11.820  0.00  0.00    +0.000 A 
ATOM     11  N   UNL     1      44.625  11.009  10.960  0.00  0.00    +0.000 NA
ATOM     12  C   UNL     1      43.897   9.961  10.546  0.00  0.00    +0.000 A 
ATOM     13  N   UNL     1      42.901  10.221   9.611  0.00  0.00    +0.000 N 
ATOM     14  C   UNL     1      44.141   8.661  10.966  0.00  0.00    +0.000 A 
ATOM     15  H   UNL     1      42.857  11.230   9.493  0.00  0.00    +0.000 HD
ATOM     16  H   UNL     1      42.010   9.827   9.886  0.00  0.00    +0.000 HD
ENDBRANCH   6   8
BRANCH   1  17
ATOM     17  C   UNL     1      44.144   3.450  11.768  0.00  0.00    +0.000 C 
BRANCH  17  18
ATOM     18  N   UNL     1      43.774   3.732  10.385  0.00  0.00    +0.000 N 
ATOM     19  H   UNL     1      43.509   4.703  10.255  0.00  0.00    +0.000 HD
BRANCH  18  23
ATOM     20  C   UNL     1      46.500   2.739   7.473  0.00  0.00    +0.000 A 
ATOM     21  C   UNL     1      46.012   1.777   8.344  0.00  0.00    +0.000 A 
ATOM     22  N   UNL     1      45.122   2.067   9.331  0.00  0.00    +0.000 NA
ATOM     23  C   UNL     1      44.731   3.354   9.435  0.00  0.00    +0.000 A 
ATOM     24  C   UNL     1      45.238   4.313   8.544  0.00  0.00    +0.000 A 
ATOM     25  N   UNL     1      46.135   4.045   7.553  0.00  0.00    +0.000 NA
BRANCH  20  27
ATOM     26  N   UNL     1      47.409   3.082   5.250  0.00  0.00    +0.000 N 
ATOM     27  C   UNL     1      47.450   2.341   6.400  0.00  0.00    +0.000 C 
ATOM     28  O   UNL     1      48.230   1.408   6.534  0.00  0.00    +0.000 OA
ATOM     29  H   UNL     1      48.057   2.868   4.506  0.00  0.00    +0.000 HD
ATOM     30  H   UNL     1      46.797   3.886   5.180  0.00  0.00    +0.000 HD
ENDBRANCH  20  27
ENDBRANCH  18  23
ENDBRANCH  17  18
ENDBRANCH   1  17
TORSDOF 5
ENDMDL
MODEL 6
REMARK VINA RESULT:    -8.216      3.852      7.284
REMARK INTER + INTRA:         -11.326
REMARK INTER:                 -10.970
REMARK INTRA:                  -0.356
REMARK UNBOUND:                -0.708
REMARK  Name = 
REMARK  5 active torsions:
REMARK  status: ('A' for Active; 'I' for Inactive)
REMARK    1  A    between atoms: C_2  and  C_4
REMARK    2  A    between atoms: C_7  and  N_8
REMARK    3  A    between atoms: N_8  and  C_9
REMARK    4  A    between atoms: C_9  and  C_10
REMARK    5  A    between atoms: C_15  and  C_16
REMARK                            x       y       z     vdW  Elec       q    Type
REMARK                         _______ _______ _______ _____ _____    ______ ____
ROOT
ATOM      1  C   UNL     1      45.394   6.272  11.466  0.00  0.00    +0.000 A 
ATOM      2  C   UNL     1      44.029   6.252  11.763  0.00  0.00    +0.000 A 
ATOM      3  C   UNL     1      43.197   5.358  11.105  0.00  0.00    +0.000 A 
ATOM      4  F   UNL     1      41.888   5.348  11.386  0.00  0.00    +0.000 F 
ATOM      5  C   UNL     1      43.696   4.468  10.157  0.00  0.00    +0.000 A 
ATOM      6  C   UNL     1      45.062   4.454   9.828  0.00  0.00    +0.000 A 
ATOM      7  C   UNL     1      45.891   5.374  10.500  0.00  0.00    +0.000 A 
ENDROOT
BRANCH   6   8
ATOM      8  C   UNL     1      45.609   3.517   8.820  0.00  0.00    +0.000 A 
ATOM      9  C   UNL     1      45.585   2.130   9.010  0.00  0.00    +0.000 A 
ATOM     10  C   UNL     1      46.113   1.301   8.032  0.00  0.00    +0.000 A 
ATOM     11  N   UNL     1      46.653   1.746   6.880  0.00  0.00    +0.000 NA
ATOM     12  C   UNL     1      46.674   3.074   6.691  0.00  0.00    +0.000 A 
ATOM     13  N   UNL     1      47.176   3.525   5.475  0.00  0.00    +0.000 N 
ATOM     14  C   UNL     1      46.171   3.976   7.618  0.00  0.00    +0.000 A 
ATOM     15  H   UNL     1      47.539   2.713   4.982  0.00  0.00    +0.000 HD
ATOM     16  H   UNL     1      47.877   4.245   5.597  0.00  0.00    +0.000 HD
ENDBRANCH   6   8
BRANCH   1  17
ATOM     17  C   UNL     1      46.332   7.225  12.170  0.00  0.00    +0.000 C 
BRANCH  17  18
ATOM     18  N   UNL     1      47.590   6.536  12.436  0.00  0.00    +0.000 N 
ATOM     19  H   UNL     1      48.385   7.165  12.378  0.00  0.00    +0.000 HD
BRANCH  18  23
ATOM     20  C   UNL     1      47.502   4.381  15.935  0.00  0.00    +0.000 A 
ATOM     21  C   UNL     1      48.204   5.573  15.855  0.00  0.00    +0.000 A 
ATOM     22  N   UNL     1      48.272   6.308  14.713  0.00  0.00    +0.000 NA
ATOM     23  C   UNL     1      47.622   5.817  13.638  0.00  0.00    +0.000 A 
ATOM     24  C   UNL     1      46.918   4.607  13.739  0.00  0.00    +0.000 A 
ATOM     25  N   UNL     1      46.842   3.852  14.871  0.00  0.00    +0.000 NA
BRANCH  20  27
ATOM     26  N   UNL     1      48.498   3.852  18.083  0.00  0.00    +0.000 N 
ATOM     27  C   UNL     1      47.449   3.647  17.227  0.00  0.00    +0.000 C 
ATOM     28  O   UNL     1      46.521   2.905  17.519  0.00  0.00    +0.000 OA
ATOM     29  H   UNL     1      48.490   3.399  18.986  0.00  0.00    +0.000 HD
ATOM     30  H   UNL     1      49.229   4.514  17.849  0.00  0.00    +0.000 HD
ENDBRANCH  20  27
ENDBRANCH  18  23
ENDBRANCH  17  18
ENDBRANCH   1  17
TORSDOF 5
ENDMDL
MODEL 7
REMARK VINA RESULT:    -7.996      2.299      2.973
REMARK INTER + INTRA:         -11.041
REMARK INTER:                 -10.342
REMARK INTRA:                  -0.699
REMARK UNBOUND:                -0.708
REMARK  Name = 
REMARK  5 active torsions:
REMARK  status: ('A' for Active; 'I' for Inactive)
REMARK    1  A    between atoms: C_2  and  C_4
REMARK    2  A    between atoms: C_7  and  N_8
REMARK    3  A    between atoms: N_8  and  C_9
REMARK    4  A    between atoms: C_9  and  C_10
REMARK    5  A    between atoms: C_15  and  C_16
REMARK                            x       y       z     vdW  Elec       q    Type
REMARK                         _______ _______ _______ _____ _____    ______ ____
ROOT
ATOM      1  C   UNL     1      44.765   6.235  11.522  0.00  0.00    +0.000 A 
ATOM      2  C   UNL     1      43.985   7.365  11.263  0.00  0.00    +0.000 A 
ATOM      3  C   UNL     1      44.527   8.629  11.447  0.00  0.00    +0.000 A 
ATOM      4  F   UNL     1      43.773   9.710  11.206  0.00  0.00    +0.000 F 
ATOM      5  C   UNL     1      45.840   8.798  11.877  0.00  0.00    +0.000 A 
ATOM      6  C   UNL     1      46.659   7.690  12.148  0.00  0.00    +0.000 A 
ATOM      7  C   UNL     1      46.090   6.413  11.964  0.00  0.00    +0.000 A 
ENDROOT
BRANCH   6   8
ATOM      8  C   UNL     1      48.058   7.851  12.610  0.00  0.00    +0.000 A 
ATOM      9  C   UNL     1      48.364   8.174  13.937  0.00  0.00    +0.000 A 
ATOM     10  C   UNL     1      49.692   8.313  14.313  0.00  0.00    +0.000 A 
ATOM     11  N   UNL     1      50.733   8.149  13.473  0.00  0.00    +0.000 NA
ATOM     12  C   UNL     1      50.444   7.834  12.201  0.00  0.00    +0.000 A 
ATOM     13  N   UNL     1      51.522   7.603  11.353  0.00  0.00    +0.000 N 
ATOM     14  C   UNL     1      49.144   7.678  11.739  0.00  0.00    +0.000 A 
ATOM     15  H   UNL     1      52.366   7.828  11.874  0.00  0.00    +0.000 HD
ATOM     16  H   UNL     1      51.449   8.132  10.493  0.00  0.00    +0.000 HD
ENDBRANCH   6   8
BRANCH   1  17
ATOM     17  C   UNL     1      44.211   4.843  11.322  0.00  0.00    +0.000 C 
BRANCH  17  18
ATOM     18  N   UNL     1      43.812   4.691   9.927  0.00  0.00    +0.000 N 
ATOM     19  H   UNL     1      43.650   5.589   9.481  0.00  0.00    +0.000 HD
BRANCH  18  23
ATOM     20  C   UNL     1      46.398   2.300   7.809  0.00  0.00    +0.000 A 
ATOM     21  C   UNL     1      46.279   3.649   7.515  0.00  0.00    +0.000 A 
ATOM     22  N   UNL     1      45.425   4.471   8.181  0.00  0.00    +0.000 NA
ATOM     23  C   UNL     1      44.677   3.908   9.152  0.00  0.00    +0.000 A 
ATOM     24  C   UNL     1      44.810   2.539   9.433  0.00  0.00    +0.000 A 
ATOM     25  N   UNL     1      45.656   1.697   8.775  0.00  0.00    +0.000 NA
BRANCH  20  27
ATOM     26  N   UNL     1      48.481   2.121   6.579  0.00  0.00    +0.000 N 
ATOM     27  C   UNL     1      47.376   1.470   7.056  0.00  0.00    +0.000 C 
ATOM     28  O   UNL     1      47.211   0.271   6.876  0.00  0.00    +0.000 OA
ATOM     29  H   UNL     1      49.188   1.591   6.088  0.00  0.00    +0.000 HD
ATOM     30  H   UNL     1      48.629   3.101   6.787  0.00  0.00    +0.000 HD
ENDBRANCH  20  27
ENDBRANCH  18  23
ENDBRANCH  17  18
ENDBRANCH   1  17
TORSDOF 5
ENDMDL
MODEL 8
REMARK VINA RESULT:    -7.753      3.177      7.160
REMARK INTER + INTRA:         -10.727
REMARK INTER:                 -10.174
REMARK INTRA:                  -0.553
REMARK UNBOUND:                -0.708
REMARK  Name = 
REMARK  5 active torsions:
REMARK  status: ('A' for Active; 'I' for Inactive)
REMARK    1  A    between atoms: C_2  and  C_4
REMARK    2  A    between atoms: C_7  and  N_8
REMARK    3  A    between atoms: N_8  and  C_9
REMARK    4  A    between atoms: C_9  and  C_10
REMARK    5  A    between atoms: C_15  and  C_16
REMARK                            x       y       z     vdW  Elec       q    Type
REMARK                         _______ _______ _______ _____ _____    ______ ____
ROOT
ATOM      1  C   UNL     1      44.446   5.162  10.754  0.00  0.00    +0.000 A 
ATOM      2  C   UNL     1      43.658   4.350  11.574  0.00  0.00    +0.000 A 
ATOM      3  C   UNL     1      43.595   2.986  11.330  0.00  0.00    +0.000 A 
ATOM      4  F   UNL     1      42.832   2.213  12.113  0.00  0.00    +0.000 F 
ATOM      5  C   UNL     1      44.311   2.402  10.288  0.00  0.00    +0.000 A 
ATOM      6  C   UNL     1      45.116   3.181   9.440  0.00  0.00    +0.000 A 
ATOM      7  C   UNL     1      45.162   4.566   9.696  0.00  0.00    +0.000 A 
ENDROOT
BRANCH   6   8
ATOM      8  C   UNL     1      45.881   2.578   8.324  0.00  0.00    +0.000 A 
ATOM      9  C   UNL     1      46.258   1.230   8.331  0.00  0.00    +0.000 A 
ATOM     10  C   UNL     1      46.974   0.719   7.259  0.00  0.00    +0.000 A 
ATOM     11  N   UNL     1      47.336   1.444   6.182  0.00  0.00    +0.000 NA
ATOM     12  C   UNL     1      46.972   2.735   6.168  0.00  0.00    +0.000 A 
ATOM     13  N   UNL     1      47.292   3.463   5.028  0.00  0.00    +0.000 N 
ATOM     14  C   UNL     1      46.256   3.328   7.199  0.00  0.00    +0.000 A 
ATOM     15  H   UNL     1      47.858   2.860   4.437  0.00  0.00    +0.000 HD
ATOM     16  H   UNL     1      47.761   4.332   5.250  0.00  0.00    +0.000 HD
ENDBRANCH   6   8
BRANCH   1  17
ATOM     17  C   UNL     1      44.548   6.651  10.995  0.00  0.00    +0.000 C 
BRANCH  17  18
ATOM     18  N   UNL     1      44.659   6.888  12.430  0.00  0.00    +0.000 N 
ATOM     19  H   UNL     1      44.147   6.195  12.968  0.00  0.00    +0.000 HD
BRANCH  18  23
ATOM     20  C   UNL     1      48.483   7.073  13.924  0.00  0.00    +0.000 A 
ATOM     21  C   UNL     1      47.742   8.228  13.730  0.00  0.00    +0.000 A 
ATOM     22  N   UNL     1      46.480   8.212  13.223  0.00  0.00    +0.000 NA
ATOM     23  C   UNL     1      45.972   7.004  12.904  0.00  0.00    +0.000 A 
ATOM     24  C   UNL     1      46.739   5.846  13.107  0.00  0.00    +0.000 A 
ATOM     25  N   UNL     1      48.007   5.840  13.608  0.00  0.00    +0.000 NA
BRANCH  20  27
ATOM     26  N   UNL     1      50.778   7.846  13.770  0.00  0.00    +0.000 N 
ATOM     27  C   UNL     1      49.847   7.168  14.511  0.00  0.00    +0.000 C 
ATOM     28  O   UNL     1      50.126   6.675  15.595  0.00  0.00    +0.000 OA
ATOM     29  H   UNL     1      51.710   7.963  14.143  0.00  0.00    +0.000 HD
ATOM     30  H   UNL     1      50.514   8.297  12.902  0.00  0.00    +0.000 HD
ENDBRANCH  20  27
ENDBRANCH  18  23
ENDBRANCH  17  18
ENDBRANCH   1  17
TORSDOF 5
ENDMDL
MODEL 9
REMARK VINA RESULT:    -7.743      2.805      3.474
REMARK INTER + INTRA:         -10.714
REMARK INTER:                 -10.118
REMARK INTRA:                  -0.595
REMARK UNBOUND:                -0.708
REMARK  Name = 
REMARK  5 active torsions:
REMARK  status: ('A' for Active; 'I' for Inactive)
REMARK    1  A    between atoms: C_2  and  C_4
REMARK    2  A    between atoms: C_7  and  N_8
REMARK    3  A    between atoms: N_8  and  C_9
REMARK    4  A    between atoms: C_9  and  C_10
REMARK    5  A    between atoms: C_15  and  C_16
REMARK                            x       y       z     vdW  Elec       q    Type
REMARK                         _______ _______ _______ _____ _____    ______ ____
ROOT
ATOM      1  C   UNL     1      45.286   6.451  11.898  0.00  0.00    +0.000 A 
ATOM      2  C   UNL     1      44.736   7.723  11.716  0.00  0.00    +0.000 A 
ATOM      3  C   UNL     1      45.359   8.826  12.281  0.00  0.00    +0.000 A 
ATOM      4  F   UNL     1      44.823  10.042  12.112  0.00  0.00    +0.000 F 
ATOM      5  C   UNL     1      46.531   8.696  13.021  0.00  0.00    +0.000 A 
ATOM      6  C   UNL     1      47.118   7.436  13.228  0.00  0.00    +0.000 A 
ATOM      7  C   UNL     1      46.467   6.325  12.654  0.00  0.00    +0.000 A 
ENDROOT
BRANCH   6   8
ATOM      8  C   UNL     1      48.362   7.279  14.016  0.00  0.00    +0.000 A 
ATOM      9  C   UNL     1      49.568   7.869  13.618  0.00  0.00    +0.000 A 
ATOM     10  C   UNL     1      50.702   7.686  14.395  0.00  0.00    +0.000 A 
ATOM     11  N   UNL     1      50.725   6.970  15.536  0.00  0.00    +0.000 NA
ATOM     12  C   UNL     1      49.571   6.407  15.924  0.00  0.00    +0.000 A 
ATOM     13  N   UNL     1      49.585   5.722  17.134  0.00  0.00    +0.000 N 
ATOM     14  C   UNL     1      48.390   6.536  15.206  0.00  0.00    +0.000 A 
ATOM     15  H   UNL     1      50.550   5.700  17.455  0.00  0.00    +0.000 HD
ATOM     16  H   UNL     1      49.188   4.794  17.050  0.00  0.00    +0.000 HD
ENDBRANCH   6   8
BRANCH   1  17
ATOM     17  C   UNL     1      44.641   5.228  11.288  0.00  0.00    +0.000 C 
BRANCH  17  18
ATOM     18  N   UNL     1      44.619   5.381   9.837  0.00  0.00    +0.000 N 
ATOM     19  H   UNL     1      45.011   6.272   9.546  0.00  0.00    +0.000 HD
BRANCH  18  23
ATOM     20  C   UNL     1      46.390   2.207   7.919  0.00  0.00    +0.000 A 
ATOM     21  C   UNL     1      46.601   3.506   7.483  0.00  0.00    +0.000 A 
ATOM     22  N   UNL     1      46.022   4.582   8.079  0.00  0.00    +0.000 NA
ATOM     23  C   UNL     1      45.212   4.330   9.128  0.00  0.00    +0.000 A 
ATOM     24  C   UNL     1      45.010   3.007   9.553  0.00  0.00    +0.000 A 
ATOM     25  N   UNL     1      45.575   1.915   8.967  0.00  0.00    +0.000 NA
BRANCH  20  27
ATOM     26  N   UNL     1      46.748  -0.178   7.652  0.00  0.00    +0.000 N 
ATOM     27  C   UNL     1      47.082   1.083   7.234  0.00  0.00    +0.000 C 
ATOM     28  O   UNL     1      47.900   1.266   6.343  0.00  0.00    +0.000 OA
ATOM     29  H   UNL     1      47.170  -0.973   7.194  0.00  0.00    +0.000 HD
ATOM     30  H   UNL     1      46.027  -0.312   8.351  0.00  0.00    +0.000 HD
ENDBRANCH  20  27
ENDBRANCH  18  23
ENDBRANCH  17  18
ENDBRANCH   1  17
TORSDOF 5
ENDMDL
