MODEL 1
REMARK VINA RESULT:    -9.335      0.000      0.000
REMARK INTER + INTRA:         -12.623
REMARK INTER:                 -12.064
REMARK INTRA:                  -0.559
REMARK UNBOUND:                -0.559
REMARK  Name = 
REMARK  6 active torsions:
REMARK  status: ('A' for Active; 'I' for Inactive)
REMARK    1  A    between atoms: C_1  and  C_2
REMARK    2  A    between atoms: C_2  and  N_3
REMARK    3  A    between atoms: C_2  and  C_16
REMARK    4  A    between atoms: C_4  and  C_6
REMARK    5  A    between atoms: C_19  and  O_20
REMARK    6  A    between atoms: O_20  and  C_21
REMARK                            x       y       z     vdW  Elec       q    Type
REMARK                         _______ _______ _______ _____ _____    ______ ____
ROOT
ATOM      1  C   UNL     1      42.884   5.136  13.241  0.00  0.00    +0.000 C 
ATOM      2  C   UNL     1      44.238   4.480  12.954  0.00  0.00    +0.000 C 
ENDROOT
BRANCH   2   3
ATOM      3  C   UNL     1      44.555   4.335  11.474  0.00  0.00    +0.000 A 
ATOM      4  C   UNL     1      44.078   3.202  10.792  0.00  0.00    +0.000 A 
ATOM      5  C   UNL     1      44.305   3.038   9.423  0.00  0.00    +0.000 A 
ATOM      6  C   UNL     1      44.964   4.032   8.699  0.00  0.00    +0.000 A 
ATOM      7  C   UNL     1      45.495   5.130   9.374  0.00  0.00    +0.000 A 
ATOM      8  C   UNL     1      45.306   5.274  10.753  0.00  0.00    +0.000 A 
BRANCH   6   9
ATOM      9  O   UNL     1      45.193   3.987   7.341  0.00  0.00    +0.000 OA
BRANCH   9  10
ATOM     10  C   UNL     1      46.210   3.206   6.836  0.00  0.00    +0.000 A 
ATOM     11  C   UNL     1      46.859   3.439   5.627  0.00  0.00    +0.000 A 
ATOM     12  C   UNL     1      47.836   2.543   5.229  0.00  0.00    +0.000 A 
ATOM     13  N   UNL     1      48.238   1.491   5.971  0.00  0.00    +0.000 NA
ATOM     14  C   UNL     1      47.640   1.332   7.172  0.00  0.00    +0.000 A 
ATOM     15  C   UNL     1      46.631   2.154   7.644  0.00  0.00    +0.000 A 
ENDBRANCH   9  10
ENDBRANCH   6   9
ENDBRANCH   2   3
BRANCH   2  16
ATOM     16  N   UNL     1      45.310   5.176  13.640  0.00  0.00    +0.000 N 
ATOM     17  C   UNL     1      46.422   4.501  14.086  0.00  0.00    +0.000 C 
ATOM     18  O   UNL     1      46.579   3.301  13.877  0.00  0.00    +0.000 OA
ATOM     19  H   UNL     1      45.129   6.123  13.964  0.00  0.00    +0.000 HD
BRANCH  17  20
ATOM     20  C   UNL     1      47.453   5.283  14.777  0.00  0.00    +0.000 A 
ATOM     21  C   UNL     1      48.114   6.292  14.090  0.00  0.00    +0.000 A 
ATOM     22  S   UNL     1      49.311   7.080  15.012  0.00  0.00    +0.000 S 
ATOM     23  C   UNL     1      49.011   6.076  16.353  0.00  0.00    +0.000 A 
ATOM     24  N   UNL     1      49.749   6.193  17.490  0.00  0.00    +0.000 NA
ATOM     25  C   UNL     1      49.437   5.353  18.416  0.00  0.00    +0.000 A 
ATOM     26  N   UNL     1      48.441   4.412  18.315  0.00  0.00    +0.000 N 
ATOM     27  C   UNL     1      47.639   4.291  17.204  0.00  0.00    +0.000 A 
ATOM     28  O   UNL     1      46.698   3.499  17.174  0.00  0.00    +0.000 OA
ATOM     29  C   UNL     1      47.981   5.183  16.115  0.00  0.00    +0.000 A 
ATOM     30  H   UNL     1      48.228   3.803  19.089  0.00  0.00    +0.000 HD
ENDBRANCH  17  20
ENDBRANCH   2  16
TORSDOF 5
ENDMDL
MODEL 2
REMARK VINA RESULT:    -8.804      1.565      2.588
REMARK INTER + INTRA:         -11.937
REMARK INTER:                 -11.050
REMARK INTRA:                  -0.886
REMARK UNBOUND:                -0.559
REMARK  Name = 
REMARK  6 active torsions:
REMARK  status: ('A' for Active; 'I' for Inactive)
REMARK    1  A    between atoms: C_1  and  C_2
REMARK    2  A    between atoms: C_2  and  N_3
REMARK    3  A    between atoms: C_2  and  C_16
REMARK    4  A    between atoms: C_4  and  C_6
REMARK    5  A    between atoms: C_19  and  O_20
REMARK    6  A    between atoms: O_20  and  C_21
REMARK                            x       y       z     vdW  Elec       q    Type
REMARK                         _______ _______ _______ _____ _____    ______ ____
ROOT
ATOM      1  C   UNL     1      43.000   5.249  13.272  0.00  0.00    +0.000 C 
ATOM      2  C   UNL     1      44.340   4.557  12.997  0.00  0.00    +0.000 C 
ENDROOT
BRANCH   2   3
ATOM      3  C   UNL     1      44.637   4.348  11.521  0.00  0.00    +0.000 A 
ATOM      4  C   UNL     1      44.217   3.151  10.914  0.00  0.00    +0.000 A 
ATOM      5  C   UNL     1      44.429   2.925   9.551  0.00  0.00    +0.000 A 
ATOM      6  C   UNL     1      45.013   3.913   8.759  0.00  0.00    +0.000 A 
ATOM      7  C   UNL     1      45.489   5.077   9.361  0.00  0.00    +0.000 A 
ATOM      8  C   UNL     1      45.317   5.288  10.734  0.00  0.00    +0.000 A 
BRANCH   6   9
ATOM      9  O   UNL     1      45.220   3.805   7.401  0.00  0.00    +0.000 OA
BRANCH   9  10
ATOM     10  C   UNL     1      46.247   3.024   6.918  0.00  0.00    +0.000 A 
ATOM     11  C   UNL     1      46.789   1.929   7.585  0.00  0.00    +0.000 A 
ATOM     12  C   UNL     1      47.848   1.264   6.994  0.00  0.00    +0.000 A 
ATOM     13  N   UNL     1      48.348   1.577   5.780  0.00  0.00    +0.000 NA
ATOM     14  C   UNL     1      47.755   2.599   5.125  0.00  0.00    +0.000 A 
ATOM     15  C   UNL     1      46.713   3.345   5.647  0.00  0.00    +0.000 A 
ENDBRANCH   9  10
ENDBRANCH   6   9
ENDBRANCH   2   3
BRANCH   2  16
ATOM     16  N   UNL     1      45.431   5.260  13.644  0.00  0.00    +0.000 N 
ATOM     17  C   UNL     1      46.526   4.582  14.124  0.00  0.00    +0.000 C 
ATOM     18  O   UNL     1      46.651   3.368  13.980  0.00  0.00    +0.000 OA
ATOM     19  H   UNL     1      45.276   6.228  13.917  0.00  0.00    +0.000 HD
BRANCH  17  20
ATOM     20  C   UNL     1      47.579   5.372  14.771  0.00  0.00    +0.000 A 
ATOM     21  C   UNL     1      47.969   5.052  16.065  0.00  0.00    +0.000 A 
ATOM     22  S   UNL     1      49.169   6.085  16.695  0.00  0.00    +0.000 S 
ATOM     23  C   UNL     1      49.187   7.016  15.271  0.00  0.00    +0.000 A 
ATOM     24  N   UNL     1      49.981   8.117  15.167  0.00  0.00    +0.000 NA
ATOM     25  C   UNL     1      49.874   8.746  14.048  0.00  0.00    +0.000 A 
ATOM     26  N   UNL     1      49.055   8.368  13.012  0.00  0.00    +0.000 N 
ATOM     27  C   UNL     1      48.272   7.238  13.055  0.00  0.00    +0.000 A 
ATOM     28  O   UNL     1      47.615   6.874  12.082  0.00  0.00    +0.000 OA
ATOM     29  C   UNL     1      48.321   6.520  14.312  0.00  0.00    +0.000 A 
ATOM     30  H   UNL     1      49.041   8.890  12.151  0.00  0.00    +0.000 HD
ENDBRANCH  17  20
ENDBRANCH   2  16
TORSDOF 5
ENDMDL
MODEL 3
REMARK VINA RESULT:    -7.999      1.801      2.255
REMARK INTER + INTRA:         -10.896
REMARK INTER:                 -10.625
REMARK INTRA:                  -0.271
REMARK UNBOUND:                -0.559
REMARK  Name = 
REMARK  6 active torsions:
REMARK  status: ('A' for Active; 'I' for Inactive)
REMARK    1  A    between atoms: C_1  and  C_2
REMARK    2  A    between atoms: C_2  and  N_3
REMARK    3  A    between atoms: C_2  and  C_16
REMARK    4  A    between atoms: C_4  and  C_6
REMARK    5  A    between atoms: C_19  and  O_20
REMARK    6  A    between atoms: O_20  and  C_21
REMARK                            x       y       z     vdW  Elec       q    Type
REMARK                         _______ _______ _______ _____ _____    ______ ____
ROOT
ATOM      1  C   UNL     1      46.470   8.055  12.119  0.00  0.00    +0.000 C 
ATOM      2  C   UNL     1      45.570   6.871  12.489  0.00  0.00    +0.000 C 
ENDROOT
BRANCH   2   3
ATOM      3  C   UNL     1      45.401   5.849  11.377  0.00  0.00    +0.000 A 
ATOM      4  C   UNL     1      44.580   4.732  11.609  0.00  0.00    +0.000 A 
ATOM      5  C   UNL     1      44.358   3.783  10.607  0.00  0.00    +0.000 A 
ATOM      6  C   UNL     1      44.907   3.963   9.338  0.00  0.00    +0.000 A 
ATOM      7  C   UNL     1      45.772   5.033   9.114  0.00  0.00    +0.000 A 
ATOM      8  C   UNL     1      46.031   5.961  10.129  0.00  0.00    +0.000 A 
BRANCH   6   9
ATOM      9  O   UNL     1      44.707   3.112   8.273  0.00  0.00    +0.000 OA
BRANCH   9  10
ATOM     10  C   UNL     1      45.785   2.608   7.578  0.00  0.00    +0.000 A 
ATOM     11  C   UNL     1      46.372   3.222   6.476  0.00  0.00    +0.000 A 
ATOM     12  C   UNL     1      47.425   2.575   5.852  0.00  0.00    +0.000 A 
ATOM     13  N   UNL     1      47.954   1.413   6.287  0.00  0.00    +0.000 NA
ATOM     14  C   UNL     1      47.411   0.877   7.401  0.00  0.00    +0.000 A 
ATOM     15  C   UNL     1      46.336   1.430   8.075  0.00  0.00    +0.000 A 
ENDBRANCH   9  10
ENDBRANCH   6   9
ENDBRANCH   2   3
BRANCH   2  16
ATOM     16  N   UNL     1      46.029   6.230  13.707  0.00  0.00    +0.000 N 
ATOM     17  C   UNL     1      47.318   5.768  13.823  0.00  0.00    +0.000 C 
ATOM     18  O   UNL     1      48.146   5.924  12.929  0.00  0.00    +0.000 OA
ATOM     19  H   UNL     1      45.327   5.947  14.387  0.00  0.00    +0.000 HD
BRANCH  17  20
ATOM     20  C   UNL     1      47.693   5.125  15.087  0.00  0.00    +0.000 A 
ATOM     21  C   UNL     1      47.246   3.838  15.353  0.00  0.00    +0.000 A 
ATOM     22  S   UNL     1      47.728   3.245  16.876  0.00  0.00    +0.000 S 
ATOM     23  C   UNL     1      48.524   4.702  17.248  0.00  0.00    +0.000 A 
ATOM     24  N   UNL     1      49.122   4.880  18.458  0.00  0.00    +0.000 NA
ATOM     25  C   UNL     1      49.661   6.040  18.619  0.00  0.00    +0.000 A 
ATOM     26  N   UNL     1      49.671   7.036  17.673  0.00  0.00    +0.000 N 
ATOM     27  C   UNL     1      49.121   6.882  16.422  0.00  0.00    +0.000 A 
ATOM     28  O   UNL     1      49.221   7.758  15.564  0.00  0.00    +0.000 OA
ATOM     29  C   UNL     1      48.461   5.611  16.207  0.00  0.00    +0.000 A 
ATOM     30  H   UNL     1      50.137   7.912  17.853  0.00  0.00    +0.000 HD
ENDBRANCH  17  20
ENDBRANCH   2  16
TORSDOF 5
ENDMDL
MODEL 4
REMARK VINA RESULT:    -7.933      1.583      2.186
REMARK INTER + INTRA:         -10.812
REMARK INTER:                 -10.864
REMARK INTRA:                   0.052
REMARK UNBOUND:                -0.559
REMARK  Name = 
REMARK  6 active torsions:
REMARK  status: ('A' for Active; 'I' for Inactive)
REMARK    1  A    between atoms: C_1  and  C_2
REMARK    2  A    between atoms: C_2  and  N_3
REMARK    3  A    between atoms: C_2  and  C_16
REMARK    4  A    between atoms: C_4  and  C_6
REMARK    5  A    between atoms: C_19  and  O_20
REMARK    6  A    between atoms: O_20  and  C_21
REMARK                            x       y       z     vdW  Elec       q    Type
REMARK                         _______ _______ _______ _____ _____    ______ ____
ROOT
ATOM      1  C   UNL     1      45.324   8.450  11.556  0.00  0.00    +0.000 C 
ATOM      2  C   UNL     1      44.950   7.112  12.204  0.00  0.00    +0.000 C 
ENDROOT
BRANCH   2   3
ATOM      3  C   UNL     1      44.894   5.946  11.230  0.00  0.00    +0.000 A 
ATOM      4  C   UNL     1      43.998   4.895  11.491  0.00  0.00    +0.000 A 
ATOM      5  C   UNL     1      43.877   3.818  10.609  0.00  0.00    +0.000 A 
ATOM      6  C   UNL     1      44.607   3.801   9.420  0.00  0.00    +0.000 A 
ATOM      7  C   UNL     1      45.543   4.806   9.180  0.00  0.00    +0.000 A 
ATOM      8  C   UNL     1      45.697   5.863  10.084  0.00  0.00    +0.000 A 
BRANCH   6   9
ATOM      9  O   UNL     1      44.521   2.812   8.465  0.00  0.00    +0.000 OA
BRANCH   9  10
ATOM     10  C   UNL     1      45.655   2.381   7.811  0.00  0.00    +0.000 A 
ATOM     11  C   UNL     1      46.330   1.198   8.095  0.00  0.00    +0.000 A 
ATOM     12  C   UNL     1      47.482   0.917   7.382  0.00  0.00    +0.000 A 
ATOM     13  N   UNL     1      47.956   1.693   6.385  0.00  0.00    +0.000 NA
ATOM     14  C   UNL     1      47.239   2.798   6.083  0.00  0.00    +0.000 A 
ATOM     15  C   UNL     1      46.094   3.181   6.760  0.00  0.00    +0.000 A 
ENDBRANCH   9  10
ENDBRANCH   6   9
ENDBRANCH   2   3
BRANCH   2  16
ATOM     16  N   UNL     1      45.832   6.808  13.315  0.00  0.00    +0.000 N 
ATOM     17  C   UNL     1      47.197   6.892  13.181  0.00  0.00    +0.000 C 
ATOM     18  O   UNL     1      47.724   7.278  12.140  0.00  0.00    +0.000 OA
ATOM     19  H   UNL     1      45.431   6.336  14.123  0.00  0.00    +0.000 HD
BRANCH  17  20
ATOM     20  C   UNL     1      48.012   6.559  14.354  0.00  0.00    +0.000 A 
ATOM     21  C   UNL     1      49.025   7.424  14.745  0.00  0.00    +0.000 A 
ATOM     22  S   UNL     1      49.910   6.880  16.096  0.00  0.00    +0.000 S 
ATOM     23  C   UNL     1      48.990   5.451  16.185  0.00  0.00    +0.000 A 
ATOM     24  N   UNL     1      49.272   4.498  17.116  0.00  0.00    +0.000 NA
ATOM     25  C   UNL     1      48.519   3.455  17.053  0.00  0.00    +0.000 A 
ATOM     26  N   UNL     1      47.496   3.280  16.153  0.00  0.00    +0.000 N 
ATOM     27  C   UNL     1      47.146   4.236  15.228  0.00  0.00    +0.000 A 
ATOM     28  O   UNL     1      46.171   4.092  14.492  0.00  0.00    +0.000 OA
ATOM     29  C   UNL     1      47.994   5.411  15.227  0.00  0.00    +0.000 A 
ATOM     30  H   UNL     1      46.925   2.451  16.177  0.00  0.00    +0.000 HD
ENDBRANCH  17  20
ENDBRANCH   2  16
TORSDOF 5
ENDMDL
MODEL 5
REMARK VINA RESULT:    -7.480      2.336      3.665
REMARK INTER + INTRA:         -10.226
REMARK INTER:                  -9.000
REMARK INTRA:                  -1.226
REMARK UNBOUND:                -0.559
REMARK  Name = 
REMARK  6 active torsions:
REMARK  status: ('A' for Active; 'I' for Inactive)
REMARK    1  A    between atoms: C_1  and  C_2
REMARK    2  A    between atoms: C_2  and  N_3
REMARK    3  A    between atoms: C_2  and  C_16
REMARK    4  A    between atoms: C_4  and  C_6
REMARK    5  A    between atoms: C_19  and  O_20
REMARK    6  A    between atoms: O_20  and  C_21
REMARK                            x       y       z     vdW  Elec       q    Type
REMARK                         _______ _______ _______ _____ _____    ______ ____
ROOT
ATOM      1  C   UNL     1      48.086   9.134  12.874  0.00  0.00    +0.000 C 
ATOM      2  C   UNL     1      47.330   8.096  13.711  0.00  0.00    +0.000 C 
ENDROOT
BRANCH   2   3
ATOM      3  C   UNL     1      46.419   7.190  12.900  0.00  0.00    +0.000 A 
ATOM      4  C   UNL     1      45.395   7.776  12.136  0.00  0.00    +0.000 A 
ATOM      5  C   UNL     1      44.554   6.994  11.340  0.00  0.00    +0.000 A 
ATOM      6  C   UNL     1      44.758   5.617  11.249  0.00  0.00    +0.000 A 
ATOM      7  C   UNL     1      45.729   5.017  12.049  0.00  0.00    +0.000 A 
ATOM      8  C   UNL     1      46.544   5.794  12.880  0.00  0.00    +0.000 A 
BRANCH   6   9
ATOM      9  O   UNL     1      44.016   4.768  10.456  0.00  0.00    +0.000 OA
BRANCH   9  10
ATOM     10  C   UNL     1      44.647   3.882   9.611  0.00  0.00    +0.000 A 
ATOM     11  C   UNL     1      44.541   2.497   9.696  0.00  0.00    +0.000 A 
ATOM     12  C   UNL     1      45.268   1.731   8.802  0.00  0.00    +0.000 A 
ATOM     13  N   UNL     1      46.028   2.249   7.814  0.00  0.00    +0.000 NA
ATOM     14  C   UNL     1      46.055   3.595   7.712  0.00  0.00    +0.000 A 
ATOM     15  C   UNL     1      45.389   4.446   8.578  0.00  0.00    +0.000 A 
ENDBRANCH   9  10
ENDBRANCH   6   9
ENDBRANCH   2   3
BRANCH   2  16
ATOM     16  N   UNL     1      48.246   7.311  14.517  0.00  0.00    +0.000 N 
ATOM     17  C   UNL     1      48.643   7.740  15.762  0.00  0.00    +0.000 C 
ATOM     18  O   UNL     1      48.201   8.771  16.263  0.00  0.00    +0.000 OA
ATOM     19  H   UNL     1      48.744   6.550  14.062  0.00  0.00    +0.000 HD
BRANCH  17  20
ATOM     20  C   UNL     1      49.577   6.887  16.503  0.00  0.00    +0.000 A 
ATOM     21  C   UNL     1      50.794   7.413  16.916  0.00  0.00    +0.000 A 
ATOM     22  S   UNL     1      51.787   6.290  17.727  0.00  0.00    +0.000 S 
ATOM     23  C   UNL     1      50.638   5.052  17.525  0.00  0.00    +0.000 A 
ATOM     24  N   UNL     1      50.893   3.787  17.958  0.00  0.00    +0.000 NA
ATOM     25  C   UNL     1      49.951   2.941  17.715  0.00  0.00    +0.000 A 
ATOM     26  N   UNL     1      48.767   3.247  17.090  0.00  0.00    +0.000 N 
ATOM     27  C   UNL     1      48.448   4.520  16.679  0.00  0.00    +0.000 A 
ATOM     28  O   UNL     1      47.346   4.784  16.201  0.00  0.00    +0.000 OA
ATOM     29  C   UNL     1      49.495   5.500  16.888  0.00  0.00    +0.000 A 
ATOM     30  H   UNL     1      48.058   2.543  16.957  0.00  0.00    +0.000 HD
ENDBRANCH  17  20
ENDBRANCH   2  16
TORSDOF 5
ENDMDL
MODEL 6
REMARK VINA RESULT:    -7.343      3.600      6.175
REMARK INTER + INTRA:         -10.048
REMARK INTER:                  -8.836
REMARK INTRA:                  -1.212
REMARK UNBOUND:                -0.559
REMARK  Name = 
REMARK  6 active torsions:
REMARK  status: ('A' for Active; 'I' for Inactive)
REMARK    1  A    between atoms: C_1  and  C_2
REMARK    2  A    between atoms: C_2  and  N_3
REMARK    3  A    between atoms: C_2  and  C_16
REMARK    4  A    between atoms: C_4  and  C_6
REMARK    5  A    between atoms: C_19  and  O_20
REMARK    6  A    between atoms: O_20  and  C_21
REMARK                            x       y       z     vdW  Elec       q    Type
REMARK                         _______ _______ _______ _____ _____    ______ ____
ROOT
ATOM      1  C   UNL     1      49.863   7.820  15.753  0.00  0.00    +0.000 C 
ATOM      2  C   UNL     1      49.306   6.562  16.430  0.00  0.00    +0.000 C 
ENDROOT
BRANCH   2   3
ATOM      3  C   UNL     1      48.315   5.788  15.576  0.00  0.00    +0.000 A 
ATOM      4  C   UNL     1      48.049   6.244  14.273  0.00  0.00    +0.000 A 
ATOM      5  C   UNL     1      47.178   5.547  13.432  0.00  0.00    +0.000 A 
ATOM      6  C   UNL     1      46.600   4.351  13.857  0.00  0.00    +0.000 A 
ATOM      7  C   UNL     1      46.807   3.922  15.167  0.00  0.00    +0.000 A 
ATOM      8  C   UNL     1      47.645   4.641  16.026  0.00  0.00    +0.000 A 
BRANCH   6   9
ATOM      9  O   UNL     1      45.768   3.568  13.087  0.00  0.00    +0.000 OA
BRANCH   9  10
ATOM     10  C   UNL     1      44.777   4.150  12.327  0.00  0.00    +0.000 A 
ATOM     11  C   UNL     1      44.760   4.177  10.936  0.00  0.00    +0.000 A 
ATOM     12  C   UNL     1      43.718   4.837  10.309  0.00  0.00    +0.000 A 
ATOM     13  N   UNL     1      42.685   5.405  10.966  0.00  0.00    +0.000 NA
ATOM     14  C   UNL     1      42.692   5.300  12.313  0.00  0.00    +0.000 A 
ATOM     15  C   UNL     1      43.705   4.690  13.032  0.00  0.00    +0.000 A 
ENDBRANCH   9  10
ENDBRANCH   6   9
ENDBRANCH   2   3
BRANCH   2  16
ATOM     16  N   UNL     1      50.378   5.696  16.882  0.00  0.00    +0.000 N 
ATOM     17  C   UNL     1      50.428   5.248  18.180  0.00  0.00    +0.000 C 
ATOM     18  O   UNL     1      49.546   5.515  18.993  0.00  0.00    +0.000 OA
ATOM     19  H   UNL     1      51.193   5.597  16.281  0.00  0.00    +0.000 HD
BRANCH  17  20
ATOM     20  C   UNL     1      51.552   4.382  18.553  0.00  0.00    +0.000 A 
ATOM     21  C   UNL     1      52.551   4.884  19.376  0.00  0.00    +0.000 A 
ATOM     22  S   UNL     1      53.808   3.775  19.684  0.00  0.00    +0.000 S 
ATOM     23  C   UNL     1      53.076   2.595  18.700  0.00  0.00    +0.000 A 
ATOM     24  N   UNL     1      53.678   1.393  18.488  0.00  0.00    +0.000 NA
ATOM     25  C   UNL     1      53.031   0.605  17.700  0.00  0.00    +0.000 A 
ATOM     26  N   UNL     1      51.825   0.903  17.112  0.00  0.00    +0.000 N 
ATOM     27  C   UNL     1      51.159   2.085  17.336  0.00  0.00    +0.000 A 
ATOM     28  O   UNL     1      50.040   2.291  16.868  0.00  0.00    +0.000 OA
ATOM     29  C   UNL     1      51.868   3.025  18.180  0.00  0.00    +0.000 A 
ATOM     30  H   UNL     1      51.357   0.229  16.528  0.00  0.00    +0.000 HD
ENDBRANCH  17  20
ENDBRANCH   2  16
TORSDOF 5
ENDMDL
MODEL 7
REMARK VINA RESULT:    -7.106      2.638      4.150
REMARK INTER + INTRA:          -9.743
REMARK INTER:                  -8.606
REMARK INTRA:                  -1.136
REMARK UNBOUND:                -0.559
REMARK  Name = 
REMARK  6 active torsions:
REMARK  status: ('A' for Active; 'I' for Inactive)
REMARK    1  A    between atoms: C_1  and  C_2
REMARK    2  A    between atoms: C_2  and  N_3
REMARK    3  A    between atoms: C_2  and  C_16
REMARK    4  A    between atoms: C_4  and  C_6
REMARK    5  A    between atoms: C_19  and  O_20
REMARK    6  A    between atoms: O_20  and  C_21
REMARK                            x       y       z     vdW  Elec       q    Type
REMARK                         _______ _______ _______ _____ _____    ______ ____
ROOT
ATOM      1  C   UNL     1      49.712   7.422  13.341  0.00  0.00    +0.000 C 
ATOM      2  C   UNL     1      48.289   7.672  13.849  0.00  0.00    +0.000 C 
ENDROOT
BRANCH   2   3
ATOM      3  C   UNL     1      47.214   6.927  13.073  0.00  0.00    +0.000 A 
ATOM      4  C   UNL     1      46.462   7.632  12.118  0.00  0.00    +0.000 A 
ATOM      5  C   UNL     1      45.491   6.987  11.349  0.00  0.00    +0.000 A 
ATOM      6  C   UNL     1      45.292   5.612  11.480  0.00  0.00    +0.000 A 
ATOM      7  C   UNL     1      45.987   4.914  12.467  0.00  0.00    +0.000 A 
ATOM      8  C   UNL     1      46.930   5.567  13.268  0.00  0.00    +0.000 A 
BRANCH   6   9
ATOM      9  O   UNL     1      44.395   4.878  10.736  0.00  0.00    +0.000 OA
BRANCH   9  10
ATOM     10  C   UNL     1      44.849   3.978   9.796  0.00  0.00    +0.000 A 
ATOM     11  C   UNL     1      44.611   2.607   9.836  0.00  0.00    +0.000 A 
ATOM     12  C   UNL     1      45.167   1.820   8.844  0.00  0.00    +0.000 A 
ATOM     13  N   UNL     1      45.878   2.309   7.806  0.00  0.00    +0.000 NA
ATOM     14  C   UNL     1      46.031   3.650   7.755  0.00  0.00    +0.000 A 
ATOM     15  C   UNL     1      45.541   4.518   8.717  0.00  0.00    +0.000 A 
ENDBRANCH   9  10
ENDBRANCH   6   9
ENDBRANCH   2   3
BRANCH   2  16
ATOM     16  N   UNL     1      48.185   7.388  15.268  0.00  0.00    +0.000 N 
ATOM     17  C   UNL     1      48.540   8.327  16.207  0.00  0.00    +0.000 C 
ATOM     18  O   UNL     1      48.907   9.456  15.888  0.00  0.00    +0.000 OA
ATOM     19  H   UNL     1      48.043   6.421  15.548  0.00  0.00    +0.000 HD
BRANCH  17  20
ATOM     20  C   UNL     1      48.411   7.952  17.619  0.00  0.00    +0.000 A 
ATOM     21  C   UNL     1      47.779   8.823  18.497  0.00  0.00    +0.000 A 
ATOM     22  S   UNL     1      47.745   8.267  20.108  0.00  0.00    +0.000 S 
ATOM     23  C   UNL     1      48.604   6.858  19.693  0.00  0.00    +0.000 A 
ATOM     24  N   UNL     1      48.958   5.952  20.645  0.00  0.00    +0.000 NA
ATOM     25  C   UNL     1      49.631   4.947  20.200  0.00  0.00    +0.000 A 
ATOM     26  N   UNL     1      49.971   4.755  18.882  0.00  0.00    +0.000 N 
ATOM     27  C   UNL     1      49.593   5.619  17.881  0.00  0.00    +0.000 A 
ATOM     28  O   UNL     1      49.834   5.379  16.700  0.00  0.00    +0.000 OA
ATOM     29  C   UNL     1      48.874   6.791  18.338  0.00  0.00    +0.000 A 
ATOM     30  H   UNL     1      50.474   3.931  18.596  0.00  0.00    +0.000 HD
ENDBRANCH  17  20
ENDBRANCH   2  16
TORSDOF 5
ENDMDL
MODEL 8
REMARK VINA RESULT:    -7.085      4.030      8.685
REMARK INTER + INTRA:          -9.715
REMARK INTER:                  -8.785
REMARK INTRA:                  -0.931
REMARK UNBOUND:                -0.559
REMARK  Name = 
REMARK  6 active torsions:
REMARK  status: ('A' for Active; 'I' for Inactive)
REMARK    1  A    between atoms: C_1  and  C_2
REMARK    2  A    between atoms: C_2  and  N_3
REMARK    3  A    between atoms: C_2  and  C_16
REMARK    4  A    between atoms: C_4  and  C_6
REMARK    5  A    between atoms: C_19  and  O_20
REMARK    6  A    between atoms: O_20  and  C_21
REMARK                            x       y       z     vdW  Elec       q    Type
REMARK                         _______ _______ _______ _____ _____    ______ ____
ROOT
ATOM      1  C   UNL     1      48.816   9.001  16.187  0.00  0.00    +0.000 C 
ATOM      2  C   UNL     1      49.085   7.747  15.348  0.00  0.00    +0.000 C 
ENDROOT
BRANCH   2   3
ATOM      3  C   UNL     1      49.660   6.584  16.141  0.00  0.00    +0.000 A 
ATOM      4  C   UNL     1      51.051   6.526  16.338  0.00  0.00    +0.000 A 
ATOM      5  C   UNL     1      51.628   5.502  17.093  0.00  0.00    +0.000 A 
ATOM      6  C   UNL     1      50.821   4.547  17.712  0.00  0.00    +0.000 A 
ATOM      7  C   UNL     1      49.447   4.558  17.472  0.00  0.00    +0.000 A 
ATOM      8  C   UNL     1      48.872   5.558  16.681  0.00  0.00    +0.000 A 
BRANCH   6   9
ATOM      9  O   UNL     1      51.289   3.530  18.513  0.00  0.00    +0.000 OA
BRANCH   9  10
ATOM     10  C   UNL     1      52.334   2.739  18.088  0.00  0.00    +0.000 A 
ATOM     11  C   UNL     1      53.673   3.118  18.113  0.00  0.00    +0.000 A 
ATOM     12  C   UNL     1      54.611   2.233  17.612  0.00  0.00    +0.000 A 
ATOM     13  N   UNL     1      54.311   0.999  17.155  0.00  0.00    +0.000 NA
ATOM     14  C   UNL     1      53.012   0.632  17.210  0.00  0.00    +0.000 A 
ATOM     15  C   UNL     1      51.997   1.458  17.662  0.00  0.00    +0.000 A 
ENDBRANCH   9  10
ENDBRANCH   6   9
ENDBRANCH   2   3
BRANCH   2  16
ATOM     16  N   UNL     1      47.894   7.336  14.629  0.00  0.00    +0.000 N 
ATOM     17  C   UNL     1      47.979   6.770  13.380  0.00  0.00    +0.000 C 
ATOM     18  O   UNL     1      49.061   6.540  12.845  0.00  0.00    +0.000 OA
ATOM     19  H   UNL     1      46.995   7.662  14.976  0.00  0.00    +0.000 HD
BRANCH  17  20
ATOM     20  C   UNL     1      46.724   6.392  12.722  0.00  0.00    +0.000 A 
ATOM     21  C   UNL     1      45.960   7.373  12.103  0.00  0.00    +0.000 A 
ATOM     22  S   UNL     1      44.512   6.788  11.423  0.00  0.00    +0.000 S 
ATOM     23  C   UNL     1      44.839   5.207  11.962  0.00  0.00    +0.000 A 
ATOM     24  N   UNL     1      43.948   4.200  11.748  0.00  0.00    +0.000 NA
ATOM     25  C   UNL     1      44.306   3.061  12.234  0.00  0.00    +0.000 A 
ATOM     26  N   UNL     1      45.484   2.831  12.903  0.00  0.00    +0.000 N 
ATOM     27  C   UNL     1      46.433   3.807  13.099  0.00  0.00    +0.000 A 
ATOM     28  O   UNL     1      47.516   3.555  13.624  0.00  0.00    +0.000 OA
ATOM     29  C   UNL     1      46.056   5.119  12.612  0.00  0.00    +0.000 A 
ATOM     30  H   UNL     1      45.717   1.908  13.232  0.00  0.00    +0.000 HD
ENDBRANCH  17  20
ENDBRANCH   2  16
TORSDOF 5
ENDMDL
MODEL 9
REMARK VINA RESULT:    -6.938      3.199      5.012
REMARK INTER + INTRA:          -9.526
REMARK INTER:                  -8.136
REMARK INTRA:                  -1.390
REMARK UNBOUND:                -0.559
REMARK  Name = 
REMARK  6 active torsions:
REMARK  status: ('A' for Active; 'I' for Inactive)
REMARK    1  A    between atoms: C_1  and  C_2
REMARK    2  A    between atoms: C_2  and  N_3
REMARK    3  A    between atoms: C_2  and  C_16
REMARK    4  A    between atoms: C_4  and  C_6
REMARK    5  A    between atoms: C_19  and  O_20
REMARK    6  A    between atoms: O_20  and  C_21
REMARK                            x       y       z     vdW  Elec       q    Type
REMARK                         _______ _______ _______ _____ _____    ______ ____
ROOT
ATOM      1  C   UNL     1      50.407   8.668  13.467  0.00  0.00    +0.000 C 
ATOM      2  C   UNL     1      49.056   8.606  14.187  0.00  0.00    +0.000 C 
ENDROOT
BRANCH   2   3
ATOM      3  C   UNL     1      47.901   8.168  13.301  0.00  0.00    +0.000 A 
ATOM      4  C   UNL     1      48.070   7.034  12.488  0.00  0.00    +0.000 A 
ATOM      5  C   UNL     1      47.027   6.564  11.685  0.00  0.00    +0.000 A 
ATOM      6  C   UNL     1      45.779   7.185  11.722  0.00  0.00    +0.000 A 
ATOM      7  C   UNL     1      45.618   8.347  12.477  0.00  0.00    +0.000 A 
ATOM      8  C   UNL     1      46.674   8.844  13.249  0.00  0.00    +0.000 A 
BRANCH   6   9
ATOM      9  O   UNL     1      44.678   6.769  11.007  0.00  0.00    +0.000 OA
BRANCH   9  10
ATOM     10  C   UNL     1      44.316   5.440  11.004  0.00  0.00    +0.000 A 
ATOM     11  C   UNL     1      44.560   4.557   9.955  0.00  0.00    +0.000 A 
ATOM     12  C   UNL     1      44.100   3.258  10.077  0.00  0.00    +0.000 A 
ATOM     13  N   UNL     1      43.482   2.779  11.177  0.00  0.00    +0.000 NA
ATOM     14  C   UNL     1      43.324   3.640  12.206  0.00  0.00    +0.000 A 
ATOM     15  C   UNL     1      43.719   4.966  12.168  0.00  0.00    +0.000 A 
ENDBRANCH   9  10
ENDBRANCH   6   9
ENDBRANCH   2   3
BRANCH   2  16
ATOM     16  N   UNL     1      49.136   7.772  15.372  0.00  0.00    +0.000 N 
ATOM     17  C   UNL     1      48.573   8.173  16.560  0.00  0.00    +0.000 C 
ATOM     18  O   UNL     1      47.936   9.219  16.656  0.00  0.00    +0.000 OA
ATOM     19  H   UNL     1      49.788   6.992  15.359  0.00  0.00    +0.000 HD
BRANCH  17  20
ATOM     20  C   UNL     1      48.708   7.271  17.709  0.00  0.00    +0.000 A 
ATOM     21  C   UNL     1      49.046   7.797  18.949  0.00  0.00    +0.000 A 
ATOM     22  S   UNL     1      49.208   6.622  20.172  0.00  0.00    +0.000 S 
ATOM     23  C   UNL     1      48.864   5.364  19.079  0.00  0.00    +0.000 A 
ATOM     24  N   UNL     1      48.890   4.064  19.483  0.00  0.00    +0.000 NA
ATOM     25  C   UNL     1      48.640   3.213  18.548  0.00  0.00    +0.000 A 
ATOM     26  N   UNL     1      48.351   3.541  17.246  0.00  0.00    +0.000 N 
ATOM     27  C   UNL     1      48.267   4.842  16.807  0.00  0.00    +0.000 A 
ATOM     28  O   UNL     1      47.921   5.111  15.658  0.00  0.00    +0.000 OA
ATOM     29  C   UNL     1      48.586   5.838  17.810  0.00  0.00    +0.000 A 
ATOM     30  H   UNL     1      48.136   2.826  16.570  0.00  0.00    +0.000 HD
ENDBRANCH  17  20
ENDBRANCH   2  16
TORSDOF 5
ENDMDL
