MODEL 1
REMARK VINA RESULT:    -9.248      0.000      0.000
REMARK INTER + INTRA:         -13.476
REMARK INTER:                 -12.491
REMARK INTRA:                  -0.985
REMARK UNBOUND:                -0.985
REMARK  Name = 
REMARK  6 active torsions:
REMARK  status: ('A' for Active; 'I' for Inactive)
REMARK    1  A    between atoms: C_2  and  C_19
REMARK    2  A    between atoms: N_3  and  C_4
REMARK    3  A    between atoms: C_4  and  C_5
REMARK    4  A    between atoms: C_8  and  N_9
REMARK    5  A    between atoms: N_9  and  C_10
REMARK    6  A    between atoms: C_10  and  C_11
REMARK                            x       y       z     vdW  Elec       q    Type
REMARK                         _______ _______ _______ _____ _____    ______ ____
ROOT
ATOM      1  C   UNL     1      45.715   4.581  13.486  0.00  0.00    +0.000 C 
ENDROOT
BRANCH   1   2
ATOM      2  C   UNL     1      44.757   5.687  12.990  0.00  0.00    +0.000 C 
ATOM      3  C   UNL     1      45.195   6.332  11.666  0.00  0.00    +0.000 C 
ATOM      4  C   UNL     1      45.114   5.363  10.488  0.00  0.00    +0.000 C 
ATOM      5  C   UNL     1      43.696   4.796  10.298  0.00  0.00    +0.000 C 
ATOM      6  C   UNL     1      43.087   4.286  11.617  0.00  0.00    +0.000 C 
ATOM      7  C   UNL     1      43.318   5.175  12.835  0.00  0.00    +0.000 C 
BRANCH   5   8
ATOM      8  N   UNL     1      43.756   3.734   9.274  0.00  0.00    +0.000 NA
ATOM      9  H   UNL     1      43.995   4.146   8.371  0.00  0.00    +0.000 HD
BRANCH   8  10
ATOM     10  C   UNL     1      44.776   2.713   9.571  0.00  0.00    +0.000 C 
BRANCH  10  11
ATOM     11  C   UNL     1      45.696   2.435   8.398  0.00  0.00    +0.000 A 
ATOM     12  C   UNL     1      45.913   3.405   7.424  0.00  0.00    +0.000 A 
ATOM     13  C   UNL     1      46.733   3.098   6.341  0.00  0.00    +0.000 A 
ATOM     14  C   UNL     1      47.311   1.835   6.260  0.00  0.00    +0.000 A 
ATOM     15  C   UNL     1      47.054   0.931   7.277  0.00  0.00    +0.000 A 
ATOM     16  N   UNL     1      46.267   1.202   8.340  0.00  0.00    +0.000 NA
ENDBRANCH  10  11
ENDBRANCH   8  10
ENDBRANCH   5   8
ENDBRANCH   1   2
BRANCH   1  19
ATOM     17  O   UNL     1      47.613   2.991  14.938  0.00  0.00    +0.000 OA
ATOM     18  C   UNL     1      47.344   4.118  15.326  0.00  0.00    +0.000 C 
ATOM     19  N   UNL     1      46.444   4.952  14.688  0.00  0.00    +0.000 N 
ATOM     20  H   UNL     1      46.376   5.910  15.000  0.00  0.00    +0.000 HD
BRANCH  18  21
ATOM     21  C   UNL     1      47.918   4.702  16.547  0.00  0.00    +0.000 A 
ATOM     22  C   UNL     1      47.635   4.201  17.810  0.00  0.00    +0.000 A 
ATOM     23  S   UNL     1      48.457   5.013  19.065  0.00  0.00    +0.000 S 
ATOM     24  C   UNL     1      49.236   6.047  17.959  0.00  0.00    +0.000 A 
ATOM     25  N   UNL     1      50.108   6.996  18.392  0.00  0.00    +0.000 NA
ATOM     26  C   UNL     1      50.637   7.698  17.446  0.00  0.00    +0.000 A 
ATOM     27  N   UNL     1      50.365   7.541  16.112  0.00  0.00    +0.000 N 
ATOM     28  C   UNL     1      49.428   6.649  15.631  0.00  0.00    +0.000 A 
ATOM     29  O   UNL     1      49.093   6.659  14.448  0.00  0.00    +0.000 OA
ATOM     30  C   UNL     1      48.855   5.792  16.653  0.00  0.00    +0.000 A 
ATOM     31  H   UNL     1      50.775   8.157  15.426  0.00  0.00    +0.000 HD
ENDBRANCH  18  21
ENDBRANCH   1  19
TORSDOF 6
ENDMDL
MODEL 2
REMARK VINA RESULT:    -9.090      1.268      2.101
REMARK INTER + INTRA:         -13.263
REMARK INTER:                 -12.376
REMARK INTRA:                  -0.887
REMARK UNBOUND:                -0.985
REMARK  Name = 
REMARK  6 active torsions:
REMARK  status: ('A' for Active; 'I' for Inactive)
REMARK    1  A    between atoms: C_2  and  C_19
REMARK    2  A    between atoms: N_3  and  C_4
REMARK    3  A    between atoms: C_4  and  C_5
REMARK    4  A    between atoms: C_8  and  N_9
REMARK    5  A    between atoms: N_9  and  C_10
REMARK    6  A    between atoms: C_10  and  C_11
REMARK                            x       y       z     vdW  Elec       q    Type
REMARK                         _______ _______ _______ _____ _____    ______ ____
ROOT
ATOM      1  C   UNL     1      45.613   4.664  13.471  0.00  0.00    +0.000 C 
ENDROOT
BRANCH   1   2
ATOM      2  C   UNL     1      44.680   5.758  12.907  0.00  0.00    +0.000 C 
ATOM      3  C   UNL     1      45.159   6.347  11.572  0.00  0.00    +0.000 C 
ATOM      4  C   UNL     1      45.100   5.334  10.430  0.00  0.00    +0.000 C 
ATOM      5  C   UNL     1      43.681   4.774  10.224  0.00  0.00    +0.000 C 
ATOM      6  C   UNL     1      43.032   4.321  11.545  0.00  0.00    +0.000 C 
ATOM      7  C   UNL     1      43.241   5.255  12.734  0.00  0.00    +0.000 C 
BRANCH   5   8
ATOM      8  N   UNL     1      43.757   3.673   9.244  0.00  0.00    +0.000 NA
ATOM      9  H   UNL     1      43.946   4.056   8.317  0.00  0.00    +0.000 HD
BRANCH   8  10
ATOM     10  C   UNL     1      44.832   2.713   9.547  0.00  0.00    +0.000 C 
BRANCH  10  11
ATOM     11  C   UNL     1      45.739   2.444   8.361  0.00  0.00    +0.000 A 
ATOM     12  C   UNL     1      45.919   3.409   7.374  0.00  0.00    +0.000 A 
ATOM     13  C   UNL     1      46.726   3.109   6.280  0.00  0.00    +0.000 A 
ATOM     14  C   UNL     1      47.329   1.858   6.201  0.00  0.00    +0.000 A 
ATOM     15  C   UNL     1      47.109   0.958   7.230  0.00  0.00    +0.000 A 
ATOM     16  N   UNL     1      46.334   1.223   8.305  0.00  0.00    +0.000 NA
ENDBRANCH  10  11
ENDBRANCH   8  10
ENDBRANCH   5   8
ENDBRANCH   1   2
BRANCH   1  19
ATOM     17  O   UNL     1      48.279   5.714  13.292  0.00  0.00    +0.000 OA
ATOM     18  C   UNL     1      47.735   5.625  14.383  0.00  0.00    +0.000 C 
ATOM     19  N   UNL     1      46.454   5.133  14.560  0.00  0.00    +0.000 N 
ATOM     20  H   UNL     1      46.034   5.212  15.475  0.00  0.00    +0.000 HD
BRANCH  18  21
ATOM     21  C   UNL     1      48.400   5.991  15.641  0.00  0.00    +0.000 A 
ATOM     22  C   UNL     1      49.125   7.167  15.779  0.00  0.00    +0.000 A 
ATOM     23  S   UNL     1      49.760   7.395  17.346  0.00  0.00    +0.000 S 
ATOM     24  C   UNL     1      49.068   5.940  17.897  0.00  0.00    +0.000 A 
ATOM     25  N   UNL     1      49.229   5.540  19.186  0.00  0.00    +0.000 NA
ATOM     26  C   UNL     1      48.638   4.428  19.472  0.00  0.00    +0.000 A 
ATOM     27  N   UNL     1      47.912   3.679  18.583  0.00  0.00    +0.000 N 
ATOM     28  C   UNL     1      47.791   4.000  17.247  0.00  0.00    +0.000 A 
ATOM     29  O   UNL     1      47.276   3.217  16.451  0.00  0.00    +0.000 OA
ATOM     30  C   UNL     1      48.383   5.278  16.894  0.00  0.00    +0.000 A 
ATOM     31  H   UNL     1      47.518   2.792  18.856  0.00  0.00    +0.000 HD
ENDBRANCH  18  21
ENDBRANCH   1  19
TORSDOF 6
ENDMDL
MODEL 3
REMARK VINA RESULT:    -8.547      1.673      2.464
REMARK INTER + INTRA:         -12.529
REMARK INTER:                 -11.543
REMARK INTRA:                  -0.986
REMARK UNBOUND:                -0.985
REMARK  Name = 
REMARK  6 active torsions:
REMARK  status: ('A' for Active; 'I' for Inactive)
REMARK    1  A    between atoms: C_2  and  C_19
REMARK    2  A    between atoms: N_3  and  C_4
REMARK    3  A    between atoms: C_4  and  C_5
REMARK    4  A    between atoms: C_8  and  N_9
REMARK    5  A    between atoms: N_9  and  C_10
REMARK    6  A    between atoms: C_10  and  C_11
REMARK                            x       y       z     vdW  Elec       q    Type
REMARK                         _______ _______ _______ _____ _____    ______ ____
ROOT
ATOM      1  C   UNL     1      45.655   6.427  12.464  0.00  0.00    +0.000 C 
ENDROOT
BRANCH   1   2
ATOM      2  C   UNL     1      44.275   5.841  12.835  0.00  0.00    +0.000 C 
ATOM      3  C   UNL     1      43.277   5.830  11.667  0.00  0.00    +0.000 C 
ATOM      4  C   UNL     1      43.686   4.864  10.556  0.00  0.00    +0.000 C 
ATOM      5  C   UNL     1      43.837   3.421  11.069  0.00  0.00    +0.000 C 
ATOM      6  C   UNL     1      44.677   3.342  12.358  0.00  0.00    +0.000 C 
ATOM      7  C   UNL     1      44.386   4.418  13.399  0.00  0.00    +0.000 C 
BRANCH   5   8
ATOM      8  N   UNL     1      44.417   2.604   9.985  0.00  0.00    +0.000 NA
ATOM      9  H   UNL     1      43.810   1.804   9.801  0.00  0.00    +0.000 HD
BRANCH   8  10
ATOM     10  C   UNL     1      44.552   3.347   8.720  0.00  0.00    +0.000 C 
BRANCH  10  11
ATOM     11  C   UNL     1      45.679   2.831   7.846  0.00  0.00    +0.000 A 
ATOM     12  C   UNL     1      46.249   1.585   8.090  0.00  0.00    +0.000 A 
ATOM     13  C   UNL     1      47.308   1.164   7.290  0.00  0.00    +0.000 A 
ATOM     14  C   UNL     1      47.768   1.995   6.274  0.00  0.00    +0.000 A 
ATOM     15  C   UNL     1      47.138   3.215   6.090  0.00  0.00    +0.000 A 
ATOM     16  N   UNL     1      46.107   3.648   6.847  0.00  0.00    +0.000 NA
ENDBRANCH  10  11
ENDBRANCH   8  10
ENDBRANCH   5   8
ENDBRANCH   1   2
BRANCH   1  19
ATOM     17  O   UNL     1      47.878   4.798  13.270  0.00  0.00    +0.000 OA
ATOM     18  C   UNL     1      47.576   5.782  13.930  0.00  0.00    +0.000 C 
ATOM     19  N   UNL     1      46.523   6.621  13.613  0.00  0.00    +0.000 N 
ATOM     20  H   UNL     1      46.423   7.479  14.136  0.00  0.00    +0.000 HD
BRANCH  18  21
ATOM     21  C   UNL     1      48.275   6.161  15.165  0.00  0.00    +0.000 A 
ATOM     22  C   UNL     1      49.149   7.238  15.221  0.00  0.00    +0.000 A 
ATOM     23  S   UNL     1      49.798   7.509  16.775  0.00  0.00    +0.000 S 
ATOM     24  C   UNL     1      48.916   6.208  17.429  0.00  0.00    +0.000 A 
ATOM     25  N   UNL     1      49.014   5.899  18.750  0.00  0.00    +0.000 NA
ATOM     26  C   UNL     1      48.280   4.901  19.114  0.00  0.00    +0.000 A 
ATOM     27  N   UNL     1      47.467   4.183  18.276  0.00  0.00    +0.000 N 
ATOM     28  C   UNL     1      47.398   4.406  16.917  0.00  0.00    +0.000 A 
ATOM     29  O   UNL     1      46.789   3.634  16.178  0.00  0.00    +0.000 OA
ATOM     30  C   UNL     1      48.156   5.562  16.472  0.00  0.00    +0.000 A 
ATOM     31  H   UNL     1      46.957   3.381  18.614  0.00  0.00    +0.000 HD
ENDBRANCH  18  21
ENDBRANCH   1  19
TORSDOF 6
ENDMDL
MODEL 4
REMARK VINA RESULT:    -7.987      2.639      3.689
REMARK INTER + INTRA:         -11.773
REMARK INTER:                 -10.610
REMARK INTRA:                  -1.163
REMARK UNBOUND:                -0.985
REMARK  Name = 
REMARK  6 active torsions:
REMARK  status: ('A' for Active; 'I' for Inactive)
REMARK    1  A    between atoms: C_2  and  C_19
REMARK    2  A    between atoms: N_3  and  C_4
REMARK    3  A    between atoms: C_4  and  C_5
REMARK    4  A    between atoms: C_8  and  N_9
REMARK    5  A    between atoms: N_9  and  C_10
REMARK    6  A    between atoms: C_10  and  C_11
REMARK                            x       y       z     vdW  Elec       q    Type
REMARK                         _______ _______ _______ _____ _____    ______ ____
ROOT
ATOM      1  C   UNL     1      45.324   6.800  11.745  0.00  0.00    +0.000 C 
ENDROOT
BRANCH   1   2
ATOM      2  C   UNL     1      44.708   5.931  12.863  0.00  0.00    +0.000 C 
ATOM      3  C   UNL     1      43.297   5.419  12.538  0.00  0.00    +0.000 C 
ATOM      4  C   UNL     1      43.289   4.415  11.386  0.00  0.00    +0.000 C 
ATOM      5  C   UNL     1      44.185   3.197  11.672  0.00  0.00    +0.000 C 
ATOM      6  C   UNL     1      45.579   3.603  12.187  0.00  0.00    +0.000 C 
ATOM      7  C   UNL     1      45.597   4.730  13.215  0.00  0.00    +0.000 C 
BRANCH   5   8
ATOM      8  N   UNL     1      44.270   2.386  10.441  0.00  0.00    +0.000 NA
ATOM      9  H   UNL     1      43.387   1.892  10.299  0.00  0.00    +0.000 HD
BRANCH   8  10
ATOM     10  C   UNL     1      44.511   3.201   9.238  0.00  0.00    +0.000 C 
BRANCH  10  11
ATOM     11  C   UNL     1      45.608   2.640   8.352  0.00  0.00    +0.000 A 
ATOM     12  C   UNL     1      46.244   3.450   7.416  0.00  0.00    +0.000 A 
ATOM     13  C   UNL     1      47.217   2.888   6.593  0.00  0.00    +0.000 A 
ATOM     14  C   UNL     1      47.528   1.539   6.728  0.00  0.00    +0.000 A 
ATOM     15  C   UNL     1      46.857   0.806   7.692  0.00  0.00    +0.000 A 
ATOM     16  N   UNL     1      45.912   1.324   8.506  0.00  0.00    +0.000 NA
ENDBRANCH  10  11
ENDBRANCH   8  10
ENDBRANCH   5   8
ENDBRANCH   1   2
BRANCH   1  19
ATOM     17  O   UNL     1      46.325   9.433  12.299  0.00  0.00    +0.000 OA
ATOM     18  C   UNL     1      47.097   8.485  12.268  0.00  0.00    +0.000 C 
ATOM     19  N   UNL     1      46.700   7.185  12.011  0.00  0.00    +0.000 N 
ATOM     20  H   UNL     1      47.378   6.446  12.130  0.00  0.00    +0.000 HD
BRANCH  18  21
ATOM     21  C   UNL     1      48.547   8.628  12.459  0.00  0.00    +0.000 A 
ATOM     22  C   UNL     1      49.336   9.378  11.599  0.00  0.00    +0.000 A 
ATOM     23  S   UNL     1      50.979   9.434  12.056  0.00  0.00    +0.000 S 
ATOM     24  C   UNL     1      50.685   8.475  13.431  0.00  0.00    +0.000 A 
ATOM     25  N   UNL     1      51.696   8.151  14.281  0.00  0.00    +0.000 NA
ATOM     26  C   UNL     1      51.329   7.433  15.289  0.00  0.00    +0.000 A 
ATOM     27  N   UNL     1      50.047   7.005  15.518  0.00  0.00    +0.000 N 
ATOM     28  C   UNL     1      49.006   7.238  14.643  0.00  0.00    +0.000 A 
ATOM     29  O   UNL     1      47.914   6.694  14.800  0.00  0.00    +0.000 OA
ATOM     30  C   UNL     1      49.357   8.098  13.527  0.00  0.00    +0.000 A 
ATOM     31  H   UNL     1      49.836   6.403  16.299  0.00  0.00    +0.000 HD
ENDBRANCH  18  21
ENDBRANCH   1  19
TORSDOF 6
ENDMDL
MODEL 5
REMARK VINA RESULT:    -7.739      1.648      2.171
REMARK INTER + INTRA:         -11.438
REMARK INTER:                 -10.721
REMARK INTRA:                  -0.717
REMARK UNBOUND:                -0.985
REMARK  Name = 
REMARK  6 active torsions:
REMARK  status: ('A' for Active; 'I' for Inactive)
REMARK    1  A    between atoms: C_2  and  C_19
REMARK    2  A    between atoms: N_3  and  C_4
REMARK    3  A    between atoms: C_4  and  C_5
REMARK    4  A    between atoms: C_8  and  N_9
REMARK    5  A    between atoms: N_9  and  C_10
REMARK    6  A    between atoms: C_10  and  C_11
REMARK                            x       y       z     vdW  Elec       q    Type
REMARK                         _______ _______ _______ _____ _____    ______ ____
ROOT
ATOM      1  C   UNL     1      47.111   6.046  13.078  0.00  0.00    +0.000 C 
ENDROOT
BRANCH   1   2
ATOM      2  C   UNL     1      45.646   6.374  12.716  0.00  0.00    +0.000 C 
ATOM      3  C   UNL     1      45.392   6.471  11.204  0.00  0.00    +0.000 C 
ATOM      4  C   UNL     1      45.545   5.125  10.497  0.00  0.00    +0.000 C 
ATOM      5  C   UNL     1      44.599   4.056  11.073  0.00  0.00    +0.000 C 
ATOM      6  C   UNL     1      44.641   4.005  12.612  0.00  0.00    +0.000 C 
ATOM      7  C   UNL     1      44.663   5.359  13.315  0.00  0.00    +0.000 C 
BRANCH   5   8
ATOM      8  N   UNL     1      44.950   2.756  10.471  0.00  0.00    +0.000 NA
ATOM      9  H   UNL     1      44.520   2.004  11.012  0.00  0.00    +0.000 HD
BRANCH   8  10
ATOM     10  C   UNL     1      44.471   2.622   9.084  0.00  0.00    +0.000 C 
BRANCH  10  11
ATOM     11  C   UNL     1      45.598   2.505   8.075  0.00  0.00    +0.000 A 
ATOM     12  C   UNL     1      46.402   1.371   8.042  0.00  0.00    +0.000 A 
ATOM     13  C   UNL     1      47.452   1.319   7.129  0.00  0.00    +0.000 A 
ATOM     14  C   UNL     1      47.669   2.398   6.278  0.00  0.00    +0.000 A 
ATOM     15  C   UNL     1      46.816   3.484   6.367  0.00  0.00    +0.000 A 
ATOM     16  N   UNL     1      45.788   3.561   7.240  0.00  0.00    +0.000 NA
ENDBRANCH  10  11
ENDBRANCH   8  10
ENDBRANCH   5   8
ENDBRANCH   1   2
BRANCH   1  19
ATOM     17  O   UNL     1      49.334   6.486  14.841  0.00  0.00    +0.000 OA
ATOM     18  C   UNL     1      48.381   5.821  15.221  0.00  0.00    +0.000 C 
ATOM     19  N   UNL     1      47.270   5.561  14.439  0.00  0.00    +0.000 N 
ATOM     20  H   UNL     1      46.475   5.114  14.872  0.00  0.00    +0.000 HD
BRANCH  18  21
ATOM     21  C   UNL     1      48.328   5.183  16.544  0.00  0.00    +0.000 A 
ATOM     22  C   UNL     1      48.265   3.805  16.698  0.00  0.00    +0.000 A 
ATOM     23  S   UNL     1      48.262   3.302  18.328  0.00  0.00    +0.000 S 
ATOM     24  C   UNL     1      48.367   4.908  18.881  0.00  0.00    +0.000 A 
ATOM     25  N   UNL     1      48.416   5.183  20.212  0.00  0.00    +0.000 NA
ATOM     26  C   UNL     1      48.510   6.440  20.489  0.00  0.00    +0.000 A 
ATOM     27  N   UNL     1      48.551   7.444  19.556  0.00  0.00    +0.000 N 
ATOM     28  C   UNL     1      48.422   7.222  18.201  0.00  0.00    +0.000 A 
ATOM     29  O   UNL     1      48.293   8.159  17.415  0.00  0.00    +0.000 OA
ATOM     30  C   UNL     1      48.380   5.817  17.838  0.00  0.00    +0.000 A 
ATOM     31  H   UNL     1      48.574   8.412  19.840  0.00  0.00    +0.000 HD
ENDBRANCH  18  21
ENDBRANCH   1  19
TORSDOF 6
ENDMDL
MODEL 6
REMARK VINA RESULT:    -7.731      1.984      2.449
REMARK INTER + INTRA:         -11.428
REMARK INTER:                 -10.561
REMARK INTRA:                  -0.867
REMARK UNBOUND:                -0.985
REMARK  Name = 
REMARK  6 active torsions:
REMARK  status: ('A' for Active; 'I' for Inactive)
REMARK    1  A    between atoms: C_2  and  C_19
REMARK    2  A    between atoms: N_3  and  C_4
REMARK    3  A    between atoms: C_4  and  C_5
REMARK    4  A    between atoms: C_8  and  N_9
REMARK    5  A    between atoms: N_9  and  C_10
REMARK    6  A    between atoms: C_10  and  C_11
REMARK                            x       y       z     vdW  Elec       q    Type
REMARK                         _______ _______ _______ _____ _____    ______ ____
ROOT
ATOM      1  C   UNL     1      46.846   6.609  12.181  0.00  0.00    +0.000 C 
ENDROOT
BRANCH   1   2
ATOM      2  C   UNL     1      45.388   6.361  12.628  0.00  0.00    +0.000 C 
ATOM      3  C   UNL     1      44.400   6.230  11.458  0.00  0.00    +0.000 C 
ATOM      4  C   UNL     1      44.641   4.971  10.627  0.00  0.00    +0.000 C 
ATOM      5  C   UNL     1      44.552   3.690  11.474  0.00  0.00    +0.000 C 
ATOM      6  C   UNL     1      45.369   3.790  12.776  0.00  0.00    +0.000 C 
ATOM      7  C   UNL     1      45.262   5.118  13.519  0.00  0.00    +0.000 C 
BRANCH   5   8
ATOM      8  N   UNL     1      44.986   2.553  10.639  0.00  0.00    +0.000 NA
ATOM      9  H   UNL     1      44.600   1.686  11.018  0.00  0.00    +0.000 HD
BRANCH   8  10
ATOM     10  C   UNL     1      44.525   2.661   9.244  0.00  0.00    +0.000 C 
BRANCH  10  11
ATOM     11  C   UNL     1      45.626   2.406   8.233  0.00  0.00    +0.000 A 
ATOM     12  C   UNL     1      45.986   3.389   7.316  0.00  0.00    +0.000 A 
ATOM     13  C   UNL     1      46.974   3.102   6.378  0.00  0.00    +0.000 A 
ATOM     14  C   UNL     1      47.573   1.847   6.381  0.00  0.00    +0.000 A 
ATOM     15  C   UNL     1      47.166   0.929   7.334  0.00  0.00    +0.000 A 
ATOM     16  N   UNL     1      46.214   1.180   8.258  0.00  0.00    +0.000 NA
ENDBRANCH  10  11
ENDBRANCH   8  10
ENDBRANCH   5   8
ENDBRANCH   1   2
BRANCH   1  19
ATOM     17  O   UNL     1      47.524   8.554  14.182  0.00  0.00    +0.000 OA
ATOM     18  C   UNL     1      48.075   7.463  14.186  0.00  0.00    +0.000 C 
ATOM     19  N   UNL     1      47.808   6.468  13.261  0.00  0.00    +0.000 N 
ATOM     20  H   UNL     1      48.212   5.555  13.412  0.00  0.00    +0.000 HD
BRANCH  18  21
ATOM     21  C   UNL     1      49.121   7.098  15.151  0.00  0.00    +0.000 A 
ATOM     22  C   UNL     1      48.841   6.397  16.316  0.00  0.00    +0.000 A 
ATOM     23  S   UNL     1      50.224   6.048  17.251  0.00  0.00    +0.000 S 
ATOM     24  C   UNL     1      51.246   6.804  16.118  0.00  0.00    +0.000 A 
ATOM     25  N   UNL     1      52.590   6.848  16.318  0.00  0.00    +0.000 NA
ATOM     26  C   UNL     1      53.245   7.437  15.374  0.00  0.00    +0.000 A 
ATOM     27  N   UNL     1      52.676   7.991  14.257  0.00  0.00    +0.000 N 
ATOM     28  C   UNL     1      51.313   8.044  14.051  0.00  0.00    +0.000 A 
ATOM     29  O   UNL     1      50.838   8.697  13.124  0.00  0.00    +0.000 OA
ATOM     30  C   UNL     1      50.540   7.336  15.055  0.00  0.00    +0.000 A 
ATOM     31  H   UNL     1      53.240   8.482  13.580  0.00  0.00    +0.000 HD
ENDBRANCH  18  21
ENDBRANCH   1  19
TORSDOF 6
ENDMDL
MODEL 7
REMARK VINA RESULT:    -7.691      2.129      2.616
REMARK INTER + INTRA:         -11.373
REMARK INTER:                 -10.352
REMARK INTRA:                  -1.021
REMARK UNBOUND:                -0.985
REMARK  Name = 
REMARK  6 active torsions:
REMARK  status: ('A' for Active; 'I' for Inactive)
REMARK    1  A    between atoms: C_2  and  C_19
REMARK    2  A    between atoms: N_3  and  C_4
REMARK    3  A    between atoms: C_4  and  C_5
REMARK    4  A    between atoms: C_8  and  N_9
REMARK    5  A    between atoms: N_9  and  C_10
REMARK    6  A    between atoms: C_10  and  C_11
REMARK                            x       y       z     vdW  Elec       q    Type
REMARK                         _______ _______ _______ _____ _____    ______ ____
ROOT
ATOM      1  C   UNL     1      45.714   6.445  12.242  0.00  0.00    +0.000 C 
ENDROOT
BRANCH   1   2
ATOM      2  C   UNL     1      44.391   5.890  12.812  0.00  0.00    +0.000 C 
ATOM      3  C   UNL     1      43.270   5.776  11.768  0.00  0.00    +0.000 C 
ATOM      4  C   UNL     1      43.565   4.719  10.706  0.00  0.00    +0.000 C 
ATOM      5  C   UNL     1      43.790   3.326  11.320  0.00  0.00    +0.000 C 
ATOM      6  C   UNL     1      44.768   3.360  12.509  0.00  0.00    +0.000 C 
ATOM      7  C   UNL     1      44.581   4.522  13.481  0.00  0.00    +0.000 C 
BRANCH   5   8
ATOM      8  N   UNL     1      44.255   2.420  10.252  0.00  0.00    +0.000 NA
ATOM      9  H   UNL     1      43.568   1.677  10.113  0.00  0.00    +0.000 HD
BRANCH   8  10
ATOM     10  C   UNL     1      44.426   3.103   8.958  0.00  0.00    +0.000 C 
BRANCH  10  11
ATOM     11  C   UNL     1      45.610   2.586   8.165  0.00  0.00    +0.000 A 
ATOM     12  C   UNL     1      46.280   3.417   7.271  0.00  0.00    +0.000 A 
ATOM     13  C   UNL     1      47.337   2.893   6.531  0.00  0.00    +0.000 A 
ATOM     14  C   UNL     1      47.695   1.560   6.703  0.00  0.00    +0.000 A 
ATOM     15  C   UNL     1      46.985   0.804   7.621  0.00  0.00    +0.000 A 
ATOM     16  N   UNL     1      45.959   1.285   8.354  0.00  0.00    +0.000 NA
ENDBRANCH  10  11
ENDBRANCH   8  10
ENDBRANCH   5   8
ENDBRANCH   1   2
BRANCH   1  19
ATOM     17  O   UNL     1      48.308   5.551  13.089  0.00  0.00    +0.000 OA
ATOM     18  C   UNL     1      47.811   6.543  13.602  0.00  0.00    +0.000 C 
ATOM     19  N   UNL     1      46.569   7.043  13.254  0.00  0.00    +0.000 N 
ATOM     20  H   UNL     1      46.290   7.936  13.634  0.00  0.00    +0.000 HD
BRANCH  18  21
ATOM     21  C   UNL     1      48.462   7.294  14.684  0.00  0.00    +0.000 A 
ATOM     22  C   UNL     1      48.856   6.691  15.871  0.00  0.00    +0.000 A 
ATOM     23  S   UNL     1      49.633   7.758  16.952  0.00  0.00    +0.000 S 
ATOM     24  C   UNL     1      49.489   9.056  15.860  0.00  0.00    +0.000 A 
ATOM     25  N   UNL     1      49.975  10.286  16.176  0.00  0.00    +0.000 NA
ATOM     26  C   UNL     1      49.812  11.172  15.251  0.00  0.00    +0.000 A 
ATOM     27  N   UNL     1      49.200  10.940  14.046  0.00  0.00    +0.000 N 
ATOM     28  C   UNL     1      48.619   9.733  13.715  0.00  0.00    +0.000 A 
ATOM     29  O   UNL     1      47.934   9.618  12.699  0.00  0.00    +0.000 OA
ATOM     30  C   UNL     1      48.836   8.687  14.698  0.00  0.00    +0.000 A 
ATOM     31  H   UNL     1      49.059  11.689  13.386  0.00  0.00    +0.000 HD
ENDBRANCH  18  21
ENDBRANCH   1  19
TORSDOF 6
ENDMDL
MODEL 8
REMARK VINA RESULT:    -7.682      4.205      8.780
REMARK INTER + INTRA:         -11.361
REMARK INTER:                 -10.307
REMARK INTRA:                  -1.054
REMARK UNBOUND:                -0.985
REMARK  Name = 
REMARK  6 active torsions:
REMARK  status: ('A' for Active; 'I' for Inactive)
REMARK    1  A    between atoms: C_2  and  C_19
REMARK    2  A    between atoms: N_3  and  C_4
REMARK    3  A    between atoms: C_4  and  C_5
REMARK    4  A    between atoms: C_8  and  N_9
REMARK    5  A    between atoms: N_9  and  C_10
REMARK    6  A    between atoms: C_10  and  C_11
REMARK                            x       y       z     vdW  Elec       q    Type
REMARK                         _______ _______ _______ _____ _____    ______ ____
ROOT
ATOM      1  C   UNL     1      48.596   5.887  15.849  0.00  0.00    +0.000 C 
ENDROOT
BRANCH   1   2
ATOM      2  C   UNL     1      48.216   5.275  17.215  0.00  0.00    +0.000 C 
ATOM      3  C   UNL     1      47.525   3.907  17.106  0.00  0.00    +0.000 C 
ATOM      4  C   UNL     1      48.459   2.819  16.579  0.00  0.00    +0.000 C 
ATOM      5  C   UNL     1      49.712   2.653  17.457  0.00  0.00    +0.000 C 
ATOM      6  C   UNL     1      50.382   4.001  17.783  0.00  0.00    +0.000 C 
ATOM      7  C   UNL     1      49.431   5.138  18.143  0.00  0.00    +0.000 C 
BRANCH   5   8
ATOM      8  N   UNL     1      50.638   1.731  16.772  0.00  0.00    +0.000 NA
ATOM      9  H   UNL     1      51.253   2.263  16.156  0.00  0.00    +0.000 HD
BRANCH   8  10
ATOM     10  C   UNL     1      51.498   0.986  17.709  0.00  0.00    +0.000 C 
BRANCH  10  11
ATOM     11  C   UNL     1      52.977   1.224  17.474  0.00  0.00    +0.000 A 
ATOM     12  C   UNL     1      53.562   2.439  17.816  0.00  0.00    +0.000 A 
ATOM     13  C   UNL     1      54.914   2.634  17.547  0.00  0.00    +0.000 A 
ATOM     14  C   UNL     1      55.642   1.613  16.944  0.00  0.00    +0.000 A 
ATOM     15  C   UNL     1      54.988   0.430  16.646  0.00  0.00    +0.000 A 
ATOM     16  N   UNL     1      53.680   0.212  16.898  0.00  0.00    +0.000 NA
ENDBRANCH  10  11
ENDBRANCH   8  10
ENDBRANCH   5   8
ENDBRANCH   1   2
BRANCH   1  19
ATOM     17  O   UNL     1      48.748   6.259  13.006  0.00  0.00    +0.000 OA
ATOM     18  C   UNL     1      47.662   6.079  13.537  0.00  0.00    +0.000 C 
ATOM     19  N   UNL     1      47.497   5.890  14.897  0.00  0.00    +0.000 N 
ATOM     20  H   UNL     1      46.584   5.621  15.235  0.00  0.00    +0.000 HD
BRANCH  18  21
ATOM     21  C   UNL     1      46.396   6.087  12.790  0.00  0.00    +0.000 A 
ATOM     22  C   UNL     1      45.854   7.251  12.265  0.00  0.00    +0.000 A 
ATOM     23  S   UNL     1      44.407   6.999  11.398  0.00  0.00    +0.000 S 
ATOM     24  C   UNL     1      44.469   5.321  11.677  0.00  0.00    +0.000 A 
ATOM     25  N   UNL     1      43.506   4.498  11.182  0.00  0.00    +0.000 NA
ATOM     26  C   UNL     1      43.686   3.249  11.455  0.00  0.00    +0.000 A 
ATOM     27  N   UNL     1      44.735   2.753  12.185  0.00  0.00    +0.000 N 
ATOM     28  C   UNL     1      45.689   3.554  12.776  0.00  0.00    +0.000 A 
ATOM     29  O   UNL     1      46.512   3.085  13.560  0.00  0.00    +0.000 OA
ATOM     30  C   UNL     1      45.565   4.961  12.441  0.00  0.00    +0.000 A 
ATOM     31  H   UNL     1      44.790   1.771  12.406  0.00  0.00    +0.000 HD
ENDBRANCH  18  21
ENDBRANCH   1  19
TORSDOF 6
ENDMDL
MODEL 9
REMARK VINA RESULT:    -7.576      3.025      8.195
REMARK INTER + INTRA:         -11.218
REMARK INTER:                 -10.099
REMARK INTRA:                  -1.118
REMARK UNBOUND:                -0.985
REMARK  Name = 
REMARK  6 active torsions:
REMARK  status: ('A' for Active; 'I' for Inactive)
REMARK    1  A    between atoms: C_2  and  C_19
REMARK    2  A    between atoms: N_3  and  C_4
REMARK    3  A    between atoms: C_4  and  C_5
REMARK    4  A    between atoms: C_8  and  N_9
REMARK    5  A    between atoms: N_9  and  C_10
REMARK    6  A    between atoms: C_10  and  C_11
REMARK                            x       y       z     vdW  Elec       q    Type
REMARK                         _______ _______ _______ _____ _____    ______ ____
ROOT
ATOM      1  C   UNL     1      46.112   8.216  12.967  0.00  0.00    +0.000 C 
ENDROOT
BRANCH   1   2
ATOM      2  C   UNL     1      47.400   8.692  12.260  0.00  0.00    +0.000 C 
ATOM      3  C   UNL     1      48.295   9.576  13.142  0.00  0.00    +0.000 C 
ATOM      4  C   UNL     1      48.905   8.809  14.314  0.00  0.00    +0.000 C 
ATOM      5  C   UNL     1      49.736   7.601  13.848  0.00  0.00    +0.000 C 
ATOM      6  C   UNL     1      48.991   6.741  12.809  0.00  0.00    +0.000 C 
ATOM      7  C   UNL     1      48.236   7.517  11.734  0.00  0.00    +0.000 C 
BRANCH   5   8
ATOM      8  N   UNL     1      50.118   6.816  15.037  0.00  0.00    +0.000 NA
ATOM      9  H   UNL     1      50.983   7.192  15.429  0.00  0.00    +0.000 HD
BRANCH   8  10
ATOM     10  C   UNL     1      49.101   6.863  16.102  0.00  0.00    +0.000 C 
BRANCH  10  11
ATOM     11  C   UNL     1      48.662   5.486  16.564  0.00  0.00    +0.000 A 
ATOM     12  C   UNL     1      49.068   4.992  17.800  0.00  0.00    +0.000 A 
ATOM     13  C   UNL     1      48.678   3.708  18.172  0.00  0.00    +0.000 A 
ATOM     14  C   UNL     1      47.896   2.956  17.302  0.00  0.00    +0.000 A 
ATOM     15  C   UNL     1      47.524   3.525  16.096  0.00  0.00    +0.000 A 
ATOM     16  N   UNL     1      47.885   4.768  15.711  0.00  0.00    +0.000 NA
ENDBRANCH  10  11
ENDBRANCH   8  10
ENDBRANCH   5   8
ENDBRANCH   1   2
BRANCH   1  19
ATOM     17  O   UNL     1      43.957   7.532  11.199  0.00  0.00    +0.000 OA
ATOM     18  C   UNL     1      44.635   6.646  11.698  0.00  0.00    +0.000 C 
ATOM     19  N   UNL     1      45.692   6.886  12.558  0.00  0.00    +0.000 N 
ATOM     20  H   UNL     1      46.278   6.107  12.824  0.00  0.00    +0.000 HD
BRANCH  18  21
ATOM     21  C   UNL     1      44.376   5.217  11.474  0.00  0.00    +0.000 A 
ATOM     22  C   UNL     1      43.641   4.450  12.367  0.00  0.00    +0.000 A 
ATOM     23  S   UNL     1      43.433   2.833  11.866  0.00  0.00    +0.000 S 
ATOM     24  C   UNL     1      44.299   3.111  10.427  0.00  0.00    +0.000 A 
ATOM     25  N   UNL     1      44.483   2.112   9.523  0.00  0.00    +0.000 NA
ATOM     26  C   UNL     1      45.143   2.466   8.471  0.00  0.00    +0.000 A 
ATOM     27  N   UNL     1      45.642   3.723   8.248  0.00  0.00    +0.000 N 
ATOM     28  C   UNL     1      45.553   4.745   9.171  0.00  0.00    +0.000 A 
ATOM     29  O   UNL     1      46.159   5.802   9.005  0.00  0.00    +0.000 OA
ATOM     30  C   UNL     1      44.761   4.412  10.342  0.00  0.00    +0.000 A 
ATOM     31  H   UNL     1      46.193   3.922   7.428  0.00  0.00    +0.000 HD
ENDBRANCH  18  21
ENDBRANCH   1  19
TORSDOF 6
ENDMDL
