MODEL 1
REMARK VINA RESULT:    -9.046      0.000      0.000
REMARK INTER + INTRA:         -11.825
REMARK INTER:                 -11.161
REMARK INTRA:                  -0.664
REMARK UNBOUND:                -0.664
REMARK  Name = 
REMARK  4 active torsions:
REMARK  status: ('A' for Active; 'I' for Inactive)
REMARK    1  A    between atoms: C_2  and  C_4
REMARK    2  A    between atoms: C_7  and  C_8
REMARK    3  A    between atoms: C_8  and  N_9
REMARK    4  A    between atoms: C_14  and  C_15
REMARK                            x       y       z     vdW  Elec       q    Type
REMARK                         _______ _______ _______ _____ _____    ______ ____
ROOT
ATOM      1  N   UNL     1      44.205   2.867  11.945  0.00  0.00    +0.000 N 
ATOM      2  C   UNL     1      45.181   3.726  12.422  0.00  0.00    +0.000 A 
ATOM      3  N   UNL     1      46.158   3.154  13.131  0.00  0.00    +0.000 NA
ATOM      4  C   UNL     1      47.087   3.969  13.655  0.00  0.00    +0.000 A 
ATOM      5  C   UNL     1      47.086   5.331  13.483  0.00  0.00    +0.000 A 
ATOM      6  C   UNL     1      46.053   5.845  12.725  0.00  0.00    +0.000 A 
ATOM      7  N   UNL     1      45.098   5.044  12.199  0.00  0.00    +0.000 NA
ATOM      8  H   UNL     1      44.620   1.940  11.937  0.00  0.00    +0.000 HD
ENDROOT
BRANCH   6   9
ATOM      9  C   UNL     1      45.894   7.284  12.449  0.00  0.00    +0.000 A 
ATOM     10  C   UNL     1      46.834   8.214  12.912  0.00  0.00    +0.000 A 
ATOM     11  N   UNL     1      46.781   9.557  12.705  0.00  0.00    +0.000 NA
ATOM     12  C   UNL     1      45.722  10.013  12.003  0.00  0.00    +0.000 A 
ATOM     13  C   UNL     1      44.733   9.187  11.505  0.00  0.00    +0.000 A 
ATOM     14  F   UNL     1      43.702   9.695  10.818  0.00  0.00    +0.000 F 
ATOM     15  C   UNL     1      44.816   7.817  11.726  0.00  0.00    +0.000 A 
ENDBRANCH   6   9
BRANCH   1  16
ATOM     16  C   UNL     1      43.613   3.262  10.677  0.00  0.00    +0.000 C 
BRANCH  16  20
ATOM     17  C   UNL     1      46.449   2.632   7.530  0.00  0.00    +0.000 A 
ATOM     18  C   UNL     1      45.946   3.916   7.738  0.00  0.00    +0.000 A 
ATOM     19  C   UNL     1      45.015   4.127   8.757  0.00  0.00    +0.000 A 
ATOM     20  C   UNL     1      44.605   3.048   9.543  0.00  0.00    +0.000 A 
ATOM     21  N   UNL     1      45.068   1.788   9.336  0.00  0.00    +0.000 NA
ATOM     22  C   UNL     1      45.969   1.608   8.334  0.00  0.00    +0.000 A 
BRANCH  17  24
ATOM     23  N   UNL     1      47.483   3.126   5.387  0.00  0.00    +0.000 N 
ATOM     24  C   UNL     1      47.449   2.315   6.488  0.00  0.00    +0.000 C 
ATOM     25  O   UNL     1      48.241   1.393   6.622  0.00  0.00    +0.000 OA
ATOM     26  H   UNL     1      48.242   2.965   4.737  0.00  0.00    +0.000 HD
ATOM     27  H   UNL     1      47.030   4.028   5.360  0.00  0.00    +0.000 HD
ENDBRANCH  17  24
ENDBRANCH  16  20
ENDBRANCH   1  16
TORSDOF 4
ENDMDL
MODEL 2
REMARK VINA RESULT:    -8.907      1.569      1.787
REMARK INTER + INTRA:         -11.653
REMARK INTER:                 -10.998
REMARK INTRA:                  -0.655
REMARK UNBOUND:                -0.664
REMARK  Name = 
REMARK  4 active torsions:
REMARK  status: ('A' for Active; 'I' for Inactive)
REMARK    1  A    between atoms: C_2  and  C_4
REMARK    2  A    between atoms: C_7  and  C_8
REMARK    3  A    between atoms: C_8  and  N_9
REMARK    4  A    between atoms: C_14  and  C_15
REMARK                            x       y       z     vdW  Elec       q    Type
REMARK                         _______ _______ _______ _____ _____    ______ ____
ROOT
ATOM      1  N   UNL     1      43.989   3.884  11.777  0.00  0.00    +0.000 N 
ATOM      2  C   UNL     1      45.109   4.439  12.374  0.00  0.00    +0.000 A 
ATOM      3  N   UNL     1      45.758   3.647  13.233  0.00  0.00    +0.000 NA
ATOM      4  C   UNL     1      46.814   4.177  13.870  0.00  0.00    +0.000 A 
ATOM      5  C   UNL     1      47.255   5.461  13.670  0.00  0.00    +0.000 A 
ATOM      6  C   UNL     1      46.543   6.212  12.756  0.00  0.00    +0.000 A 
ATOM      7  N   UNL     1      45.467   5.703  12.112  0.00  0.00    +0.000 NA
ATOM      8  H   UNL     1      44.096   2.877  11.851  0.00  0.00    +0.000 HD
ENDROOT
BRANCH   6   9
ATOM      9  C   UNL     1      46.873   7.610  12.428  0.00  0.00    +0.000 A 
ATOM     10  C   UNL     1      45.898   8.614  12.491  0.00  0.00    +0.000 A 
ATOM     11  N   UNL     1      46.103   9.929  12.216  0.00  0.00    +0.000 NA
ATOM     12  C   UNL     1      47.353  10.274  11.840  0.00  0.00    +0.000 A 
ATOM     13  C   UNL     1      48.390   9.367  11.738  0.00  0.00    +0.000 A 
ATOM     14  F   UNL     1      49.610   9.765  11.357  0.00  0.00    +0.000 F 
ATOM     15  C   UNL     1      48.153   8.028  12.032  0.00  0.00    +0.000 A 
ENDBRANCH   6   9
BRANCH   1  16
ATOM     16  C   UNL     1      43.725   4.354  10.426  0.00  0.00    +0.000 C 
BRANCH  16  20
ATOM     17  C   UNL     1      46.456   2.483   7.710  0.00  0.00    +0.000 A 
ATOM     18  C   UNL     1      46.299   3.868   7.662  0.00  0.00    +0.000 A 
ATOM     19  C   UNL     1      45.405   4.483   8.539  0.00  0.00    +0.000 A 
ATOM     20  C   UNL     1      44.683   3.700   9.442  0.00  0.00    +0.000 A 
ATOM     21  N   UNL     1      44.808   2.348   9.484  0.00  0.00    +0.000 NA
ATOM     22  C   UNL     1      45.681   1.772   8.616  0.00  0.00    +0.000 A 
BRANCH  17  24
ATOM     23  N   UNL     1      48.497   2.417   6.394  0.00  0.00    +0.000 N 
ATOM     24  C   UNL     1      47.391   1.745   6.834  0.00  0.00    +0.000 C 
ATOM     25  O   UNL     1      47.206   0.570   6.547  0.00  0.00    +0.000 OA
ATOM     26  H   UNL     1      49.182   1.869   5.889  0.00  0.00    +0.000 HD
ATOM     27  H   UNL     1      48.809   3.284   6.808  0.00  0.00    +0.000 HD
ENDBRANCH  17  24
ENDBRANCH  16  20
ENDBRANCH   1  16
TORSDOF 4
ENDMDL
MODEL 3
REMARK VINA RESULT:    -8.202      4.451      8.006
REMARK INTER + INTRA:         -10.783
REMARK INTER:                 -10.357
REMARK INTRA:                  -0.426
REMARK UNBOUND:                -0.664
REMARK  Name = 
REMARK  4 active torsions:
REMARK  status: ('A' for Active; 'I' for Inactive)
REMARK    1  A    between atoms: C_2  and  C_4
REMARK    2  A    between atoms: C_7  and  C_8
REMARK    3  A    between atoms: C_8  and  N_9
REMARK    4  A    between atoms: C_14  and  C_15
REMARK                            x       y       z     vdW  Elec       q    Type
REMARK                         _______ _______ _______ _____ _____    ______ ____
ROOT
ATOM      1  N   UNL     1      45.350   4.647  14.127  0.00  0.00    +0.000 N 
ATOM      2  C   UNL     1      44.681   4.707  12.916  0.00  0.00    +0.000 A 
ATOM      3  N   UNL     1      43.460   5.247  12.957  0.00  0.00    +0.000 NA
ATOM      4  C   UNL     1      42.764   5.267  11.809  0.00  0.00    +0.000 A 
ATOM      5  C   UNL     1      43.248   4.781  10.620  0.00  0.00    +0.000 A 
ATOM      6  C   UNL     1      44.522   4.252  10.655  0.00  0.00    +0.000 A 
ATOM      7  N   UNL     1      45.237   4.210  11.803  0.00  0.00    +0.000 NA
ATOM      8  H   UNL     1      44.917   5.342  14.727  0.00  0.00    +0.000 HD
ENDROOT
BRANCH   6   9
ATOM      9  C   UNL     1      45.191   3.680   9.473  0.00  0.00    +0.000 A 
ATOM     10  C   UNL     1      45.675   4.506   8.449  0.00  0.00    +0.000 A 
ATOM     11  N   UNL     1      46.310   4.078   7.326  0.00  0.00    +0.000 NA
ATOM     12  C   UNL     1      46.467   2.743   7.200  0.00  0.00    +0.000 A 
ATOM     13  C   UNL     1      46.024   1.836   8.143  0.00  0.00    +0.000 A 
ATOM     14  F   UNL     1      46.205   0.522   7.964  0.00  0.00    +0.000 F 
ATOM     15  C   UNL     1      45.383   2.303   9.286  0.00  0.00    +0.000 A 
ENDBRANCH   6   9
BRANCH   1  16
ATOM     16  C   UNL     1      46.796   4.768  14.029  0.00  0.00    +0.000 C 
BRANCH  16  20
ATOM     17  C   UNL     1      48.517   4.439  17.937  0.00  0.00    +0.000 A 
ATOM     18  C   UNL     1      48.791   5.572  17.172  0.00  0.00    +0.000 A 
ATOM     19  C   UNL     1      48.240   5.683  15.895  0.00  0.00    +0.000 A 
ATOM     20  C   UNL     1      47.430   4.655  15.408  0.00  0.00    +0.000 A 
ATOM     21  N   UNL     1      47.173   3.535  16.132  0.00  0.00    +0.000 NA
ATOM     22  C   UNL     1      47.726   3.449  17.370  0.00  0.00    +0.000 A 
BRANCH  17  24
ATOM     23  N   UNL     1      48.338   3.406  20.129  0.00  0.00    +0.000 N 
ATOM     24  C   UNL     1      49.040   4.242  19.306  0.00  0.00    +0.000 C 
ATOM     25  O   UNL     1      50.080   4.771  19.675  0.00  0.00    +0.000 OA
ATOM     26  H   UNL     1      48.767   3.194  21.021  0.00  0.00    +0.000 HD
ATOM     27  H   UNL     1      47.636   2.766  19.786  0.00  0.00    +0.000 HD
ENDBRANCH  17  24
ENDBRANCH  16  20
ENDBRANCH   1  16
TORSDOF 4
ENDMDL
MODEL 4
REMARK VINA RESULT:    -7.456      3.664      7.001
REMARK INTER + INTRA:          -9.863
REMARK INTER:                  -9.274
REMARK INTRA:                  -0.589
REMARK UNBOUND:                -0.664
REMARK  Name = 
REMARK  4 active torsions:
REMARK  status: ('A' for Active; 'I' for Inactive)
REMARK    1  A    between atoms: C_2  and  C_4
REMARK    2  A    between atoms: C_7  and  C_8
REMARK    3  A    between atoms: C_8  and  N_9
REMARK    4  A    between atoms: C_14  and  C_15
REMARK                            x       y       z     vdW  Elec       q    Type
REMARK                         _______ _______ _______ _____ _____    ______ ____
ROOT
ATOM      1  N   UNL     1      45.140   7.127  13.174  0.00  0.00    +0.000 N 
ATOM      2  C   UNL     1      44.517   6.033  12.597  0.00  0.00    +0.000 A 
ATOM      3  N   UNL     1      43.430   5.586  13.231  0.00  0.00    +0.000 NA
ATOM      4  C   UNL     1      42.838   4.491  12.727  0.00  0.00    +0.000 A 
ATOM      5  C   UNL     1      43.282   3.836  11.605  0.00  0.00    +0.000 A 
ATOM      6  C   UNL     1      44.401   4.367  10.997  0.00  0.00    +0.000 A 
ATOM      7  N   UNL     1      45.022   5.461  11.495  0.00  0.00    +0.000 NA
ATOM      8  H   UNL     1      44.443   7.575  13.760  0.00  0.00    +0.000 HD
ENDROOT
BRANCH   6   9
ATOM      9  C   UNL     1      45.016   3.786   9.791  0.00  0.00    +0.000 A 
ATOM     10  C   UNL     1      45.506   4.607   8.766  0.00  0.00    +0.000 A 
ATOM     11  N   UNL     1      46.095   4.170   7.621  0.00  0.00    +0.000 NA
ATOM     12  C   UNL     1      46.196   2.831   7.473  0.00  0.00    +0.000 A 
ATOM     13  C   UNL     1      45.741   1.930   8.415  0.00  0.00    +0.000 A 
ATOM     14  F   UNL     1      45.864   0.612   8.214  0.00  0.00    +0.000 F 
ATOM     15  C   UNL     1      45.148   2.405   9.580  0.00  0.00    +0.000 A 
ENDBRANCH   6   9
BRANCH   1  16
ATOM     16  C   UNL     1      45.787   8.025  12.232  0.00  0.00    +0.000 C 
BRANCH  16  20
ATOM     17  C   UNL     1      49.992   8.268  13.006  0.00  0.00    +0.000 A 
ATOM     18  C   UNL     1      49.556   7.650  11.834  0.00  0.00    +0.000 A 
ATOM     19  C   UNL     1      48.187   7.560  11.580  0.00  0.00    +0.000 A 
ATOM     20  C   UNL     1      47.283   8.087  12.504  0.00  0.00    +0.000 A 
ATOM     21  N   UNL     1      47.692   8.672  13.660  0.00  0.00    +0.000 NA
ATOM     22  C   UNL     1      49.030   8.741  13.887  0.00  0.00    +0.000 A 
BRANCH  17  24
ATOM     23  N   UNL     1      51.859   7.807  14.490  0.00  0.00    +0.000 N 
ATOM     24  C   UNL     1      51.421   8.426  13.353  0.00  0.00    +0.000 C 
ATOM     25  O   UNL     1      52.188   9.049  12.633  0.00  0.00    +0.000 OA
ATOM     26  H   UNL     1      52.858   7.831  14.655  0.00  0.00    +0.000 HD
ATOM     27  H   UNL     1      51.327   7.089  14.960  0.00  0.00    +0.000 HD
ENDBRANCH  17  24
ENDBRANCH  16  20
ENDBRANCH   1  16
TORSDOF 4
ENDMDL
MODEL 5
REMARK VINA RESULT:    -7.324      4.675      7.728
REMARK INTER + INTRA:          -9.700
REMARK INTER:                  -9.128
REMARK INTRA:                  -0.572
REMARK UNBOUND:                -0.664
REMARK  Name = 
REMARK  4 active torsions:
REMARK  status: ('A' for Active; 'I' for Inactive)
REMARK    1  A    between atoms: C_2  and  C_4
REMARK    2  A    between atoms: C_7  and  C_8
REMARK    3  A    between atoms: C_8  and  N_9
REMARK    4  A    between atoms: C_14  and  C_15
REMARK                            x       y       z     vdW  Elec       q    Type
REMARK                         _______ _______ _______ _____ _____    ______ ____
ROOT
ATOM      1  N   UNL     1      48.170   5.947  16.160  0.00  0.00    +0.000 N 
ATOM      2  C   UNL     1      47.961   6.067  14.796  0.00  0.00    +0.000 A 
ATOM      3  N   UNL     1      48.820   6.858  14.147  0.00  0.00    +0.000 NA
ATOM      4  C   UNL     1      48.607   7.039  12.834  0.00  0.00    +0.000 A 
ATOM      5  C   UNL     1      47.580   6.448  12.142  0.00  0.00    +0.000 A 
ATOM      6  C   UNL     1      46.744   5.632  12.879  0.00  0.00    +0.000 A 
ATOM      7  N   UNL     1      46.931   5.446  14.206  0.00  0.00    +0.000 NA
ATOM      8  H   UNL     1      49.138   6.205  16.323  0.00  0.00    +0.000 HD
ENDROOT
BRANCH   6   9
ATOM      9  C   UNL     1      45.588   4.927  12.298  0.00  0.00    +0.000 A 
ATOM     10  C   UNL     1      44.795   4.078  13.082  0.00  0.00    +0.000 A 
ATOM     11  N   UNL     1      43.707   3.390  12.644  0.00  0.00    +0.000 NA
ATOM     12  C   UNL     1      43.388   3.542  11.340  0.00  0.00    +0.000 A 
ATOM     13  C   UNL     1      44.103   4.348  10.476  0.00  0.00    +0.000 A 
ATOM     14  F   UNL     1      43.742   4.458   9.191  0.00  0.00    +0.000 F 
ATOM     15  C   UNL     1      45.207   5.045  10.952  0.00  0.00    +0.000 A 
ENDBRANCH   6   9
BRANCH   1  16
ATOM     16  C   UNL     1      47.799   4.658  16.721  0.00  0.00    +0.000 C 
BRANCH  16  20
ATOM     17  C   UNL     1      51.253   2.245  17.485  0.00  0.00    +0.000 A 
ATOM     18  C   UNL     1      51.278   3.592  17.844  0.00  0.00    +0.000 A 
ATOM     19  C   UNL     1      50.159   4.386  17.590  0.00  0.00    +0.000 A 
ATOM     20  C   UNL     1      49.040   3.817  16.980  0.00  0.00    +0.000 A 
ATOM     21  N   UNL     1      49.010   2.512  16.603  0.00  0.00    +0.000 NA
ATOM     22  C   UNL     1      50.114   1.762  16.855  0.00  0.00    +0.000 A 
BRANCH  17  24
ATOM     23  N   UNL     1      52.084   0.090  18.239  0.00  0.00    +0.000 N 
ATOM     24  C   UNL     1      52.383   1.323  17.728  0.00  0.00    +0.000 C 
ATOM     25  O   UNL     1      53.533   1.633  17.447  0.00  0.00    +0.000 OA
ATOM     26  H   UNL     1      52.852  -0.567  18.296  0.00  0.00    +0.000 HD
ATOM     27  H   UNL     1      51.147  -0.286  18.242  0.00  0.00    +0.000 HD
ENDBRANCH  17  24
ENDBRANCH  16  20
ENDBRANCH   1  16
TORSDOF 4
ENDMDL
MODEL 6
REMARK VINA RESULT:    -7.263      3.741      7.337
REMARK INTER + INTRA:          -9.625
REMARK INTER:                  -9.249
REMARK INTRA:                  -0.376
REMARK UNBOUND:                -0.664
REMARK  Name = 
REMARK  4 active torsions:
REMARK  status: ('A' for Active; 'I' for Inactive)
REMARK    1  A    between atoms: C_2  and  C_4
REMARK    2  A    between atoms: C_7  and  C_8
REMARK    3  A    between atoms: C_8  and  N_9
REMARK    4  A    between atoms: C_14  and  C_15
REMARK                            x       y       z     vdW  Elec       q    Type
REMARK                         _______ _______ _______ _____ _____    ______ ____
ROOT
ATOM      1  N   UNL     1      45.530   4.368  14.095  0.00  0.00    +0.000 N 
ATOM      2  C   UNL     1      44.850   4.524  12.899  0.00  0.00    +0.000 A 
ATOM      3  N   UNL     1      43.682   5.168  12.979  0.00  0.00    +0.000 NA
ATOM      4  C   UNL     1      42.972   5.284  11.845  0.00  0.00    +0.000 A 
ATOM      5  C   UNL     1      43.393   4.797  10.633  0.00  0.00    +0.000 A 
ATOM      6  C   UNL     1      44.617   4.158  10.628  0.00  0.00    +0.000 A 
ATOM      7  N   UNL     1      45.342   4.017  11.761  0.00  0.00    +0.000 NA
ATOM      8  H   UNL     1      45.168   5.078  14.724  0.00  0.00    +0.000 HD
ENDROOT
BRANCH   6   9
ATOM      9  C   UNL     1      45.214   3.567   9.417  0.00  0.00    +0.000 A 
ATOM     10  C   UNL     1      45.596   4.373   8.337  0.00  0.00    +0.000 A 
ATOM     11  N   UNL     1      46.160   3.928   7.183  0.00  0.00    +0.000 NA
ATOM     12  C   UNL     1      46.348   2.594   7.085  0.00  0.00    +0.000 A 
ATOM     13  C   UNL     1      46.003   1.706   8.085  0.00  0.00    +0.000 A 
ATOM     14  F   UNL     1      46.209   0.392   7.932  0.00  0.00    +0.000 F 
ATOM     15  C   UNL     1      45.434   2.190   9.257  0.00  0.00    +0.000 A 
ENDBRANCH   6   9
BRANCH   1  16
ATOM     16  C   UNL     1      46.979   4.365  13.975  0.00  0.00    +0.000 C 
BRANCH  16  20
ATOM     17  C   UNL     1      48.499   8.325  14.571  0.00  0.00    +0.000 A 
ATOM     18  C   UNL     1      47.617   8.092  13.516  0.00  0.00    +0.000 A 
ATOM     19  C   UNL     1      47.125   6.802  13.311  0.00  0.00    +0.000 A 
ATOM     20  C   UNL     1      47.527   5.772  14.163  0.00  0.00    +0.000 A 
ATOM     21  N   UNL     1      48.403   5.979  15.181  0.00  0.00    +0.000 NA
ATOM     22  C   UNL     1      48.872   7.242  15.356  0.00  0.00    +0.000 A 
BRANCH  17  24
ATOM     23  N   UNL     1      48.353  10.746  14.444  0.00  0.00    +0.000 N 
ATOM     24  C   UNL     1      49.059   9.658  14.877  0.00  0.00    +0.000 C 
ATOM     25  O   UNL     1      50.088   9.786  15.526  0.00  0.00    +0.000 OA
ATOM     26  H   UNL     1      48.689  11.649  14.755  0.00  0.00    +0.000 HD
ATOM     27  H   UNL     1      47.392  10.687  14.138  0.00  0.00    +0.000 HD
ENDBRANCH  17  24
ENDBRANCH  16  20
ENDBRANCH   1  16
TORSDOF 4
ENDMDL
MODEL 7
REMARK VINA RESULT:    -7.055      5.667      7.809
REMARK INTER + INTRA:          -9.368
REMARK INTER:                  -8.915
REMARK INTRA:                  -0.453
REMARK UNBOUND:                -0.664
REMARK  Name = 
REMARK  4 active torsions:
REMARK  status: ('A' for Active; 'I' for Inactive)
REMARK    1  A    between atoms: C_2  and  C_4
REMARK    2  A    between atoms: C_7  and  C_8
REMARK    3  A    between atoms: C_8  and  N_9
REMARK    4  A    between atoms: C_14  and  C_15
REMARK                            x       y       z     vdW  Elec       q    Type
REMARK                         _______ _______ _______ _____ _____    ______ ____
ROOT
ATOM      1  N   UNL     1      47.703   5.696  15.594  0.00  0.00    +0.000 N 
ATOM      2  C   UNL     1      48.633   5.612  16.616  0.00  0.00    +0.000 A 
ATOM      3  N   UNL     1      48.668   6.652  17.454  0.00  0.00    +0.000 NA
ATOM      4  C   UNL     1      49.599   6.624  18.421  0.00  0.00    +0.000 A 
ATOM      5  C   UNL     1      50.485   5.590  18.592  0.00  0.00    +0.000 A 
ATOM      6  C   UNL     1      50.376   4.544  17.698  0.00  0.00    +0.000 A 
ATOM      7  N   UNL     1      49.455   4.557  16.707  0.00  0.00    +0.000 NA
ATOM      8  H   UNL     1      47.006   6.368  15.898  0.00  0.00    +0.000 HD
ENDROOT
BRANCH   6   9
ATOM      9  C   UNL     1      51.252   3.360  17.731  0.00  0.00    +0.000 A 
ATOM     10  C   UNL     1      50.776   2.101  17.339  0.00  0.00    +0.000 A 
ATOM     11  N   UNL     1      51.504   0.953  17.327  0.00  0.00    +0.000 NA
ATOM     12  C   UNL     1      52.785   1.052  17.742  0.00  0.00    +0.000 A 
ATOM     13  C   UNL     1      53.356   2.240  18.156  0.00  0.00    +0.000 A 
ATOM     14  F   UNL     1      54.632   2.278  18.561  0.00  0.00    +0.000 F 
ATOM     15  C   UNL     1      52.590   3.400  18.152  0.00  0.00    +0.000 A 
ENDBRANCH   6   9
BRANCH   1  16
ATOM     16  C   UNL     1      47.150   4.421  15.167  0.00  0.00    +0.000 C 
BRANCH  16  20
ATOM     17  C   UNL     1      45.266   4.775  11.338  0.00  0.00    +0.000 A 
ATOM     18  C   UNL     1      45.951   5.873  11.857  0.00  0.00    +0.000 A 
ATOM     19  C   UNL     1      46.560   5.768  13.108  0.00  0.00    +0.000 A 
ATOM     20  C   UNL     1      46.469   4.567  13.815  0.00  0.00    +0.000 A 
ATOM     21  N   UNL     1      45.786   3.496  13.332  0.00  0.00    +0.000 NA
ATOM     22  C   UNL     1      45.196   3.627  12.114  0.00  0.00    +0.000 A 
BRANCH  17  24
ATOM     23  N   UNL     1      45.412   4.848   8.914  0.00  0.00    +0.000 N 
ATOM     24  C   UNL     1      44.605   4.787  10.015  0.00  0.00    +0.000 C 
ATOM     25  O   UNL     1      43.389   4.705   9.908  0.00  0.00    +0.000 OA
ATOM     26  H   UNL     1      44.954   4.744   8.017  0.00  0.00    +0.000 HD
ATOM     27  H   UNL     1      46.405   4.662   8.953  0.00  0.00    +0.000 HD
ENDBRANCH  17  24
ENDBRANCH  16  20
ENDBRANCH   1  16
TORSDOF 4
ENDMDL
MODEL 8
REMARK VINA RESULT:    -7.032      3.682      7.415
REMARK INTER + INTRA:          -9.340
REMARK INTER:                  -8.880
REMARK INTRA:                  -0.460
REMARK UNBOUND:                -0.664
REMARK  Name = 
REMARK  4 active torsions:
REMARK  status: ('A' for Active; 'I' for Inactive)
REMARK    1  A    between atoms: C_2  and  C_4
REMARK    2  A    between atoms: C_7  and  C_8
REMARK    3  A    between atoms: C_8  and  N_9
REMARK    4  A    between atoms: C_14  and  C_15
REMARK                            x       y       z     vdW  Elec       q    Type
REMARK                         _______ _______ _______ _____ _____    ______ ____
ROOT
ATOM      1  N   UNL     1      47.267   8.271  14.008  0.00  0.00    +0.000 N 
ATOM      2  C   UNL     1      46.318   8.150  13.006  0.00  0.00    +0.000 A 
ATOM      3  N   UNL     1      45.724   9.288  12.634  0.00  0.00    +0.000 NA
ATOM      4  C   UNL     1      44.758   9.194  11.706  0.00  0.00    +0.000 A 
ATOM      5  C   UNL     1      44.377   8.011  11.124  0.00  0.00    +0.000 A 
ATOM      6  C   UNL     1      45.048   6.882  11.548  0.00  0.00    +0.000 A 
ATOM      7  N   UNL     1      46.014   6.951  12.493  0.00  0.00    +0.000 NA
ATOM      8  H   UNL     1      47.562   9.242  14.005  0.00  0.00    +0.000 HD
ENDROOT
BRANCH   6   9
ATOM      9  C   UNL     1      44.760   5.531  11.036  0.00  0.00    +0.000 A 
ATOM     10  C   UNL     1      45.304   5.090   9.823  0.00  0.00    +0.000 A 
ATOM     11  N   UNL     1      45.104   3.864   9.270  0.00  0.00    +0.000 NA
ATOM     12  C   UNL     1      44.304   3.021   9.957  0.00  0.00    +0.000 A 
ATOM     13  C   UNL     1      43.709   3.353  11.159  0.00  0.00    +0.000 A 
ATOM     14  F   UNL     1      42.921   2.478  11.794  0.00  0.00    +0.000 F 
ATOM     15  C   UNL     1      43.936   4.612  11.704  0.00  0.00    +0.000 A 
ENDBRANCH   6   9
BRANCH   1  16
ATOM     16  C   UNL     1      48.363   7.318  13.925  0.00  0.00    +0.000 C 
BRANCH  16  20
ATOM     17  C   UNL     1      47.873   4.303  16.926  0.00  0.00    +0.000 A 
ATOM     18  C   UNL     1      48.596   5.455  17.238  0.00  0.00    +0.000 A 
ATOM     19  C   UNL     1      48.766   6.438  16.262  0.00  0.00    +0.000 A 
ATOM     20  C   UNL     1      48.214   6.247  14.994  0.00  0.00    +0.000 A 
ATOM     21  N   UNL     1      47.527   5.120  14.669  0.00  0.00    +0.000 NA
ATOM     22  C   UNL     1      47.380   4.176  15.635  0.00  0.00    +0.000 A 
BRANCH  17  24
ATOM     23  N   UNL     1      48.447   3.156  18.989  0.00  0.00    +0.000 N 
ATOM     24  C   UNL     1      47.625   3.217  17.898  0.00  0.00    +0.000 C 
ATOM     25  O   UNL     1      46.700   2.430  17.754  0.00  0.00    +0.000 OA
ATOM     26  H   UNL     1      48.197   2.478  19.699  0.00  0.00    +0.000 HD
ATOM     27  H   UNL     1      49.043   3.923  19.267  0.00  0.00    +0.000 HD
ENDBRANCH  17  24
ENDBRANCH  16  20
ENDBRANCH   1  16
TORSDOF 4
ENDMDL
MODEL 9
REMARK VINA RESULT:    -7.030      2.351      3.384
REMARK INTER + INTRA:          -9.337
REMARK INTER:                  -8.834
REMARK INTRA:                  -0.503
REMARK UNBOUND:                -0.664
REMARK  Name = 
REMARK  4 active torsions:
REMARK  status: ('A' for Active; 'I' for Inactive)
REMARK    1  A    between atoms: C_2  and  C_4
REMARK    2  A    between atoms: C_7  and  C_8
REMARK    3  A    between atoms: C_8  and  N_9
REMARK    4  A    between atoms: C_14  and  C_15
REMARK                            x       y       z     vdW  Elec       q    Type
REMARK                         _______ _______ _______ _____ _____    ______ ____
ROOT
ATOM      1  N   UNL     1      43.774   5.756  10.299  0.00  0.00    +0.000 N 
ATOM      2  C   UNL     1      44.336   6.814  10.993  0.00  0.00    +0.000 A 
ATOM      3  N   UNL     1      43.556   7.889  11.141  0.00  0.00    +0.000 NA
ATOM      4  C   UNL     1      44.093   8.952  11.759  0.00  0.00    +0.000 A 
ATOM      5  C   UNL     1      45.375   8.977  12.249  0.00  0.00    +0.000 A 
ATOM      6  C   UNL     1      46.115   7.824  12.072  0.00  0.00    +0.000 A 
ATOM      7  N   UNL     1      45.598   6.746  11.440  0.00  0.00    +0.000 NA
ATOM      8  H   UNL     1      42.769   5.883  10.351  0.00  0.00    +0.000 HD
ENDROOT
BRANCH   6   9
ATOM      9  C   UNL     1      47.509   7.682  12.528  0.00  0.00    +0.000 A 
ATOM     10  C   UNL     1      47.801   7.339  13.855  0.00  0.00    +0.000 A 
ATOM     11  N   UNL     1      49.048   7.177  14.370  0.00  0.00    +0.000 NA
ATOM     12  C   UNL     1      50.078   7.379  13.519  0.00  0.00    +0.000 A 
ATOM     13  C   UNL     1      49.906   7.727  12.193  0.00  0.00    +0.000 A 
ATOM     14  F   UNL     1      50.964   7.918  11.396  0.00  0.00    +0.000 F 
ATOM     15  C   UNL     1      48.618   7.879  11.692  0.00  0.00    +0.000 A 
ENDBRANCH   6   9
BRANCH   1  16
ATOM     16  C   UNL     1      44.228   4.441  10.723  0.00  0.00    +0.000 C 
BRANCH  16  20
ATOM     17  C   UNL     1      46.546   2.546   7.662  0.00  0.00    +0.000 A 
ATOM     18  C   UNL     1      46.463   3.938   7.682  0.00  0.00    +0.000 A 
ATOM     19  C   UNL     1      45.703   4.562   8.672  0.00  0.00    +0.000 A 
ATOM     20  C   UNL     1      45.038   3.780   9.619  0.00  0.00    +0.000 A 
ATOM     21  N   UNL     1      45.090   2.423   9.598  0.00  0.00    +0.000 NA
ATOM     22  C   UNL     1      45.832   1.840   8.620  0.00  0.00    +0.000 A 
BRANCH  17  24
ATOM     23  N   UNL     1      48.332   2.481   6.016  0.00  0.00    +0.000 N 
ATOM     24  C   UNL     1      47.340   1.798   6.664  0.00  0.00    +0.000 C 
ATOM     25  O   UNL     1      47.146   0.609   6.454  0.00  0.00    +0.000 OA
ATOM     26  H   UNL     1      48.936   1.930   5.419  0.00  0.00    +0.000 HD
ATOM     27  H   UNL     1      48.682   3.372   6.339  0.00  0.00    +0.000 HD
ENDBRANCH  17  24
ENDBRANCH  16  20
ENDBRANCH   1  16
TORSDOF 4
ENDMDL
