MODEL 1
REMARK VINA RESULT:    -9.332      0.000      0.000
REMARK INTER + INTRA:         -13.430
REMARK INTER:                 -12.332
REMARK INTRA:                  -1.098
REMARK UNBOUND:                -1.098
REMARK  Name = 
REMARK  6 active torsions:
REMARK  status: ('A' for Active; 'I' for Inactive)
REMARK    1  A    between atoms: C_2  and  C_4
REMARK    2  A    between atoms: N_8  and  C_9
REMARK    3  A    between atoms: C_9  and  C_10
REMARK    4  A    between atoms: C_10  and  C_13
REMARK    5  A    between atoms: C_17  and  N_18
REMARK    6  A    between atoms: C_22  and  O_23
REMARK                            x       y       z     vdW  Elec       q    Type
REMARK                         _______ _______ _______ _____ _____    ______ ____
ROOT
ATOM      1  C   UNL     1      43.519   5.555  12.153  0.00  0.00    +0.000 C 
ATOM      2  F   UNL     1      43.335   6.763  11.537  0.00  0.00    +0.000 F 
ATOM      3  F   UNL     1      42.588   5.520  13.155  0.00  0.00    +0.000 F 
ENDROOT
BRANCH   1   4
ATOM      4  C   UNL     1      44.927   5.405  12.698  0.00  0.00    +0.000 A 
ATOM      5  C   UNL     1      45.372   4.188  13.216  0.00  0.00    +0.000 A 
ATOM      6  C   UNL     1      46.679   4.069  13.677  0.00  0.00    +0.000 A 
ATOM      7  C   UNL     1      47.552   5.161  13.611  0.00  0.00    +0.000 A 
ATOM      8  C   UNL     1      47.155   6.401  13.090  0.00  0.00    +0.000 A 
ATOM      9  C   UNL     1      45.819   6.498  12.664  0.00  0.00    +0.000 A 
BRANCH   8  10
ATOM     10  N   UNL     1      48.044   7.449  12.952  0.00  0.00    +0.000 N 
ATOM     11  C   UNL     1      48.560   7.865  11.643  0.00  0.00    +0.000 C 
ATOM     12  C   UNL     1      50.089   7.907  11.692  0.00  0.00    +0.000 C 
ATOM     13  C   UNL     1      50.604   8.752  12.857  0.00  0.00    +0.000 C 
ATOM     14  C   UNL     1      49.968   8.340  14.188  0.00  0.00    +0.000 C 
ATOM     15  C   UNL     1      48.432   8.316  14.081  0.00  0.00    +0.000 C 
BRANCH  14  16
ATOM     16  O   UNL     1      50.441   7.038  14.550  0.00  0.00    +0.000 OA
ATOM     17  H   UNL     1      50.358   6.497  13.738  0.00  0.00    +0.000 HD
ENDBRANCH  14  16
ENDBRANCH   8  10
ENDBRANCH   1   4
BRANCH   1  18
ATOM     18  C   UNL     1      43.189   4.439  11.128  0.00  0.00    +0.000 C 
BRANCH  18  23
ATOM     19  C   UNL     1      46.479   2.488   7.738  0.00  0.00    +0.000 A 
ATOM     20  C   UNL     1      45.649   1.840   8.646  0.00  0.00    +0.000 A 
ATOM     21  C   UNL     1      44.717   2.587   9.366  0.00  0.00    +0.000 A 
ATOM     22  C   UNL     1      44.638   3.965   9.180  0.00  0.00    +0.000 A 
ATOM     23  N   UNL     1      43.670   4.747   9.773  0.00  0.00    +0.000 N 
ATOM     24  N   UNL     1      45.469   4.607   8.334  0.00  0.00    +0.000 NA
ATOM     25  C   UNL     1      46.372   3.865   7.639  0.00  0.00    +0.000 A 
ATOM     26  H   UNL     1      43.878   5.727   9.589  0.00  0.00    +0.000 HD
BRANCH  19  28
ATOM     27  N   UNL     1      48.533   2.470   6.452  0.00  0.00    +0.000 N 
ATOM     28  C   UNL     1      47.442   1.766   6.883  0.00  0.00    +0.000 C 
ATOM     29  O   UNL     1      47.296   0.584   6.608  0.00  0.00    +0.000 OA
ATOM     30  H   UNL     1      49.248   1.939   5.971  0.00  0.00    +0.000 HD
ATOM     31  H   UNL     1      48.814   3.344   6.875  0.00  0.00    +0.000 HD
ENDBRANCH  19  28
ENDBRANCH  18  23
ENDBRANCH   1  18
TORSDOF 6
ENDMDL
MODEL 2
REMARK VINA RESULT:    -9.209      1.094      1.197
REMARK INTER + INTRA:         -13.268
REMARK INTER:                 -12.235
REMARK INTRA:                  -1.032
REMARK UNBOUND:                -1.098
REMARK  Name = 
REMARK  6 active torsions:
REMARK  status: ('A' for Active; 'I' for Inactive)
REMARK    1  A    between atoms: C_2  and  C_4
REMARK    2  A    between atoms: N_8  and  C_9
REMARK    3  A    between atoms: C_9  and  C_10
REMARK    4  A    between atoms: C_10  and  C_13
REMARK    5  A    between atoms: C_17  and  N_18
REMARK    6  A    between atoms: C_22  and  O_23
REMARK                            x       y       z     vdW  Elec       q    Type
REMARK                         _______ _______ _______ _____ _____    ______ ____
ROOT
ATOM      1  C   UNL     1      43.432   5.516  12.193  0.00  0.00    +0.000 C 
ATOM      2  F   UNL     1      42.957   6.674  11.641  0.00  0.00    +0.000 F 
ATOM      3  F   UNL     1      42.626   5.277  13.272  0.00  0.00    +0.000 F 
ENDROOT
BRANCH   1   4
ATOM      4  C   UNL     1      44.888   5.639  12.604  0.00  0.00    +0.000 A 
ATOM      5  C   UNL     1      45.528   4.612  13.301  0.00  0.00    +0.000 A 
ATOM      6  C   UNL     1      46.872   4.737  13.635  0.00  0.00    +0.000 A 
ATOM      7  C   UNL     1      47.588   5.881  13.263  0.00  0.00    +0.000 A 
ATOM      8  C   UNL     1      46.992   6.934  12.553  0.00  0.00    +0.000 A 
ATOM      9  C   UNL     1      45.624   6.792  12.262  0.00  0.00    +0.000 A 
BRANCH   8  10
ATOM     10  N   UNL     1      47.724   8.022  12.118  0.00  0.00    +0.000 N 
ATOM     11  C   UNL     1      49.057   7.876  11.524  0.00  0.00    +0.000 C 
ATOM     12  C   UNL     1      50.040   8.792  12.259  0.00  0.00    +0.000 C 
ATOM     13  C   UNL     1      49.544  10.237  12.318  0.00  0.00    +0.000 C 
ATOM     14  C   UNL     1      48.115  10.329  12.859  0.00  0.00    +0.000 C 
ATOM     15  C   UNL     1      47.171   9.389  12.086  0.00  0.00    +0.000 C 
BRANCH  14  16
ATOM     16  O   UNL     1      48.114   9.969  14.246  0.00  0.00    +0.000 OA
ATOM     17  H   UNL     1      47.270   9.497  14.390  0.00  0.00    +0.000 HD
ENDBRANCH  14  16
ENDBRANCH   8  10
ENDBRANCH   1   4
BRANCH   1  18
ATOM     18  C   UNL     1      43.233   4.376  11.161  0.00  0.00    +0.000 C 
BRANCH  18  23
ATOM     19  C   UNL     1      46.505   2.514   7.704  0.00  0.00    +0.000 A 
ATOM     20  C   UNL     1      45.667   1.843   8.586  0.00  0.00    +0.000 A 
ATOM     21  C   UNL     1      44.742   2.573   9.333  0.00  0.00    +0.000 A 
ATOM     22  C   UNL     1      44.679   3.958   9.198  0.00  0.00    +0.000 A 
ATOM     23  N   UNL     1      43.719   4.729   9.818  0.00  0.00    +0.000 N 
ATOM     24  N   UNL     1      45.519   4.621   8.377  0.00  0.00    +0.000 NA
ATOM     25  C   UNL     1      46.414   3.895   7.657  0.00  0.00    +0.000 A 
ATOM     26  H   UNL     1      43.939   5.712   9.671  0.00  0.00    +0.000 HD
BRANCH  19  28
ATOM     27  N   UNL     1      48.543   2.531   6.394  0.00  0.00    +0.000 N 
ATOM     28  C   UNL     1      47.461   1.813   6.824  0.00  0.00    +0.000 C 
ATOM     29  O   UNL     1      47.318   0.636   6.529  0.00  0.00    +0.000 OA
ATOM     30  H   UNL     1      49.255   2.012   5.894  0.00  0.00    +0.000 HD
ATOM     31  H   UNL     1      48.826   3.399   6.829  0.00  0.00    +0.000 HD
ENDBRANCH  19  28
ENDBRANCH  18  23
ENDBRANCH   1  18
TORSDOF 6
ENDMDL
MODEL 3
REMARK VINA RESULT:    -9.127      1.597      2.513
REMARK INTER + INTRA:         -13.160
REMARK INTER:                 -12.257
REMARK INTRA:                  -0.903
REMARK UNBOUND:                -1.098
REMARK  Name = 
REMARK  6 active torsions:
REMARK  status: ('A' for Active; 'I' for Inactive)
REMARK    1  A    between atoms: C_2  and  C_4
REMARK    2  A    between atoms: N_8  and  C_9
REMARK    3  A    between atoms: C_9  and  C_10
REMARK    4  A    between atoms: C_10  and  C_13
REMARK    5  A    between atoms: C_17  and  N_18
REMARK    6  A    between atoms: C_22  and  O_23
REMARK                            x       y       z     vdW  Elec       q    Type
REMARK                         _______ _______ _______ _____ _____    ______ ____
ROOT
ATOM      1  C   UNL     1      43.097   5.262  12.158  0.00  0.00    +0.000 C 
ATOM      2  F   UNL     1      42.082   6.068  11.719  0.00  0.00    +0.000 F 
ATOM      3  F   UNL     1      42.642   4.722  13.329  0.00  0.00    +0.000 F 
ENDROOT
BRANCH   1   4
ATOM      4  C   UNL     1      44.385   6.036  12.366  0.00  0.00    +0.000 A 
ATOM      5  C   UNL     1      44.573   7.291  11.783  0.00  0.00    +0.000 A 
ATOM      6  C   UNL     1      45.750   7.994  12.018  0.00  0.00    +0.000 A 
ATOM      7  C   UNL     1      46.740   7.454  12.848  0.00  0.00    +0.000 A 
ATOM      8  C   UNL     1      46.593   6.202  13.464  0.00  0.00    +0.000 A 
ATOM      9  C   UNL     1      45.408   5.503  13.178  0.00  0.00    +0.000 A 
BRANCH   8  10
ATOM     10  N   UNL     1      47.537   5.712  14.346  0.00  0.00    +0.000 N 
ATOM     11  C   UNL     1      47.374   4.418  15.020  0.00  0.00    +0.000 C 
ATOM     12  C   UNL     1      47.544   4.610  16.529  0.00  0.00    +0.000 C 
ATOM     13  C   UNL     1      48.849   5.328  16.874  0.00  0.00    +0.000 C 
ATOM     14  C   UNL     1      49.015   6.626  16.079  0.00  0.00    +0.000 C 
ATOM     15  C   UNL     1      48.835   6.374  14.570  0.00  0.00    +0.000 C 
BRANCH  14  16
ATOM     16  O   UNL     1      48.041   7.576  16.523  0.00  0.00    +0.000 OA
ATOM     17  H   UNL     1      48.219   7.704  17.476  0.00  0.00    +0.000 HD
ENDBRANCH  14  16
ENDBRANCH   8  10
ENDBRANCH   1   4
BRANCH   1  18
ATOM     18  C   UNL     1      43.286   4.122  11.124  0.00  0.00    +0.000 C 
BRANCH  18  23
ATOM     19  C   UNL     1      46.638   2.752   7.518  0.00  0.00    +0.000 A 
ATOM     20  C   UNL     1      45.853   1.961   8.348  0.00  0.00    +0.000 A 
ATOM     21  C   UNL     1      44.890   2.569   9.154  0.00  0.00    +0.000 A 
ATOM     22  C   UNL     1      44.737   3.953   9.128  0.00  0.00    +0.000 A 
ATOM     23  N   UNL     1      43.735   4.609   9.811  0.00  0.00    +0.000 N 
ATOM     24  N   UNL     1      45.524   4.731   8.358  0.00  0.00    +0.000 NA
ATOM     25  C   UNL     1      46.458   4.124   7.579  0.00  0.00    +0.000 A 
ATOM     26  H   UNL     1      43.890   5.613   9.741  0.00  0.00    +0.000 HD
BRANCH  19  28
ATOM     27  N   UNL     1      47.864   2.890   5.432  0.00  0.00    +0.000 N 
ATOM     28  C   UNL     1      47.629   2.185   6.581  0.00  0.00    +0.000 C 
ATOM     29  O   UNL     1      48.243   1.160   6.838  0.00  0.00    +0.000 OA
ATOM     30  H   UNL     1      48.630   2.563   4.855  0.00  0.00    +0.000 HD
ATOM     31  H   UNL     1      47.582   3.854   5.321  0.00  0.00    +0.000 HD
ENDBRANCH  19  28
ENDBRANCH  18  23
ENDBRANCH   1  18
TORSDOF 6
ENDMDL
MODEL 4
REMARK VINA RESULT:    -8.930      2.228      3.162
REMARK INTER + INTRA:         -12.900
REMARK INTER:                 -12.071
REMARK INTRA:                  -0.829
REMARK UNBOUND:                -1.098
REMARK  Name = 
REMARK  6 active torsions:
REMARK  status: ('A' for Active; 'I' for Inactive)
REMARK    1  A    between atoms: C_2  and  C_4
REMARK    2  A    between atoms: N_8  and  C_9
REMARK    3  A    between atoms: C_9  and  C_10
REMARK    4  A    between atoms: C_10  and  C_13
REMARK    5  A    between atoms: C_17  and  N_18
REMARK    6  A    between atoms: C_22  and  O_23
REMARK                            x       y       z     vdW  Elec       q    Type
REMARK                         _______ _______ _______ _____ _____    ______ ____
ROOT
ATOM      1  C   UNL     1      43.859   4.772  12.583  0.00  0.00    +0.000 C 
ATOM      2  F   UNL     1      43.158   5.830  12.070  0.00  0.00    +0.000 F 
ATOM      3  F   UNL     1      43.145   4.370  13.679  0.00  0.00    +0.000 F 
ENDROOT
BRANCH   1   4
ATOM      4  C   UNL     1      45.277   5.160  12.956  0.00  0.00    +0.000 A 
ATOM      5  C   UNL     1      46.045   5.971  12.119  0.00  0.00    +0.000 A 
ATOM      6  C   UNL     1      47.331   6.340  12.501  0.00  0.00    +0.000 A 
ATOM      7  C   UNL     1      47.852   5.912  13.728  0.00  0.00    +0.000 A 
ATOM      8  C   UNL     1      47.115   5.105  14.608  0.00  0.00    +0.000 A 
ATOM      9  C   UNL     1      45.833   4.722  14.176  0.00  0.00    +0.000 A 
BRANCH   8  10
ATOM     10  N   UNL     1      47.603   4.754  15.852  0.00  0.00    +0.000 N 
ATOM     11  C   UNL     1      48.498   5.633  16.613  0.00  0.00    +0.000 C 
ATOM     12  C   UNL     1      49.746   4.848  17.025  0.00  0.00    +0.000 C 
ATOM     13  C   UNL     1      49.395   3.547  17.747  0.00  0.00    +0.000 C 
ATOM     14  C   UNL     1      48.389   2.707  16.956  0.00  0.00    +0.000 C 
ATOM     15  C   UNL     1      47.156   3.545  16.569  0.00  0.00    +0.000 C 
BRANCH  14  16
ATOM     16  O   UNL     1      49.021   2.214  15.769  0.00  0.00    +0.000 OA
ATOM     17  H   UNL     1      49.512   2.975  15.401  0.00  0.00    +0.000 HD
ENDBRANCH  14  16
ENDBRANCH   8  10
ENDBRANCH   1   4
BRANCH   1  18
ATOM     18  C   UNL     1      43.844   3.631  11.534  0.00  0.00    +0.000 C 
BRANCH  18  23
ATOM     19  C   UNL     1      46.586   2.657   7.333  0.00  0.00    +0.000 A 
ATOM     20  C   UNL     1      46.126   1.788   8.315  0.00  0.00    +0.000 A 
ATOM     21  C   UNL     1      45.257   2.269   9.294  0.00  0.00    +0.000 A 
ATOM     22  C   UNL     1      44.874   3.608   9.285  0.00  0.00    +0.000 A 
ATOM     23  N   UNL     1      43.934   4.126  10.151  0.00  0.00    +0.000 N 
ATOM     24  N   UNL     1      45.351   4.468   8.361  0.00  0.00    +0.000 NA
ATOM     25  C   UNL     1      46.197   3.983   7.414  0.00  0.00    +0.000 A 
ATOM     26  H   UNL     1      43.903   5.137  10.040  0.00  0.00    +0.000 HD
BRANCH  19  28
ATOM     27  N   UNL     1      47.384   2.942   5.062  0.00  0.00    +0.000 N 
ATOM     28  C   UNL     1      47.450   2.215   6.219  0.00  0.00    +0.000 C 
ATOM     29  O   UNL     1      48.219   1.273   6.338  0.00  0.00    +0.000 OA
ATOM     30  H   UNL     1      48.064   2.711   4.348  0.00  0.00    +0.000 HD
ATOM     31  H   UNL     1      46.972   3.865   5.025  0.00  0.00    +0.000 HD
ENDBRANCH  19  28
ENDBRANCH  18  23
ENDBRANCH   1  18
TORSDOF 6
ENDMDL
MODEL 5
REMARK VINA RESULT:    -8.557      1.514      2.086
REMARK INTER + INTRA:         -12.406
REMARK INTER:                 -11.283
REMARK INTRA:                  -1.123
REMARK UNBOUND:                -1.098
REMARK  Name = 
REMARK  6 active torsions:
REMARK  status: ('A' for Active; 'I' for Inactive)
REMARK    1  A    between atoms: C_2  and  C_4
REMARK    2  A    between atoms: N_8  and  C_9
REMARK    3  A    between atoms: C_9  and  C_10
REMARK    4  A    between atoms: C_10  and  C_13
REMARK    5  A    between atoms: C_17  and  N_18
REMARK    6  A    between atoms: C_22  and  O_23
REMARK                            x       y       z     vdW  Elec       q    Type
REMARK                         _______ _______ _______ _____ _____    ______ ____
ROOT
ATOM      1  C   UNL     1      44.463   5.987  11.715  0.00  0.00    +0.000 C 
ATOM      2  F   UNL     1      45.082   6.815  10.820  0.00  0.00    +0.000 F 
ATOM      3  F   UNL     1      43.617   6.796  12.424  0.00  0.00    +0.000 F 
ENDROOT
BRANCH   1   4
ATOM      4  C   UNL     1      45.458   5.291  12.625  0.00  0.00    +0.000 A 
ATOM      5  C   UNL     1      45.545   3.898  12.664  0.00  0.00    +0.000 A 
ATOM      6  C   UNL     1      46.490   3.287  13.481  0.00  0.00    +0.000 A 
ATOM      7  C   UNL     1      47.362   4.063  14.254  0.00  0.00    +0.000 A 
ATOM      8  C   UNL     1      47.319   5.465  14.241  0.00  0.00    +0.000 A 
ATOM      9  C   UNL     1      46.331   6.050  13.432  0.00  0.00    +0.000 A 
BRANCH   8  10
ATOM     10  N   UNL     1      48.235   6.226  14.943  0.00  0.00    +0.000 N 
ATOM     11  C   UNL     1      48.723   5.829  16.269  0.00  0.00    +0.000 C 
ATOM     12  C   UNL     1      48.534   6.992  17.246  0.00  0.00    +0.000 C 
ATOM     13  C   UNL     1      49.151   8.289  16.722  0.00  0.00    +0.000 C 
ATOM     14  C   UNL     1      48.682   8.612  15.300  0.00  0.00    +0.000 C 
ATOM     15  C   UNL     1      48.896   7.410  14.363  0.00  0.00    +0.000 C 
BRANCH  14  16
ATOM     16  O   UNL     1      47.291   8.951  15.332  0.00  0.00    +0.000 OA
ATOM     17  H   UNL     1      46.822   8.105  15.480  0.00  0.00    +0.000 HD
ENDBRANCH  14  16
ENDBRANCH   8  10
ENDBRANCH   1   4
BRANCH   1  18
ATOM     18  C   UNL     1      43.617   4.962  10.917  0.00  0.00    +0.000 C 
BRANCH  18  23
ATOM     19  C   UNL     1      46.435   2.240   7.635  0.00  0.00    +0.000 A 
ATOM     20  C   UNL     1      45.723   1.824   8.753  0.00  0.00    +0.000 A 
ATOM     21  C   UNL     1      44.895   2.735   9.410  0.00  0.00    +0.000 A 
ATOM     22  C   UNL     1      44.803   4.046   8.949  0.00  0.00    +0.000 A 
ATOM     23  N   UNL     1      43.923   4.966   9.478  0.00  0.00    +0.000 N 
ATOM     24  N   UNL     1      45.524   4.469   7.891  0.00  0.00    +0.000 NA
ATOM     25  C   UNL     1      46.326   3.570   7.262  0.00  0.00    +0.000 A 
ATOM     26  H   UNL     1      44.113   5.879   9.069  0.00  0.00    +0.000 HD
BRANCH  19  28
ATOM     27  N   UNL     1      48.351   1.876   6.196  0.00  0.00    +0.000 N 
ATOM     28  C   UNL     1      47.276   1.325   6.839  0.00  0.00    +0.000 C 
ATOM     29  O   UNL     1      47.052   0.124   6.791  0.00  0.00    +0.000 OA
ATOM     30  H   UNL     1      48.991   1.227   5.755  0.00  0.00    +0.000 HD
ATOM     31  H   UNL     1      48.711   2.791   6.432  0.00  0.00    +0.000 HD
ENDBRANCH  19  28
ENDBRANCH  18  23
ENDBRANCH   1  18
TORSDOF 6
ENDMDL
MODEL 6
REMARK VINA RESULT:    -8.551      1.541      2.201
REMARK INTER + INTRA:         -12.398
REMARK INTER:                 -11.902
REMARK INTRA:                  -0.496
REMARK UNBOUND:                -1.098
REMARK  Name = 
REMARK  6 active torsions:
REMARK  status: ('A' for Active; 'I' for Inactive)
REMARK    1  A    between atoms: C_2  and  C_4
REMARK    2  A    between atoms: N_8  and  C_9
REMARK    3  A    between atoms: C_9  and  C_10
REMARK    4  A    between atoms: C_10  and  C_13
REMARK    5  A    between atoms: C_17  and  N_18
REMARK    6  A    between atoms: C_22  and  O_23
REMARK                            x       y       z     vdW  Elec       q    Type
REMARK                         _______ _______ _______ _____ _____    ______ ____
ROOT
ATOM      1  C   UNL     1      44.360   4.774  12.274  0.00  0.00    +0.000 C 
ATOM      2  F   UNL     1      43.759   4.539  13.480  0.00  0.00    +0.000 F 
ATOM      3  F   UNL     1      45.347   3.831  12.177  0.00  0.00    +0.000 F 
ENDROOT
BRANCH   1   4
ATOM      4  C   UNL     1      44.925   6.179  12.186  0.00  0.00    +0.000 A 
ATOM      5  C   UNL     1      44.196   7.212  11.593  0.00  0.00    +0.000 A 
ATOM      6  C   UNL     1      44.723   8.499  11.557  0.00  0.00    +0.000 A 
ATOM      7  C   UNL     1      45.974   8.764  12.125  0.00  0.00    +0.000 A 
ATOM      8  C   UNL     1      46.739   7.763  12.742  0.00  0.00    +0.000 A 
ATOM      9  C   UNL     1      46.194   6.468  12.730  0.00  0.00    +0.000 A 
BRANCH   8  10
ATOM     10  N   UNL     1      47.935   8.047  13.372  0.00  0.00    +0.000 N 
ATOM     11  C   UNL     1      48.961   7.022  13.595  0.00  0.00    +0.000 C 
ATOM     12  C   UNL     1      49.351   7.011  15.075  0.00  0.00    +0.000 C 
ATOM     13  C   UNL     1      49.746   8.400  15.575  0.00  0.00    +0.000 C 
ATOM     14  C   UNL     1      48.686   9.452  15.239  0.00  0.00    +0.000 C 
ATOM     15  C   UNL     1      48.333   9.419  13.740  0.00  0.00    +0.000 C 
BRANCH  14  16
ATOM     16  O   UNL     1      47.508   9.195  16.012  0.00  0.00    +0.000 OA
ATOM     17  H   UNL     1      47.505   9.877  16.714  0.00  0.00    +0.000 HD
ENDBRANCH  14  16
ENDBRANCH   8  10
ENDBRANCH   1   4
BRANCH   1  18
ATOM     18  C   UNL     1      43.315   4.516  11.158  0.00  0.00    +0.000 C 
BRANCH  18  23
ATOM     19  C   UNL     1      46.477   2.469   7.703  0.00  0.00    +0.000 A 
ATOM     20  C   UNL     1      45.601   1.847   8.585  0.00  0.00    +0.000 A 
ATOM     21  C   UNL     1      44.719   2.629   9.331  0.00  0.00    +0.000 A 
ATOM     22  C   UNL     1      44.735   4.015   9.196  0.00  0.00    +0.000 A 
ATOM     23  N   UNL     1      43.821   4.840   9.815  0.00  0.00    +0.000 N 
ATOM     24  N   UNL     1      45.612   4.629   8.375  0.00  0.00    +0.000 NA
ATOM     25  C   UNL     1      46.465   3.853   7.655  0.00  0.00    +0.000 A 
ATOM     26  H   UNL     1      44.097   5.809   9.668  0.00  0.00    +0.000 HD
BRANCH  19  28
ATOM     27  N   UNL     1      48.472   2.393   6.330  0.00  0.00    +0.000 N 
ATOM     28  C   UNL     1      47.391   1.714   6.824  0.00  0.00    +0.000 C 
ATOM     29  O   UNL     1      47.218   0.529   6.582  0.00  0.00    +0.000 OA
ATOM     30  H   UNL     1      49.158   1.841   5.830  0.00  0.00    +0.000 HD
ATOM     31  H   UNL     1      48.784   3.272   6.720  0.00  0.00    +0.000 HD
ENDBRANCH  19  28
ENDBRANCH  18  23
ENDBRANCH   1  18
TORSDOF 6
ENDMDL
MODEL 7
REMARK VINA RESULT:    -8.420      1.284      1.926
REMARK INTER + INTRA:         -12.226
REMARK INTER:                 -11.557
REMARK INTRA:                  -0.669
REMARK UNBOUND:                -1.098
REMARK  Name = 
REMARK  6 active torsions:
REMARK  status: ('A' for Active; 'I' for Inactive)
REMARK    1  A    between atoms: C_2  and  C_4
REMARK    2  A    between atoms: N_8  and  C_9
REMARK    3  A    between atoms: C_9  and  C_10
REMARK    4  A    between atoms: C_10  and  C_13
REMARK    5  A    between atoms: C_17  and  N_18
REMARK    6  A    between atoms: C_22  and  O_23
REMARK                            x       y       z     vdW  Elec       q    Type
REMARK                         _______ _______ _______ _____ _____    ______ ____
ROOT
ATOM      1  C   UNL     1      44.372   4.938  12.282  0.00  0.00    +0.000 C 
ATOM      2  F   UNL     1      43.772   4.765  13.499  0.00  0.00    +0.000 F 
ATOM      3  F   UNL     1      45.412   4.050  12.267  0.00  0.00    +0.000 F 
ENDROOT
BRANCH   1   4
ATOM      4  C   UNL     1      44.857   6.363  12.087  0.00  0.00    +0.000 A 
ATOM      5  C   UNL     1      44.031   7.331  11.512  0.00  0.00    +0.000 A 
ATOM      6  C   UNL     1      44.488   8.638  11.376  0.00  0.00    +0.000 A 
ATOM      7  C   UNL     1      45.767   8.988  11.827  0.00  0.00    +0.000 A 
ATOM      8  C   UNL     1      46.628   8.054  12.421  0.00  0.00    +0.000 A 
ATOM      9  C   UNL     1      46.149   6.735  12.511  0.00  0.00    +0.000 A 
BRANCH   8  10
ATOM     10  N   UNL     1      47.856   8.423  12.937  0.00  0.00    +0.000 N 
ATOM     11  C   UNL     1      48.957   8.873  12.078  0.00  0.00    +0.000 C 
ATOM     12  C   UNL     1      50.210   8.052  12.392  0.00  0.00    +0.000 C 
ATOM     13  C   UNL     1      50.545   8.062  13.884  0.00  0.00    +0.000 C 
ATOM     14  C   UNL     1      49.338   7.673  14.743  0.00  0.00    +0.000 C 
ATOM     15  C   UNL     1      48.109   8.529  14.386  0.00  0.00    +0.000 C 
BRANCH  14  16
ATOM     16  O   UNL     1      49.035   6.290  14.527  0.00  0.00    +0.000 OA
ATOM     17  H   UNL     1      48.163   6.283  14.084  0.00  0.00    +0.000 HD
ENDBRANCH  14  16
ENDBRANCH   8  10
ENDBRANCH   1   4
BRANCH   1  18
ATOM     18  C   UNL     1      43.356   4.534  11.183  0.00  0.00    +0.000 C 
BRANCH  18  23
ATOM     19  C   UNL     1      46.485   2.479   7.703  0.00  0.00    +0.000 A 
ATOM     20  C   UNL     1      45.637   1.858   8.613  0.00  0.00    +0.000 A 
ATOM     21  C   UNL     1      44.757   2.638   9.363  0.00  0.00    +0.000 A 
ATOM     22  C   UNL     1      44.746   4.022   9.202  0.00  0.00    +0.000 A 
ATOM     23  N   UNL     1      43.830   4.842   9.825  0.00  0.00    +0.000 N 
ATOM     24  N   UNL     1      45.596   4.635   8.353  0.00  0.00    +0.000 NA
ATOM     25  C   UNL     1      46.448   3.861   7.631  0.00  0.00    +0.000 A 
ATOM     26  H   UNL     1      44.086   5.813   9.656  0.00  0.00    +0.000 HD
BRANCH  19  28
ATOM     27  N   UNL     1      48.515   2.379   6.383  0.00  0.00    +0.000 N 
ATOM     28  C   UNL     1      47.395   1.724   6.819  0.00  0.00    +0.000 C 
ATOM     29  O   UNL     1      47.184   0.556   6.526  0.00  0.00    +0.000 OA
ATOM     30  H   UNL     1      49.194   1.820   5.880  0.00  0.00    +0.000 HD
ATOM     31  H   UNL     1      48.848   3.229   6.816  0.00  0.00    +0.000 HD
ENDBRANCH  19  28
ENDBRANCH  18  23
ENDBRANCH   1  18
TORSDOF 6
ENDMDL
MODEL 8
REMARK VINA RESULT:    -7.928      3.291      8.025
REMARK INTER + INTRA:         -11.575
REMARK INTER:                 -10.924
REMARK INTRA:                  -0.652
REMARK UNBOUND:                -1.098
REMARK  Name = 
REMARK  6 active torsions:
REMARK  status: ('A' for Active; 'I' for Inactive)
REMARK    1  A    between atoms: C_2  and  C_4
REMARK    2  A    between atoms: N_8  and  C_9
REMARK    3  A    between atoms: C_9  and  C_10
REMARK    4  A    between atoms: C_10  and  C_13
REMARK    5  A    between atoms: C_17  and  N_18
REMARK    6  A    between atoms: C_22  and  O_23
REMARK                            x       y       z     vdW  Elec       q    Type
REMARK                         _______ _______ _______ _____ _____    ______ ____
ROOT
ATOM      1  C   UNL     1      45.807   5.814  12.363  0.00  0.00    +0.000 C 
ATOM      2  F   UNL     1      44.945   6.599  13.080  0.00  0.00    +0.000 F 
ATOM      3  F   UNL     1      46.315   6.635  11.395  0.00  0.00    +0.000 F 
ENDROOT
BRANCH   1   4
ATOM      4  C   UNL     1      45.108   4.610  11.760  0.00  0.00    +0.000 A 
ATOM      5  C   UNL     1      44.031   4.003  12.410  0.00  0.00    +0.000 A 
ATOM      6  C   UNL     1      43.387   2.921  11.818  0.00  0.00    +0.000 A 
ATOM      7  C   UNL     1      43.805   2.449  10.569  0.00  0.00    +0.000 A 
ATOM      8  C   UNL     1      44.875   3.032   9.873  0.00  0.00    +0.000 A 
ATOM      9  C   UNL     1      45.526   4.100  10.514  0.00  0.00    +0.000 A 
BRANCH   8  10
ATOM     10  N   UNL     1      45.230   2.614   8.605  0.00  0.00    +0.000 N 
ATOM     11  C   UNL     1      45.787   1.280   8.353  0.00  0.00    +0.000 C 
ATOM     12  C   UNL     1      47.097   1.419   7.572  0.00  0.00    +0.000 C 
ATOM     13  C   UNL     1      46.927   2.267   6.311  0.00  0.00    +0.000 C 
ATOM     14  C   UNL     1      46.259   3.611   6.612  0.00  0.00    +0.000 C 
ATOM     15  C   UNL     1      44.949   3.412   7.397  0.00  0.00    +0.000 C 
BRANCH  14  16
ATOM     16  O   UNL     1      47.156   4.420   7.381  0.00  0.00    +0.000 OA
ATOM     17  H   UNL     1      47.991   4.436   6.872  0.00  0.00    +0.000 HD
ENDBRANCH  14  16
ENDBRANCH   8  10
ENDBRANCH   1   4
BRANCH   1  18
ATOM     18  C   UNL     1      46.960   5.383  13.306  0.00  0.00    +0.000 C 
BRANCH  18  23
ATOM     19  C   UNL     1      48.667   4.449  18.032  0.00  0.00    +0.000 A 
ATOM     20  C   UNL     1      48.867   5.557  17.217  0.00  0.00    +0.000 A 
ATOM     21  C   UNL     1      48.165   5.653  16.016  0.00  0.00    +0.000 A 
ATOM     22  C   UNL     1      47.289   4.637  15.641  0.00  0.00    +0.000 A 
ATOM     23  N   UNL     1      46.481   4.716  14.526  0.00  0.00    +0.000 N 
ATOM     24  N   UNL     1      47.123   3.537  16.404  0.00  0.00    +0.000 NA
ATOM     25  C   UNL     1      47.814   3.459  17.572  0.00  0.00    +0.000 A 
ATOM     26  H   UNL     1      46.019   3.819  14.388  0.00  0.00    +0.000 HD
BRANCH  19  28
ATOM     27  N   UNL     1      48.542   3.797  20.362  0.00  0.00    +0.000 N 
ATOM     28  C   UNL     1      49.313   4.303  19.351  0.00  0.00    +0.000 C 
ATOM     29  O   UNL     1      50.491   4.578  19.524  0.00  0.00    +0.000 OA
ATOM     30  H   UNL     1      49.022   3.584  21.229  0.00  0.00    +0.000 HD
ATOM     31  H   UNL     1      47.670   3.316  20.190  0.00  0.00    +0.000 HD
ENDBRANCH  19  28
ENDBRANCH  18  23
ENDBRANCH   1  18
TORSDOF 6
ENDMDL
MODEL 9
REMARK VINA RESULT:    -7.212      3.954      7.736
REMARK INTER + INTRA:         -10.629
REMARK INTER:                  -9.538
REMARK INTRA:                  -1.091
REMARK UNBOUND:                -1.098
REMARK  Name = 
REMARK  6 active torsions:
REMARK  status: ('A' for Active; 'I' for Inactive)
REMARK    1  A    between atoms: C_2  and  C_4
REMARK    2  A    between atoms: N_8  and  C_9
REMARK    3  A    between atoms: C_9  and  C_10
REMARK    4  A    between atoms: C_10  and  C_13
REMARK    5  A    between atoms: C_17  and  N_18
REMARK    6  A    between atoms: C_22  and  O_23
REMARK                            x       y       z     vdW  Elec       q    Type
REMARK                         _______ _______ _______ _____ _____    ______ ____
ROOT
ATOM      1  C   UNL     1      49.389   8.427  12.647  0.00  0.00    +0.000 C 
ATOM      2  F   UNL     1      49.941   9.493  11.989  0.00  0.00    +0.000 F 
ATOM      3  F   UNL     1      50.033   7.328  12.149  0.00  0.00    +0.000 F 
ENDROOT
BRANCH   1   4
ATOM      4  C   UNL     1      47.890   8.340  12.428  0.00  0.00    +0.000 A 
ATOM      5  C   UNL     1      47.119   9.492  12.266  0.00  0.00    +0.000 A 
ATOM      6  C   UNL     1      45.752   9.382  12.032  0.00  0.00    +0.000 A 
ATOM      7  C   UNL     1      45.150   8.121  11.945  0.00  0.00    +0.000 A 
ATOM      8  C   UNL     1      45.885   6.935  12.090  0.00  0.00    +0.000 A 
ATOM      9  C   UNL     1      47.257   7.082  12.360  0.00  0.00    +0.000 A 
BRANCH   8  10
ATOM     10  N   UNL     1      45.301   5.694  11.922  0.00  0.00    +0.000 N 
ATOM     11  C   UNL     1      45.022   5.139  10.592  0.00  0.00    +0.000 C 
ATOM     12  C   UNL     1      43.553   4.715  10.521  0.00  0.00    +0.000 C 
ATOM     13  C   UNL     1      43.166   3.787  11.672  0.00  0.00    +0.000 C 
ATOM     14  C   UNL     1      43.560   4.369  13.033  0.00  0.00    +0.000 C 
ATOM     15  C   UNL     1      45.044   4.777  13.049  0.00  0.00    +0.000 C 
BRANCH  14  16
ATOM     16  O   UNL     1      42.747   5.516  13.305  0.00  0.00    +0.000 OA
ATOM     17  H   UNL     1      42.706   6.010  12.462  0.00  0.00    +0.000 HD
ENDBRANCH  14  16
ENDBRANCH   8  10
ENDBRANCH   1   4
BRANCH   1  18
ATOM     18  C   UNL     1      49.731   8.564  14.153  0.00  0.00    +0.000 C 
BRANCH  18  23
ATOM     19  C   UNL     1      48.362   4.567  17.029  0.00  0.00    +0.000 A 
ATOM     20  C   UNL     1      47.635   5.262  16.070  0.00  0.00    +0.000 A 
ATOM     21  C   UNL     1      48.280   6.229  15.298  0.00  0.00    +0.000 A 
ATOM     22  C   UNL     1      49.631   6.495  15.506  0.00  0.00    +0.000 A 
ATOM     23  N   UNL     1      50.357   7.355  14.710  0.00  0.00    +0.000 N 
ATOM     24  N   UNL     1      50.332   5.857  16.466  0.00  0.00    +0.000 NA
ATOM     25  C   UNL     1      49.690   4.918  17.209  0.00  0.00    +0.000 A 
ATOM     26  H   UNL     1      51.281   7.483  15.117  0.00  0.00    +0.000 HD
BRANCH  19  28
ATOM     27  N   UNL     1      48.415   3.169  19.008  0.00  0.00    +0.000 N 
ATOM     28  C   UNL     1      47.777   3.479  17.838  0.00  0.00    +0.000 C 
ATOM     29  O   UNL     1      46.748   2.911  17.503  0.00  0.00    +0.000 OA
ATOM     30  H   UNL     1      47.943   2.510  19.616  0.00  0.00    +0.000 HD
ATOM     31  H   UNL     1      49.092   3.786  19.436  0.00  0.00    +0.000 HD
ENDBRANCH  19  28
ENDBRANCH  18  23
ENDBRANCH   1  18
TORSDOF 6
ENDMDL
