MODEL 1
REMARK VINA RESULT:    -9.813      0.000      0.000
REMARK INTER + INTRA:         -14.274
REMARK INTER:                 -13.255
REMARK INTRA:                  -1.018
REMARK UNBOUND:                -1.018
REMARK  Name = 
REMARK  6 active torsions:
REMARK  status: ('A' for Active; 'I' for Inactive)
REMARK    1  A    between atoms: C_2  and  C_4
REMARK    2  A    between atoms: N_8  and  C_9
REMARK    3  A    between atoms: C_9  and  C_10
REMARK    4  A    between atoms: C_10  and  C_13
REMARK    5  A    between atoms: C_18  and  O_19
REMARK    6  A    between atoms: O_19  and  C_20
REMARK                            x       y       z     vdW  Elec       q    Type
REMARK                         _______ _______ _______ _____ _____    ______ ____
ROOT
ATOM      1  C   UNL     1      43.451   4.712  12.510  0.00  0.00    +0.000 C 
ATOM      2  F   UNL     1      42.468   5.512  13.012  0.00  0.00    +0.000 F 
ATOM      3  F   UNL     1      43.373   3.548  13.221  0.00  0.00    +0.000 F 
ENDROOT
BRANCH   1   4
ATOM      4  C   UNL     1      44.823   5.353  12.618  0.00  0.00    +0.000 A 
ATOM      5  C   UNL     1      45.213   6.377  11.744  0.00  0.00    +0.000 A 
ATOM      6  C   UNL     1      46.516   6.882  11.784  0.00  0.00    +0.000 A 
ATOM      7  C   UNL     1      47.435   6.381  12.710  0.00  0.00    +0.000 A 
ATOM      8 CL   UNL     1      49.047   6.996  12.683  0.00  0.00    +0.000 Cl
ATOM      9  C   UNL     1      47.047   5.389  13.616  0.00  0.00    +0.000 A 
ATOM     10  C   UNL     1      45.750   4.864  13.550  0.00  0.00    +0.000 A 
BRANCH   9  11
ATOM     11  O   UNL     1      47.980   4.869  14.485  0.00  0.00    +0.000 OA
BRANCH  11  12
ATOM     12  C   UNL     1      47.663   4.602  15.753  0.00  0.00    +0.000 A 
ATOM     13  C   UNL     1      47.782   5.275  16.951  0.00  0.00    +0.000 A 
ATOM     14  C   UNL     1      47.216   4.413  17.909  0.00  0.00    +0.000 A 
ATOM     15  N   UNL     1      46.783   3.271  17.372  0.00  0.00    +0.000 NA
ATOM     16  N   UNL     1      47.096   3.397  16.070  0.00  0.00    +0.000 N 
ATOM     17  H   UNL     1      46.868   2.640  15.436  0.00  0.00    +0.000 HD
ENDBRANCH  11  12
ENDBRANCH   9  11
ENDBRANCH   1   4
BRANCH   1  18
ATOM     18  C   UNL     1      43.154   4.409  11.021  0.00  0.00    +0.000 C 
BRANCH  18  23
ATOM     19  C   UNL     1      46.458   2.673   7.490  0.00  0.00    +0.000 A 
ATOM     20  C   UNL     1      45.928   3.941   7.699  0.00  0.00    +0.000 A 
ATOM     21  C   UNL     1      45.000   4.126   8.725  0.00  0.00    +0.000 A 
ATOM     22  C   UNL     1      44.620   3.050   9.524  0.00  0.00    +0.000 A 
ATOM     23  N   UNL     1      43.716   3.153  10.544  0.00  0.00    +0.000 N 
ATOM     24  N   UNL     1      45.116   1.817   9.316  0.00  0.00    +0.000 NA
ATOM     25  C   UNL     1      46.009   1.647   8.304  0.00  0.00    +0.000 A 
ATOM     26  H   UNL     1      43.582   2.298  11.075  0.00  0.00    +0.000 HD
BRANCH  19  28
ATOM     27  N   UNL     1      47.444   3.196   5.336  0.00  0.00    +0.000 N 
ATOM     28  C   UNL     1      47.448   2.382   6.435  0.00  0.00    +0.000 C 
ATOM     29  O   UNL     1      48.261   1.475   6.550  0.00  0.00    +0.000 OA
ATOM     30  H   UNL     1      48.196   3.054   4.672  0.00  0.00    +0.000 HD
ATOM     31  H   UNL     1      46.972   4.089   5.320  0.00  0.00    +0.000 HD
ENDBRANCH  19  28
ENDBRANCH  18  23
ENDBRANCH   1  18
TORSDOF 6
ENDMDL
MODEL 2
REMARK VINA RESULT:    -9.130      1.107      1.203
REMARK INTER + INTRA:         -13.351
REMARK INTER:                 -12.222
REMARK INTRA:                  -1.129
REMARK UNBOUND:                -1.018
REMARK  Name = 
REMARK  6 active torsions:
REMARK  status: ('A' for Active; 'I' for Inactive)
REMARK    1  A    between atoms: C_2  and  C_4
REMARK    2  A    between atoms: N_8  and  C_9
REMARK    3  A    between atoms: C_9  and  C_10
REMARK    4  A    between atoms: C_10  and  C_13
REMARK    5  A    between atoms: C_18  and  O_19
REMARK    6  A    between atoms: O_19  and  C_20
REMARK                            x       y       z     vdW  Elec       q    Type
REMARK                         _______ _______ _______ _____ _____    ______ ____
ROOT
ATOM      1  C   UNL     1      43.761   4.787  12.620  0.00  0.00    +0.000 C 
ATOM      2  F   UNL     1      42.805   5.550  13.223  0.00  0.00    +0.000 F 
ATOM      3  F   UNL     1      43.728   3.584  13.265  0.00  0.00    +0.000 F 
ENDROOT
BRANCH   1   4
ATOM      4  C   UNL     1      45.134   5.431  12.686  0.00  0.00    +0.000 A 
ATOM      5  C   UNL     1      45.574   6.301  11.679  0.00  0.00    +0.000 A 
ATOM      6  C   UNL     1      46.880   6.798  11.696  0.00  0.00    +0.000 A 
ATOM      7  C   UNL     1      47.752   6.447  12.730  0.00  0.00    +0.000 A 
ATOM      8 CL   UNL     1      49.371   7.042  12.678  0.00  0.00    +0.000 Cl
ATOM      9  C   UNL     1      47.313   5.614  13.764  0.00  0.00    +0.000 A 
ATOM     10  C   UNL     1      46.014   5.091  13.724  0.00  0.00    +0.000 A 
BRANCH   9  11
ATOM     11  O   UNL     1      48.201   5.235  14.745  0.00  0.00    +0.000 OA
BRANCH  11  12
ATOM     12  C   UNL     1      48.364   5.971  15.846  0.00  0.00    +0.000 A 
ATOM     13  C   UNL     1      48.939   7.194  16.125  0.00  0.00    +0.000 A 
ATOM     14  C   UNL     1      48.736   7.383  17.505  0.00  0.00    +0.000 A 
ATOM     15  N   UNL     1      48.097   6.356  18.070  0.00  0.00    +0.000 NA
ATOM     16  N   UNL     1      47.913   5.500  17.049  0.00  0.00    +0.000 N 
ATOM     17  H   UNL     1      47.442   4.621  17.227  0.00  0.00    +0.000 HD
ENDBRANCH  11  12
ENDBRANCH   9  11
ENDBRANCH   1   4
BRANCH   1  18
ATOM     18  C   UNL     1      43.379   4.569  11.135  0.00  0.00    +0.000 C 
BRANCH  18  23
ATOM     19  C   UNL     1      46.505   2.683   7.521  0.00  0.00    +0.000 A 
ATOM     20  C   UNL     1      46.112   3.987   7.798  0.00  0.00    +0.000 A 
ATOM     21  C   UNL     1      45.201   4.215   8.830  0.00  0.00    +0.000 A 
ATOM     22  C   UNL     1      44.703   3.144   9.568  0.00  0.00    +0.000 A 
ATOM     23  N   UNL     1      43.807   3.287  10.591  0.00  0.00    +0.000 N 
ATOM     24  N   UNL     1      45.066   1.878   9.295  0.00  0.00    +0.000 NA
ATOM     25  C   UNL     1      45.943   1.668   8.277  0.00  0.00    +0.000 A 
ATOM     26  H   UNL     1      43.578   2.424  11.074  0.00  0.00    +0.000 HD
BRANCH  19  28
ATOM     27  N   UNL     1      47.314   2.984   5.253  0.00  0.00    +0.000 N 
ATOM     28  C   UNL     1      47.466   2.345   6.452  0.00  0.00    +0.000 C 
ATOM     29  O   UNL     1      48.381   1.555   6.639  0.00  0.00    +0.000 OA
ATOM     30  H   UNL     1      48.042   2.825   4.567  0.00  0.00    +0.000 HD
ATOM     31  H   UNL     1      46.744   3.811   5.144  0.00  0.00    +0.000 HD
ENDBRANCH  19  28
ENDBRANCH  18  23
ENDBRANCH   1  18
TORSDOF 6
ENDMDL
MODEL 3
REMARK VINA RESULT:    -9.000      3.016      4.516
REMARK INTER + INTRA:         -13.175
REMARK INTER:                 -11.957
REMARK INTRA:                  -1.218
REMARK UNBOUND:                -1.018
REMARK  Name = 
REMARK  6 active torsions:
REMARK  status: ('A' for Active; 'I' for Inactive)
REMARK    1  A    between atoms: C_2  and  C_4
REMARK    2  A    between atoms: N_8  and  C_9
REMARK    3  A    between atoms: C_9  and  C_10
REMARK    4  A    between atoms: C_10  and  C_13
REMARK    5  A    between atoms: C_18  and  O_19
REMARK    6  A    between atoms: O_19  and  C_20
REMARK                            x       y       z     vdW  Elec       q    Type
REMARK                         _______ _______ _______ _____ _____    ______ ____
ROOT
ATOM      1  C   UNL     1      43.926   5.027  12.436  0.00  0.00    +0.000 C 
ATOM      2  F   UNL     1      42.924   5.466  13.250  0.00  0.00    +0.000 F 
ATOM      3  F   UNL     1      44.415   3.901  13.033  0.00  0.00    +0.000 F 
ENDROOT
BRANCH   1   4
ATOM      4  C   UNL     1      45.003   6.077  12.232  0.00  0.00    +0.000 A 
ATOM      5  C   UNL     1      46.357   5.722  12.175  0.00  0.00    +0.000 A 
ATOM      6  C   UNL     1      47.344   6.709  12.098  0.00  0.00    +0.000 A 
ATOM      7  C   UNL     1      46.985   8.059  12.057  0.00  0.00    +0.000 A 
ATOM      8 CL   UNL     1      48.240   9.242  12.018  0.00  0.00    +0.000 Cl
ATOM      9  C   UNL     1      45.636   8.426  12.070  0.00  0.00    +0.000 A 
ATOM     10  C   UNL     1      44.652   7.434  12.181  0.00  0.00    +0.000 A 
BRANCH   9  11
ATOM     11  O   UNL     1      45.301   9.761  12.083  0.00  0.00    +0.000 OA
BRANCH  11  12
ATOM     12  C   UNL     1      44.218  10.205  11.444  0.00  0.00    +0.000 A 
ATOM     13  C   UNL     1      43.843  10.320  10.121  0.00  0.00    +0.000 A 
ATOM     14  C   UNL     1      42.541  10.851  10.158  0.00  0.00    +0.000 A 
ATOM     15  N   UNL     1      42.118  11.076  11.404  0.00  0.00    +0.000 NA
ATOM     16  N   UNL     1      43.166  10.706  12.162  0.00  0.00    +0.000 N 
ATOM     17  H   UNL     1      43.093  10.787  13.169  0.00  0.00    +0.000 HD
ENDBRANCH  11  12
ENDBRANCH   9  11
ENDBRANCH   1   4
BRANCH   1  18
ATOM     18  C   UNL     1      43.332   4.643  11.058  0.00  0.00    +0.000 C 
BRANCH  18  23
ATOM     19  C   UNL     1      46.508   2.706   7.515  0.00  0.00    +0.000 A 
ATOM     20  C   UNL     1      46.095   4.011   7.754  0.00  0.00    +0.000 A 
ATOM     21  C   UNL     1      45.174   4.253   8.774  0.00  0.00    +0.000 A 
ATOM     22  C   UNL     1      44.687   3.195   9.539  0.00  0.00    +0.000 A 
ATOM     23  N   UNL     1      43.783   3.354  10.552  0.00  0.00    +0.000 N 
ATOM     24  N   UNL     1      45.071   1.928   9.302  0.00  0.00    +0.000 NA
ATOM     25  C   UNL     1      45.957   1.704   8.296  0.00  0.00    +0.000 A 
ATOM     26  H   UNL     1      43.564   2.501  11.057  0.00  0.00    +0.000 HD
BRANCH  19  28
ATOM     27  N   UNL     1      47.493   3.132   5.339  0.00  0.00    +0.000 N 
ATOM     28  C   UNL     1      47.481   2.353   6.462  0.00  0.00    +0.000 C 
ATOM     29  O   UNL     1      48.269   1.427   6.601  0.00  0.00    +0.000 OA
ATOM     30  H   UNL     1      48.235   2.948   4.674  0.00  0.00    +0.000 HD
ATOM     31  H   UNL     1      47.047   4.038   5.298  0.00  0.00    +0.000 HD
ENDBRANCH  19  28
ENDBRANCH  18  23
ENDBRANCH   1  18
TORSDOF 6
ENDMDL
MODEL 4
REMARK VINA RESULT:    -8.474      2.895      3.936
REMARK INTER + INTRA:         -12.464
REMARK INTER:                 -11.494
REMARK INTRA:                  -0.971
REMARK UNBOUND:                -1.018
REMARK  Name = 
REMARK  6 active torsions:
REMARK  status: ('A' for Active; 'I' for Inactive)
REMARK    1  A    between atoms: C_2  and  C_4
REMARK    2  A    between atoms: N_8  and  C_9
REMARK    3  A    between atoms: C_9  and  C_10
REMARK    4  A    between atoms: C_10  and  C_13
REMARK    5  A    between atoms: C_18  and  O_19
REMARK    6  A    between atoms: O_19  and  C_20
REMARK                            x       y       z     vdW  Elec       q    Type
REMARK                         _______ _______ _______ _____ _____    ______ ____
ROOT
ATOM      1  C   UNL     1      43.303   5.655  12.134  0.00  0.00    +0.000 C 
ATOM      2  F   UNL     1      42.661   6.794  11.747  0.00  0.00    +0.000 F 
ATOM      3  F   UNL     1      42.554   5.142  13.154  0.00  0.00    +0.000 F 
ENDROOT
BRANCH   1   4
ATOM      4  C   UNL     1      44.737   5.918  12.557  0.00  0.00    +0.000 A 
ATOM      5  C   UNL     1      45.621   4.861  12.811  0.00  0.00    +0.000 A 
ATOM      6  C   UNL     1      46.903   5.116  13.305  0.00  0.00    +0.000 A 
ATOM      7  C   UNL     1      47.320   6.431  13.531  0.00  0.00    +0.000 A 
ATOM      8 CL   UNL     1      48.891   6.692  14.194  0.00  0.00    +0.000 Cl
ATOM      9  C   UNL     1      46.463   7.497  13.241  0.00  0.00    +0.000 A 
ATOM     10  C   UNL     1      45.167   7.234  12.778  0.00  0.00    +0.000 A 
BRANCH   9  11
ATOM     11  O   UNL     1      46.870   8.783  13.520  0.00  0.00    +0.000 OA
BRANCH  11  12
ATOM     12  C   UNL     1      47.257   9.607  12.546  0.00  0.00    +0.000 A 
ATOM     13  C   UNL     1      46.662  10.634  11.843  0.00  0.00    +0.000 A 
ATOM     14  C   UNL     1      47.660  11.098  10.965  0.00  0.00    +0.000 A 
ATOM     15  N   UNL     1      48.799  10.413  11.083  0.00  0.00    +0.000 NA
ATOM     16  N   UNL     1      48.517   9.494  12.025  0.00  0.00    +0.000 N 
ATOM     17  H   UNL     1      49.238   8.835  12.295  0.00  0.00    +0.000 HD
ENDBRANCH  11  12
ENDBRANCH   9  11
ENDBRANCH   1   4
BRANCH   1  18
ATOM     18  C   UNL     1      43.303   4.645  10.959  0.00  0.00    +0.000 C 
BRANCH  18  23
ATOM     19  C   UNL     1      46.458   2.322   7.636  0.00  0.00    +0.000 A 
ATOM     20  C   UNL     1      45.739   1.821   8.714  0.00  0.00    +0.000 A 
ATOM     21  C   UNL     1      44.981   2.700   9.489  0.00  0.00    +0.000 A 
ATOM     22  C   UNL     1      44.949   4.057   9.175  0.00  0.00    +0.000 A 
ATOM     23  N   UNL     1      44.233   4.977   9.887  0.00  0.00    +0.000 N 
ATOM     24  N   UNL     1      45.655   4.551   8.143  0.00  0.00    +0.000 NA
ATOM     25  C   UNL     1      46.402   3.687   7.404  0.00  0.00    +0.000 A 
ATOM     26  H   UNL     1      44.259   5.918   9.506  0.00  0.00    +0.000 HD
BRANCH  19  28
ATOM     27  N   UNL     1      48.303   2.080   6.079  0.00  0.00    +0.000 N 
ATOM     28  C   UNL     1      47.284   1.471   6.757  0.00  0.00    +0.000 C 
ATOM     29  O   UNL     1      47.090   0.266   6.664  0.00  0.00    +0.000 OA
ATOM     30  H   UNL     1      48.927   1.468   5.566  0.00  0.00    +0.000 HD
ATOM     31  H   UNL     1      48.647   2.998   6.321  0.00  0.00    +0.000 HD
ENDBRANCH  19  28
ENDBRANCH  18  23
ENDBRANCH   1  18
TORSDOF 6
ENDMDL
MODEL 5
REMARK VINA RESULT:    -8.146      2.847      3.242
REMARK INTER + INTRA:         -12.021
REMARK INTER:                 -10.957
REMARK INTRA:                  -1.064
REMARK UNBOUND:                -1.018
REMARK  Name = 
REMARK  6 active torsions:
REMARK  status: ('A' for Active; 'I' for Inactive)
REMARK    1  A    between atoms: C_2  and  C_4
REMARK    2  A    between atoms: N_8  and  C_9
REMARK    3  A    between atoms: C_9  and  C_10
REMARK    4  A    between atoms: C_10  and  C_13
REMARK    5  A    between atoms: C_18  and  O_19
REMARK    6  A    between atoms: O_19  and  C_20
REMARK                            x       y       z     vdW  Elec       q    Type
REMARK                         _______ _______ _______ _____ _____    ______ ____
ROOT
ATOM      1  C   UNL     1      44.368   4.250  12.376  0.00  0.00    +0.000 C 
ATOM      2  F   UNL     1      43.676   3.905  13.499  0.00  0.00    +0.000 F 
ATOM      3  F   UNL     1      45.547   3.564  12.448  0.00  0.00    +0.000 F 
ENDROOT
BRANCH   1   4
ATOM      4  C   UNL     1      44.587   5.749  12.274  0.00  0.00    +0.000 A 
ATOM      5  C   UNL     1      43.813   6.535  11.410  0.00  0.00    +0.000 A 
ATOM      6  C   UNL     1      44.098   7.894  11.246  0.00  0.00    +0.000 A 
ATOM      7  C   UNL     1      45.147   8.482  11.958  0.00  0.00    +0.000 A 
ATOM      8 CL   UNL     1      45.495  10.149  11.680  0.00  0.00    +0.000 Cl
ATOM      9  C   UNL     1      45.899   7.719  12.855  0.00  0.00    +0.000 A 
ATOM     10  C   UNL     1      45.631   6.351  12.991  0.00  0.00    +0.000 A 
BRANCH   9  11
ATOM     11  O   UNL     1      46.963   8.302  13.508  0.00  0.00    +0.000 OA
BRANCH  11  12
ATOM     12  C   UNL     1      48.212   8.135  13.072  0.00  0.00    +0.000 A 
ATOM     13  C   UNL     1      49.394   7.703  13.638  0.00  0.00    +0.000 A 
ATOM     14  C   UNL     1      50.335   7.749  12.593  0.00  0.00    +0.000 A 
ATOM     15  N   UNL     1      49.805   8.192  11.451  0.00  0.00    +0.000 NA
ATOM     16  N   UNL     1      48.525   8.449  11.777  0.00  0.00    +0.000 N 
ATOM     17  H   UNL     1      47.902   8.809  11.064  0.00  0.00    +0.000 HD
ENDBRANCH  11  12
ENDBRANCH   9  11
ENDBRANCH   1   4
BRANCH   1  18
ATOM     18  C   UNL     1      43.588   3.771  11.127  0.00  0.00    +0.000 C 
BRANCH  18  23
ATOM     19  C   UNL     1      46.640   2.475   7.202  0.00  0.00    +0.000 A 
ATOM     20  C   UNL     1      46.093   3.699   7.567  0.00  0.00    +0.000 A 
ATOM     21  C   UNL     1      45.247   3.759   8.676  0.00  0.00    +0.000 A 
ATOM     22  C   UNL     1      44.966   2.603   9.400  0.00  0.00    +0.000 A 
ATOM     23  N   UNL     1      44.146   2.583  10.494  0.00  0.00    +0.000 N 
ATOM     24  N   UNL     1      45.479   1.413   9.043  0.00  0.00    +0.000 NA
ATOM     25  C   UNL     1      46.290   1.365   7.952  0.00  0.00    +0.000 A 
ATOM     26  H   UNL     1      44.080   1.680  10.954  0.00  0.00    +0.000 HD
BRANCH  19  28
ATOM     27  N   UNL     1      47.445   3.234   5.043  0.00  0.00    +0.000 N 
ATOM     28  C   UNL     1      47.548   2.314   6.049  0.00  0.00    +0.000 C 
ATOM     29  O   UNL     1      48.382   1.420   6.009  0.00  0.00    +0.000 OA
ATOM     30  H   UNL     1      48.144   3.177   4.312  0.00  0.00    +0.000 HD
ATOM     31  H   UNL     1      46.960   4.113   5.154  0.00  0.00    +0.000 HD
ENDBRANCH  19  28
ENDBRANCH  18  23
ENDBRANCH   1  18
TORSDOF 6
ENDMDL
MODEL 6
REMARK VINA RESULT:    -7.582      3.089      8.391
REMARK INTER + INTRA:         -11.260
REMARK INTER:                 -10.210
REMARK INTRA:                  -1.050
REMARK UNBOUND:                -1.018
REMARK  Name = 
REMARK  6 active torsions:
REMARK  status: ('A' for Active; 'I' for Inactive)
REMARK    1  A    between atoms: C_2  and  C_4
REMARK    2  A    between atoms: N_8  and  C_9
REMARK    3  A    between atoms: C_9  and  C_10
REMARK    4  A    between atoms: C_10  and  C_13
REMARK    5  A    between atoms: C_18  and  O_19
REMARK    6  A    between atoms: O_19  and  C_20
REMARK                            x       y       z     vdW  Elec       q    Type
REMARK                         _______ _______ _______ _____ _____    ______ ____
ROOT
ATOM      1  C   UNL     1      47.221   6.928  12.305  0.00  0.00    +0.000 C 
ATOM      2  F   UNL     1      46.775   8.060  12.920  0.00  0.00    +0.000 F 
ATOM      3  F   UNL     1      47.727   7.339  11.105  0.00  0.00    +0.000 F 
ENDROOT
BRANCH   1   4
ATOM      4  C   UNL     1      46.121   5.895  12.134  0.00  0.00    +0.000 A 
ATOM      5  C   UNL     1      45.537   5.272  13.246  0.00  0.00    +0.000 A 
ATOM      6  C   UNL     1      44.605   4.245  13.070  0.00  0.00    +0.000 A 
ATOM      7  C   UNL     1      44.233   3.846  11.783  0.00  0.00    +0.000 A 
ATOM      8 CL   UNL     1      43.121   2.538  11.617  0.00  0.00    +0.000 Cl
ATOM      9  C   UNL     1      44.776   4.489  10.667  0.00  0.00    +0.000 A 
ATOM     10  C   UNL     1      45.735   5.494  10.847  0.00  0.00    +0.000 A 
BRANCH   9  11
ATOM     11  O   UNL     1      44.440   4.048   9.406  0.00  0.00    +0.000 OA
BRANCH  11  12
ATOM     12  C   UNL     1      45.250   3.237   8.723  0.00  0.00    +0.000 A 
ATOM     13  C   UNL     1      46.111   3.391   7.657  0.00  0.00    +0.000 A 
ATOM     14  C   UNL     1      46.676   2.116   7.460  0.00  0.00    +0.000 A 
ATOM     15  N   UNL     1      46.202   1.213   8.321  0.00  0.00    +0.000 NA
ATOM     16  N   UNL     1      45.316   1.911   9.053  0.00  0.00    +0.000 N 
ATOM     17  H   UNL     1      44.807   1.435   9.789  0.00  0.00    +0.000 HD
ENDBRANCH  11  12
ENDBRANCH   9  11
ENDBRANCH   1   4
BRANCH   1  18
ATOM     18  C   UNL     1      48.366   6.308  13.143  0.00  0.00    +0.000 C 
BRANCH  18  23
ATOM     19  C   UNL     1      48.393   5.385  18.197  0.00  0.00    +0.000 A 
ATOM     20  C   UNL     1      47.962   4.606  17.129  0.00  0.00    +0.000 A 
ATOM     21  C   UNL     1      48.031   5.131  15.838  0.00  0.00    +0.000 A 
ATOM     22  C   UNL     1      48.530   6.416  15.633  0.00  0.00    +0.000 A 
ATOM     23  N   UNL     1      48.626   6.997  14.400  0.00  0.00    +0.000 N 
ATOM     24  N   UNL     1      48.933   7.180  16.664  0.00  0.00    +0.000 NA
ATOM     25  C   UNL     1      48.848   6.663  17.919  0.00  0.00    +0.000 A 
ATOM     26  H   UNL     1      49.062   7.914  14.400  0.00  0.00    +0.000 HD
BRANCH  19  28
ATOM     27  N   UNL     1      48.484   3.568  19.803  0.00  0.00    +0.000 N 
ATOM     28  C   UNL     1      48.363   4.914  19.596  0.00  0.00    +0.000 C 
ATOM     29  O   UNL     1      48.271   5.695  20.533  0.00  0.00    +0.000 OA
ATOM     30  H   UNL     1      48.571   3.270  20.767  0.00  0.00    +0.000 HD
ATOM     31  H   UNL     1      48.812   2.934  19.088  0.00  0.00    +0.000 HD
ENDBRANCH  19  28
ENDBRANCH  18  23
ENDBRANCH   1  18
TORSDOF 6
ENDMDL
MODEL 7
REMARK VINA RESULT:    -7.425      2.912      8.176
REMARK INTER + INTRA:         -11.048
REMARK INTER:                 -10.716
REMARK INTRA:                  -0.332
REMARK UNBOUND:                -1.018
REMARK  Name = 
REMARK  6 active torsions:
REMARK  status: ('A' for Active; 'I' for Inactive)
REMARK    1  A    between atoms: C_2  and  C_4
REMARK    2  A    between atoms: N_8  and  C_9
REMARK    3  A    between atoms: C_9  and  C_10
REMARK    4  A    between atoms: C_10  and  C_13
REMARK    5  A    between atoms: C_18  and  O_19
REMARK    6  A    between atoms: O_19  and  C_20
REMARK                            x       y       z     vdW  Elec       q    Type
REMARK                         _______ _______ _______ _____ _____    ______ ____
ROOT
ATOM      1  C   UNL     1      46.112   6.391  11.613  0.00  0.00    +0.000 C 
ATOM      2  F   UNL     1      45.476   7.538  11.242  0.00  0.00    +0.000 F 
ATOM      3  F   UNL     1      47.435   6.606  11.354  0.00  0.00    +0.000 F 
ENDROOT
BRANCH   1   4
ATOM      4  C   UNL     1      45.579   5.174  10.877  0.00  0.00    +0.000 A 
ATOM      5  C   UNL     1      45.109   4.055  11.578  0.00  0.00    +0.000 A 
ATOM      6  C   UNL     1      44.724   2.901  10.888  0.00  0.00    +0.000 A 
ATOM      7  C   UNL     1      44.788   2.863   9.492  0.00  0.00    +0.000 A 
ATOM      8 CL   UNL     1      44.355   1.398   8.690  0.00  0.00    +0.000 Cl
ATOM      9  C   UNL     1      45.215   3.988   8.780  0.00  0.00    +0.000 A 
ATOM     10  C   UNL     1      45.631   5.129   9.477  0.00  0.00    +0.000 A 
BRANCH   9  11
ATOM     11  O   UNL     1      45.322   3.915   7.409  0.00  0.00    +0.000 OA
BRANCH  11  12
ATOM     12  C   UNL     1      46.325   3.249   6.833  0.00  0.00    +0.000 A 
ATOM     13  C   UNL     1      46.728   3.027   5.532  0.00  0.00    +0.000 A 
ATOM     14  C   UNL     1      47.897   2.250   5.644  0.00  0.00    +0.000 A 
ATOM     15  N   UNL     1      48.209   1.980   6.913  0.00  0.00    +0.000 NA
ATOM     16  N   UNL     1      47.222   2.570   7.611  0.00  0.00    +0.000 N 
ATOM     17  H   UNL     1      47.231   2.503   8.622  0.00  0.00    +0.000 HD
ENDBRANCH  11  12
ENDBRANCH   9  11
ENDBRANCH   1   4
BRANCH   1  18
ATOM     18  C   UNL     1      45.930   6.175  13.136  0.00  0.00    +0.000 C 
BRANCH  18  23
ATOM     19  C   UNL     1      48.723   4.257  16.998  0.00  0.00    +0.000 A 
ATOM     20  C   UNL     1      47.509   3.849  16.460  0.00  0.00    +0.000 A 
ATOM     21  C   UNL     1      46.944   4.593  15.423  0.00  0.00    +0.000 A 
ATOM     22  C   UNL     1      47.598   5.724  14.940  0.00  0.00    +0.000 A 
ATOM     23  N   UNL     1      47.107   6.503  13.930  0.00  0.00    +0.000 N 
ATOM     24  N   UNL     1      48.765   6.134  15.468  0.00  0.00    +0.000 NA
ATOM     25  C   UNL     1      49.298   5.409  16.487  0.00  0.00    +0.000 A 
ATOM     26  H   UNL     1      47.721   7.260  13.646  0.00  0.00    +0.000 HD
BRANCH  19  28
ATOM     27  N   UNL     1      48.635   3.177  19.169  0.00  0.00    +0.000 N 
ATOM     28  C   UNL     1      49.399   3.532  18.092  0.00  0.00    +0.000 C 
ATOM     29  O   UNL     1      50.582   3.229  18.026  0.00  0.00    +0.000 OA
ATOM     30  H   UNL     1      49.083   2.588  19.860  0.00  0.00    +0.000 HD
ATOM     31  H   UNL     1      47.625   3.182  19.147  0.00  0.00    +0.000 HD
ENDBRANCH  19  28
ENDBRANCH  18  23
ENDBRANCH   1  18
TORSDOF 6
ENDMDL
MODEL 8
REMARK VINA RESULT:    -7.367      3.453      4.895
REMARK INTER + INTRA:         -10.970
REMARK INTER:                  -9.904
REMARK INTRA:                  -1.065
REMARK UNBOUND:                -1.018
REMARK  Name = 
REMARK  6 active torsions:
REMARK  status: ('A' for Active; 'I' for Inactive)
REMARK    1  A    between atoms: C_2  and  C_4
REMARK    2  A    between atoms: N_8  and  C_9
REMARK    3  A    between atoms: C_9  and  C_10
REMARK    4  A    between atoms: C_10  and  C_13
REMARK    5  A    between atoms: C_18  and  O_19
REMARK    6  A    between atoms: O_19  and  C_20
REMARK                            x       y       z     vdW  Elec       q    Type
REMARK                         _______ _______ _______ _____ _____    ______ ____
ROOT
ATOM      1  C   UNL     1      48.204   8.480  12.755  0.00  0.00    +0.000 C 
ATOM      2  F   UNL     1      48.645   7.449  11.979  0.00  0.00    +0.000 F 
ATOM      3  F   UNL     1      48.913   9.573  12.348  0.00  0.00    +0.000 F 
ENDROOT
BRANCH   1   4
ATOM      4  C   UNL     1      48.387   8.203  14.237  0.00  0.00    +0.000 A 
ATOM      5  C   UNL     1      48.241   9.224  15.186  0.00  0.00    +0.000 A 
ATOM      6  C   UNL     1      48.520   8.980  16.534  0.00  0.00    +0.000 A 
ATOM      7  C   UNL     1      48.929   7.708  16.947  0.00  0.00    +0.000 A 
ATOM      8 CL   UNL     1      49.315   7.471  18.612  0.00  0.00    +0.000 Cl
ATOM      9  C   UNL     1      49.038   6.671  16.017  0.00  0.00    +0.000 A 
ATOM     10  C   UNL     1      48.789   6.929  14.663  0.00  0.00    +0.000 A 
BRANCH   9  11
ATOM     11  O   UNL     1      49.493   5.439  16.433  0.00  0.00    +0.000 OA
BRANCH  11  12
ATOM     12  C   UNL     1      48.644   4.493  16.836  0.00  0.00    +0.000 A 
ATOM     13  C   UNL     1      48.753   3.339  17.584  0.00  0.00    +0.000 A 
ATOM     14  C   UNL     1      47.445   2.822  17.646  0.00  0.00    +0.000 A 
ATOM     15  N   UNL     1      46.569   3.575  16.977  0.00  0.00    +0.000 NA
ATOM     16  N   UNL     1      47.328   4.563  16.469  0.00  0.00    +0.000 N 
ATOM     17  H   UNL     1      46.885   5.278  15.904  0.00  0.00    +0.000 HD
ENDBRANCH  11  12
ENDBRANCH   9  11
ENDBRANCH   1   4
BRANCH   1  18
ATOM     18  C   UNL     1      46.701   8.725  12.473  0.00  0.00    +0.000 C 
BRANCH  18  23
ATOM     19  C   UNL     1      44.456   4.212  11.484  0.00  0.00    +0.000 A 
ATOM     20  C   UNL     1      45.182   5.068  10.666  0.00  0.00    +0.000 A 
ATOM     21  C   UNL     1      45.649   6.274  11.192  0.00  0.00    +0.000 A 
ATOM     22  C   UNL     1      45.388   6.601  12.521  0.00  0.00    +0.000 A 
ATOM     23  N   UNL     1      45.810   7.762  13.106  0.00  0.00    +0.000 N 
ATOM     24  N   UNL     1      44.672   5.784  13.314  0.00  0.00    +0.000 NA
ATOM     25  C   UNL     1      44.210   4.619  12.785  0.00  0.00    +0.000 A 
ATOM     26  H   UNL     1      45.595   7.837  14.095  0.00  0.00    +0.000 HD
BRANCH  19  28
ATOM     27  N   UNL     1      44.614   2.283  10.020  0.00  0.00    +0.000 N 
ATOM     28  C   UNL     1      43.926   2.915  11.018  0.00  0.00    +0.000 C 
ATOM     29  O   UNL     1      42.935   2.407  11.526  0.00  0.00    +0.000 OA
ATOM     30  H   UNL     1      44.305   1.348   9.786  0.00  0.00    +0.000 HD
ATOM     31  H   UNL     1      45.556   2.540   9.760  0.00  0.00    +0.000 HD
ENDBRANCH  19  28
ENDBRANCH  18  23
ENDBRANCH   1  18
TORSDOF 6
ENDMDL
MODEL 9
REMARK VINA RESULT:    -7.340      3.657      5.324
REMARK INTER + INTRA:         -10.932
REMARK INTER:                  -9.763
REMARK INTRA:                  -1.170
REMARK UNBOUND:                -1.018
REMARK  Name = 
REMARK  6 active torsions:
REMARK  status: ('A' for Active; 'I' for Inactive)
REMARK    1  A    between atoms: C_2  and  C_4
REMARK    2  A    between atoms: N_8  and  C_9
REMARK    3  A    between atoms: C_9  and  C_10
REMARK    4  A    between atoms: C_10  and  C_13
REMARK    5  A    between atoms: C_18  and  O_19
REMARK    6  A    between atoms: O_19  and  C_20
REMARK                            x       y       z     vdW  Elec       q    Type
REMARK                         _______ _______ _______ _____ _____    ______ ____
ROOT
ATOM      1  C   UNL     1      49.047   7.662  14.052  0.00  0.00    +0.000 C 
ATOM      2  F   UNL     1      49.302   6.525  13.345  0.00  0.00    +0.000 F 
ATOM      3  F   UNL     1      50.146   8.454  13.880  0.00  0.00    +0.000 F 
ENDROOT
BRANCH   1   4
ATOM      4  C   UNL     1      48.774   7.378  15.518  0.00  0.00    +0.000 A 
ATOM      5  C   UNL     1      48.845   8.397  16.477  0.00  0.00    +0.000 A 
ATOM      6  C   UNL     1      48.700   8.100  17.836  0.00  0.00    +0.000 A 
ATOM      7  C   UNL     1      48.463   6.785  18.245  0.00  0.00    +0.000 A 
ATOM      8 CL   UNL     1      48.347   6.460  19.936  0.00  0.00    +0.000 Cl
ATOM      9  C   UNL     1      48.347   5.766  17.296  0.00  0.00    +0.000 A 
ATOM     10  C   UNL     1      48.527   6.063  15.939  0.00  0.00    +0.000 A 
BRANCH   9  11
ATOM     11  O   UNL     1      48.167   4.468  17.720  0.00  0.00    +0.000 OA
BRANCH  11  12
ATOM     12  C   UNL     1      49.023   3.506  17.371  0.00  0.00    +0.000 A 
ATOM     13  C   UNL     1      50.334   3.207  17.678  0.00  0.00    +0.000 A 
ATOM     14  C   UNL     1      50.610   2.021  16.972  0.00  0.00    +0.000 A 
ATOM     15  N   UNL     1      49.566   1.601  16.256  0.00  0.00    +0.000 NA
ATOM     16  N   UNL     1      48.628   2.536  16.489  0.00  0.00    +0.000 N 
ATOM     17  H   UNL     1      47.723   2.442  16.044  0.00  0.00    +0.000 HD
ENDBRANCH  11  12
ENDBRANCH   9  11
ENDBRANCH   1   4
BRANCH   1  18
ATOM     18  C   UNL     1      47.816   8.378  13.442  0.00  0.00    +0.000 C 
BRANCH  18  23
ATOM     19  C   UNL     1      44.737   5.086  10.977  0.00  0.00    +0.000 A 
ATOM     20  C   UNL     1      45.862   5.779  10.547  0.00  0.00    +0.000 A 
ATOM     21  C   UNL     1      46.493   6.659  11.429  0.00  0.00    +0.000 A 
ATOM     22  C   UNL     1      45.996   6.827  12.719  0.00  0.00    +0.000 A 
ATOM     23  N   UNL     1      46.557   7.671  13.637  0.00  0.00    +0.000 N 
ATOM     24  N   UNL     1      44.898   6.172  13.136  0.00  0.00    +0.000 NA
ATOM     25  C   UNL     1      44.283   5.329  12.263  0.00  0.00    +0.000 A 
ATOM     26  H   UNL     1      46.121   7.647  14.553  0.00  0.00    +0.000 HD
BRANCH  19  28
ATOM     27  N   UNL     1      44.056   4.346   8.769  0.00  0.00    +0.000 N 
ATOM     28  C   UNL     1      44.006   4.133  10.119  0.00  0.00    +0.000 C 
ATOM     29  O   UNL     1      43.412   3.172  10.588  0.00  0.00    +0.000 OA
ATOM     30  H   UNL     1      43.644   3.626   8.187  0.00  0.00    +0.000 HD
ATOM     31  H   UNL     1      44.731   4.962   8.338  0.00  0.00    +0.000 HD
ENDBRANCH  19  28
ENDBRANCH  18  23
ENDBRANCH   1  18
TORSDOF 6
ENDMDL
