MODEL 1
REMARK VINA RESULT:    -9.541      0.000      0.000
REMARK INTER + INTRA:         -11.809
REMARK INTER:                 -11.772
REMARK INTRA:                  -0.037
REMARK UNBOUND:                -0.037
REMARK  Name = 
REMARK  4 active torsions:
REMARK  status: ('A' for Active; 'I' for Inactive)
REMARK    1  A    between atoms: C_2  and  C_4
REMARK    2  A    between atoms: N_8  and  C_9
REMARK    3  A    between atoms: C_9  and  C_10
REMARK    4  A    between atoms: C_12  and  C_13
REMARK                            x       y       z     vdW  Elec       q    Type
REMARK                         _______ _______ _______ _____ _____    ______ ____
ROOT
ATOM      1  C   UNL     1      43.889   4.726  11.599  0.00  0.00    +0.000 C 
ATOM      2  C   UNL     1      42.557   5.151  12.192  0.00  0.00    +0.000 C 
ATOM      3  C   UNL     1      43.086   5.874  10.997  0.00  0.00    +0.000 C 
ENDROOT
BRANCH   1   8
ATOM      4  C   UNL     1      46.418   2.733   7.580  0.00  0.00    +0.000 A 
ATOM      5  C   UNL     1      46.045   4.049   7.841  0.00  0.00    +0.000 A 
ATOM      6  C   UNL     1      45.208   4.316   8.928  0.00  0.00    +0.000 A 
ATOM      7  C   UNL     1      44.775   3.268   9.738  0.00  0.00    +0.000 A 
ATOM      8  N   UNL     1      43.958   3.456  10.854  0.00  0.00    +0.000 N 
ATOM      9  N   UNL     1      45.109   1.987   9.476  0.00  0.00    +0.000 NA
ATOM     10  C   UNL     1      45.909   1.744   8.406  0.00  0.00    +0.000 A 
ATOM     11  H   UNL     1      43.887   2.572  11.348  0.00  0.00    +0.000 HD
BRANCH   4  13
ATOM     12  N   UNL     1      47.336   3.167   5.374  0.00  0.00    +0.000 N 
ATOM     13  C   UNL     1      47.310   2.348   6.468  0.00  0.00    +0.000 C 
ATOM     14  O   UNL     1      48.028   1.359   6.536  0.00  0.00    +0.000 OA
ATOM     15  H   UNL     1      48.029   2.955   4.667  0.00  0.00    +0.000 HD
ATOM     16  H   UNL     1      46.957   4.104   5.386  0.00  0.00    +0.000 HD
ENDBRANCH   4  13
ENDBRANCH   1   8
BRANCH   1  17
ATOM     17  C   UNL     1      45.206   5.155  12.268  0.00  0.00    +0.000 A 
ATOM     18  C   UNL     1      45.611   4.541  13.460  0.00  0.00    +0.000 A 
ATOM     19  C   UNL     1      46.843   4.849  14.055  0.00  0.00    +0.000 A 
ATOM     20  C   UNL     1      47.647   5.781  13.393  0.00  0.00    +0.000 A 
ATOM     21  C   UNL     1      47.184   6.366  12.228  0.00  0.00    +0.000 A 
ATOM     22  N   UNL     1      45.990   6.087  11.667  0.00  0.00    +0.000 NA
BRANCH  19  23
ATOM     23  C   UNL     1      47.297   4.203  15.304  0.00  0.00    +0.000 A 
ATOM     24  C   UNL     1      47.147   4.787  16.564  0.00  0.00    +0.000 A 
ATOM     25  C   UNL     1      47.590   4.102  17.694  0.00  0.00    +0.000 A 
ATOM     26  C   UNL     1      48.176   2.853  17.547  0.00  0.00    +0.000 A 
ATOM     27  C   UNL     1      48.298   2.341  16.268  0.00  0.00    +0.000 A 
ATOM     28  N   UNL     1      47.880   2.986  15.156  0.00  0.00    +0.000 NA
ENDBRANCH  19  23
ENDBRANCH   1  17
TORSDOF 4
ENDMDL
MODEL 2
REMARK VINA RESULT:    -9.220      1.714      3.773
REMARK INTER + INTRA:         -11.413
REMARK INTER:                 -11.382
REMARK INTRA:                  -0.031
REMARK UNBOUND:                -0.037
REMARK  Name = 
REMARK  4 active torsions:
REMARK  status: ('A' for Active; 'I' for Inactive)
REMARK    1  A    between atoms: C_2  and  C_4
REMARK    2  A    between atoms: N_8  and  C_9
REMARK    3  A    between atoms: C_9  and  C_10
REMARK    4  A    between atoms: C_12  and  C_13
REMARK                            x       y       z     vdW  Elec       q    Type
REMARK                         _______ _______ _______ _____ _____    ______ ____
ROOT
ATOM      1  C   UNL     1      43.839   4.688  11.567  0.00  0.00    +0.000 C 
ATOM      2  C   UNL     1      42.520   5.144  12.165  0.00  0.00    +0.000 C 
ATOM      3  C   UNL     1      43.107   5.911  11.025  0.00  0.00    +0.000 C 
ENDROOT
BRANCH   1   8
ATOM      4  C   UNL     1      46.443   2.755   7.566  0.00  0.00    +0.000 A 
ATOM      5  C   UNL     1      46.154   4.078   7.893  0.00  0.00    +0.000 A 
ATOM      6  C   UNL     1      45.277   4.341   8.948  0.00  0.00    +0.000 A 
ATOM      7  C   UNL     1      44.722   3.283   9.664  0.00  0.00    +0.000 A 
ATOM      8  N   UNL     1      43.857   3.464  10.745  0.00  0.00    +0.000 N 
ATOM      9  N   UNL     1      44.976   1.998   9.337  0.00  0.00    +0.000 NA
ATOM     10  C   UNL     1      45.815   1.759   8.297  0.00  0.00    +0.000 A 
ATOM     11  H   UNL     1      43.693   2.560  11.176  0.00  0.00    +0.000 HD
BRANCH   4  13
ATOM     12  N   UNL     1      47.293   3.081   5.315  0.00  0.00    +0.000 N 
ATOM     13  C   UNL     1      47.368   2.370   6.481  0.00  0.00    +0.000 C 
ATOM     14  O   UNL     1      48.195   1.481   6.629  0.00  0.00    +0.000 OA
ATOM     15  H   UNL     1      48.003   2.883   4.620  0.00  0.00    +0.000 HD
ATOM     16  H   UNL     1      46.809   3.965   5.246  0.00  0.00    +0.000 HD
ENDBRANCH   4  13
ENDBRANCH   1   8
BRANCH   1  17
ATOM     17  C   UNL     1      45.164   5.006  12.281  0.00  0.00    +0.000 A 
ATOM     18  C   UNL     1      45.904   6.132  11.901  0.00  0.00    +0.000 A 
ATOM     19  C   UNL     1      47.074   6.499  12.582  0.00  0.00    +0.000 A 
ATOM     20  C   UNL     1      47.450   5.696  13.663  0.00  0.00    +0.000 A 
ATOM     21  C   UNL     1      46.688   4.587  13.980  0.00  0.00    +0.000 A 
ATOM     22  N   UNL     1      45.574   4.221  13.311  0.00  0.00    +0.000 NA
BRANCH  19  23
ATOM     23  C   UNL     1      47.863   7.690  12.207  0.00  0.00    +0.000 A 
ATOM     24  C   UNL     1      49.213   7.632  11.856  0.00  0.00    +0.000 A 
ATOM     25  C   UNL     1      49.880   8.804  11.501  0.00  0.00    +0.000 A 
ATOM     26  C   UNL     1      49.190  10.008  11.505  0.00  0.00    +0.000 A 
ATOM     27  C   UNL     1      47.856   9.989  11.872  0.00  0.00    +0.000 A 
ATOM     28  N   UNL     1      47.188   8.868  12.224  0.00  0.00    +0.000 NA
ENDBRANCH  19  23
ENDBRANCH   1  17
TORSDOF 4
ENDMDL
MODEL 3
REMARK VINA RESULT:    -7.771      3.089      7.612
REMARK INTER + INTRA:          -9.625
REMARK INTER:                  -9.235
REMARK INTRA:                  -0.390
REMARK UNBOUND:                -0.037
REMARK  Name = 
REMARK  4 active torsions:
REMARK  status: ('A' for Active; 'I' for Inactive)
REMARK    1  A    between atoms: C_2  and  C_4
REMARK    2  A    between atoms: N_8  and  C_9
REMARK    3  A    between atoms: C_9  and  C_10
REMARK    4  A    between atoms: C_12  and  C_13
REMARK                            x       y       z     vdW  Elec       q    Type
REMARK                         _______ _______ _______ _____ _____    ______ ____
ROOT
ATOM      1  C   UNL     1      48.525   7.775  12.787  0.00  0.00    +0.000 C 
ATOM      2  C   UNL     1      49.736   7.374  11.964  0.00  0.00    +0.000 C 
ATOM      3  C   UNL     1      49.343   8.813  12.026  0.00  0.00    +0.000 C 
ENDROOT
BRANCH   1   8
ATOM      4  C   UNL     1      47.937   4.408  16.639  0.00  0.00    +0.000 A 
ATOM      5  C   UNL     1      47.310   4.468  15.397  0.00  0.00    +0.000 A 
ATOM      6  C   UNL     1      47.515   5.586  14.584  0.00  0.00    +0.000 A 
ATOM      7  C   UNL     1      48.353   6.610  15.020  0.00  0.00    +0.000 A 
ATOM      8  N   UNL     1      48.627   7.747  14.257  0.00  0.00    +0.000 N 
ATOM      9  N   UNL     1      48.943   6.573  16.234  0.00  0.00    +0.000 NA
ATOM     10  C   UNL     1      48.718   5.488  17.018  0.00  0.00    +0.000 A 
ATOM     11  H   UNL     1      49.354   8.277  14.726  0.00  0.00    +0.000 HD
BRANCH   4  13
ATOM     12  N   UNL     1      48.881   2.953  18.338  0.00  0.00    +0.000 N 
ATOM     13  C   UNL     1      47.798   3.266  17.565  0.00  0.00    +0.000 C 
ATOM     14  O   UNL     1      46.746   2.650  17.669  0.00  0.00    +0.000 OA
ATOM     15  H   UNL     1      48.739   2.242  19.046  0.00  0.00    +0.000 HD
ATOM     16  H   UNL     1      49.663   3.581  18.460  0.00  0.00    +0.000 HD
ENDBRANCH   4  13
ENDBRANCH   1   8
BRANCH   1  17
ATOM     17  C   UNL     1      47.106   7.555  12.233  0.00  0.00    +0.000 A 
ATOM     18  C   UNL     1      46.830   6.417  11.465  0.00  0.00    +0.000 A 
ATOM     19  C   UNL     1      45.531   6.142  11.012  0.00  0.00    +0.000 A 
ATOM     20  C   UNL     1      44.532   7.048  11.378  0.00  0.00    +0.000 A 
ATOM     21  C   UNL     1      44.870   8.163  12.123  0.00  0.00    +0.000 A 
ATOM     22  N   UNL     1      46.123   8.439  12.541  0.00  0.00    +0.000 NA
BRANCH  19  23
ATOM     23  C   UNL     1      45.215   4.941  10.213  0.00  0.00    +0.000 A 
ATOM     24  C   UNL     1      45.644   4.765   8.896  0.00  0.00    +0.000 A 
ATOM     25  C   UNL     1      45.312   3.593   8.218  0.00  0.00    +0.000 A 
ATOM     26  C   UNL     1      44.559   2.622   8.863  0.00  0.00    +0.000 A 
ATOM     27  C   UNL     1      44.163   2.869  10.165  0.00  0.00    +0.000 A 
ATOM     28  N   UNL     1      44.468   3.997  10.844  0.00  0.00    +0.000 NA
ENDBRANCH  19  23
ENDBRANCH   1  17
TORSDOF 4
ENDMDL
MODEL 4
REMARK VINA RESULT:    -7.558      3.417      7.177
REMARK INTER + INTRA:          -9.363
REMARK INTER:                  -9.130
REMARK INTRA:                  -0.232
REMARK UNBOUND:                -0.037
REMARK  Name = 
REMARK  4 active torsions:
REMARK  status: ('A' for Active; 'I' for Inactive)
REMARK    1  A    between atoms: C_2  and  C_4
REMARK    2  A    between atoms: N_8  and  C_9
REMARK    3  A    between atoms: C_9  and  C_10
REMARK    4  A    between atoms: C_12  and  C_13
REMARK                            x       y       z     vdW  Elec       q    Type
REMARK                         _______ _______ _______ _____ _____    ______ ____
ROOT
ATOM      1  C   UNL     1      45.106   6.169  12.108  0.00  0.00    +0.000 C 
ATOM      2  C   UNL     1      44.952   7.493  11.382  0.00  0.00    +0.000 C 
ATOM      3  C   UNL     1      43.940   7.105  12.410  0.00  0.00    +0.000 C 
ENDROOT
BRANCH   1   8
ATOM      4  C   UNL     1      49.910   7.845  12.901  0.00  0.00    +0.000 A 
ATOM      5  C   UNL     1      49.232   7.599  11.710  0.00  0.00    +0.000 A 
ATOM      6  C   UNL     1      47.980   6.980  11.756  0.00  0.00    +0.000 A 
ATOM      7  C   UNL     1      47.426   6.635  12.987  0.00  0.00    +0.000 A 
ATOM      8  N   UNL     1      46.172   6.035  13.117  0.00  0.00    +0.000 N 
ATOM      9  N   UNL     1      48.089   6.844  14.144  0.00  0.00    +0.000 NA
ATOM     10  C   UNL     1      49.311   7.431  14.081  0.00  0.00    +0.000 A 
ATOM     11  H   UNL     1      45.937   6.000  14.103  0.00  0.00    +0.000 HD
BRANCH   4  13
ATOM     12  N   UNL     1      52.155   7.978  13.817  0.00  0.00    +0.000 N 
ATOM     13  C   UNL     1      51.229   8.508  12.963  0.00  0.00    +0.000 C 
ATOM     14  O   UNL     1      51.498   9.466  12.251  0.00  0.00    +0.000 OA
ATOM     15  H   UNL     1      53.088   8.370  13.771  0.00  0.00    +0.000 HD
ATOM     16  H   UNL     1      52.057   7.058  14.224  0.00  0.00    +0.000 HD
ENDBRANCH   4  13
ENDBRANCH   1   8
BRANCH   1  17
ATOM     17  C   UNL     1      44.702   4.856  11.416  0.00  0.00    +0.000 A 
ATOM     18  C   UNL     1      45.377   4.445  10.259  0.00  0.00    +0.000 A 
ATOM     19  C   UNL     1      45.091   3.216   9.647  0.00  0.00    +0.000 A 
ATOM     20  C   UNL     1      44.117   2.421  10.257  0.00  0.00    +0.000 A 
ATOM     21  C   UNL     1      43.473   2.888  11.388  0.00  0.00    +0.000 A 
ATOM     22  N   UNL     1      43.732   4.080  11.965  0.00  0.00    +0.000 NA
BRANCH  19  23
ATOM     23  C   UNL     1      45.800   2.757   8.435  0.00  0.00    +0.000 A 
ATOM     24  C   UNL     1      46.062   3.587   7.344  0.00  0.00    +0.000 A 
ATOM     25  C   UNL     1      46.750   3.076   6.244  0.00  0.00    +0.000 A 
ATOM     26  C   UNL     1      47.161   1.751   6.253  0.00  0.00    +0.000 A 
ATOM     27  C   UNL     1      46.859   0.987   7.365  0.00  0.00    +0.000 A 
ATOM     28  N   UNL     1      46.190   1.456   8.442  0.00  0.00    +0.000 NA
ENDBRANCH  19  23
ENDBRANCH   1  17
TORSDOF 4
ENDMDL
MODEL 5
REMARK VINA RESULT:    -7.287      4.172      8.782
REMARK INTER + INTRA:          -9.028
REMARK INTER:                  -8.749
REMARK INTRA:                  -0.279
REMARK UNBOUND:                -0.037
REMARK  Name = 
REMARK  4 active torsions:
REMARK  status: ('A' for Active; 'I' for Inactive)
REMARK    1  A    between atoms: C_2  and  C_4
REMARK    2  A    between atoms: N_8  and  C_9
REMARK    3  A    between atoms: C_9  and  C_10
REMARK    4  A    between atoms: C_12  and  C_13
REMARK                            x       y       z     vdW  Elec       q    Type
REMARK                         _______ _______ _______ _____ _____    ______ ____
ROOT
ATOM      1  C   UNL     1      48.291   3.329  16.985  0.00  0.00    +0.000 C 
ATOM      2  C   UNL     1      48.102   3.749  18.432  0.00  0.00    +0.000 C 
ATOM      3  C   UNL     1      47.039   2.941  17.763  0.00  0.00    +0.000 C 
ENDROOT
BRANCH   1   8
ATOM      4  C   UNL     1      53.121   2.064  18.247  0.00  0.00    +0.000 A 
ATOM      5  C   UNL     1      52.512   3.315  18.171  0.00  0.00    +0.000 A 
ATOM      6  C   UNL     1      51.226   3.414  17.634  0.00  0.00    +0.000 A 
ATOM      7  C   UNL     1      50.569   2.264  17.202  0.00  0.00    +0.000 A 
ATOM      8  N   UNL     1      49.276   2.277  16.676  0.00  0.00    +0.000 N 
ATOM      9  N   UNL     1      51.162   1.051  17.246  0.00  0.00    +0.000 NA
ATOM     10  C   UNL     1      52.419   0.976  17.753  0.00  0.00    +0.000 A 
ATOM     11  H   UNL     1      48.972   1.317  16.555  0.00  0.00    +0.000 HD
BRANCH   4  13
ATOM     12  N   UNL     1      54.574   1.774  20.171  0.00  0.00    +0.000 N 
ATOM     13  C   UNL     1      54.469   1.850  18.810  0.00  0.00    +0.000 C 
ATOM     14  O   UNL     1      55.448   1.704  18.090  0.00  0.00    +0.000 OA
ATOM     15  H   UNL     1      55.481   1.517  20.540  0.00  0.00    +0.000 HD
ATOM     16  H   UNL     1      53.772   1.639  20.772  0.00  0.00    +0.000 HD
ENDBRANCH   4  13
ENDBRANCH   1   8
BRANCH   1  17
ATOM     17  C   UNL     1      48.045   4.337  15.848  0.00  0.00    +0.000 A 
ATOM     18  C   UNL     1      47.112   4.039  14.846  0.00  0.00    +0.000 A 
ATOM     19  C   UNL     1      46.803   4.967  13.841  0.00  0.00    +0.000 A 
ATOM     20  C   UNL     1      47.457   6.200  13.900  0.00  0.00    +0.000 A 
ATOM     21  C   UNL     1      48.381   6.429  14.903  0.00  0.00    +0.000 A 
ATOM     22  N   UNL     1      48.695   5.529  15.858  0.00  0.00    +0.000 NA
BRANCH  19  23
ATOM     23  C   UNL     1      45.813   4.679  12.783  0.00  0.00    +0.000 A 
ATOM     24  C   UNL     1      45.658   5.475  11.646  0.00  0.00    +0.000 A 
ATOM     25  C   UNL     1      44.707   5.123  10.689  0.00  0.00    +0.000 A 
ATOM     26  C   UNL     1      43.930   3.991  10.883  0.00  0.00    +0.000 A 
ATOM     27  C   UNL     1      44.134   3.256  12.038  0.00  0.00    +0.000 A 
ATOM     28  N   UNL     1      45.045   3.577  12.983  0.00  0.00    +0.000 NA
ENDBRANCH  19  23
ENDBRANCH   1  17
TORSDOF 4
ENDMDL
MODEL 6
REMARK VINA RESULT:    -7.034      3.008      5.957
REMARK INTER + INTRA:          -8.716
REMARK INTER:                  -8.279
REMARK INTRA:                  -0.437
REMARK UNBOUND:                -0.037
REMARK  Name = 
REMARK  4 active torsions:
REMARK  status: ('A' for Active; 'I' for Inactive)
REMARK    1  A    between atoms: C_2  and  C_4
REMARK    2  A    between atoms: N_8  and  C_9
REMARK    3  A    between atoms: C_9  and  C_10
REMARK    4  A    between atoms: C_12  and  C_13
REMARK                            x       y       z     vdW  Elec       q    Type
REMARK                         _______ _______ _______ _____ _____    ______ ____
ROOT
ATOM      1  C   UNL     1      44.055   4.965  11.877  0.00  0.00    +0.000 C 
ATOM      2  C   UNL     1      44.657   4.120  12.987  0.00  0.00    +0.000 C 
ATOM      3  C   UNL     1      43.263   4.636  13.138  0.00  0.00    +0.000 C 
ENDROOT
BRANCH   1   8
ATOM      4  C   UNL     1      46.240   3.496   7.451  0.00  0.00    +0.000 A 
ATOM      5  C   UNL     1      46.560   4.551   8.302  0.00  0.00    +0.000 A 
ATOM      6  C   UNL     1      45.704   4.851   9.365  0.00  0.00    +0.000 A 
ATOM      7  C   UNL     1      44.559   4.083   9.566  0.00  0.00    +0.000 A 
ATOM      8  N   UNL     1      43.668   4.305  10.617  0.00  0.00    +0.000 N 
ATOM      9  N   UNL     1      44.226   3.077   8.730  0.00  0.00    +0.000 NA
ATOM     10  C   UNL     1      45.059   2.810   7.692  0.00  0.00    +0.000 A 
ATOM     11  H   UNL     1      42.993   3.548  10.627  0.00  0.00    +0.000 HD
BRANCH   4  13
ATOM     12  N   UNL     1      48.381   2.753   6.580  0.00  0.00    +0.000 N 
ATOM     13  C   UNL     1      47.083   3.088   6.310  0.00  0.00    +0.000 C 
ATOM     14  O   UNL     1      46.632   3.010   5.175  0.00  0.00    +0.000 OA
ATOM     15  H   UNL     1      48.918   2.371   5.811  0.00  0.00    +0.000 HD
ATOM     16  H   UNL     1      48.712   2.566   7.516  0.00  0.00    +0.000 HD
ENDBRANCH   4  13
ENDBRANCH   1   8
BRANCH   1  17
ATOM     17  C   UNL     1      44.441   6.448  11.739  0.00  0.00    +0.000 A 
ATOM     18  C   UNL     1      43.527   7.354  11.185  0.00  0.00    +0.000 A 
ATOM     19  C   UNL     1      43.812   8.725  11.117  0.00  0.00    +0.000 A 
ATOM     20  C   UNL     1      45.039   9.140  11.641  0.00  0.00    +0.000 A 
ATOM     21  C   UNL     1      45.907   8.196  12.159  0.00  0.00    +0.000 A 
ATOM     22  N   UNL     1      45.643   6.873  12.205  0.00  0.00    +0.000 NA
BRANCH  19  23
ATOM     23  C   UNL     1      42.857   9.700  10.551  0.00  0.00    +0.000 A 
ATOM     24  C   UNL     1      43.211  10.641   9.581  0.00  0.00    +0.000 A 
ATOM     25  C   UNL     1      42.244  11.515   9.090  0.00  0.00    +0.000 A 
ATOM     26  C   UNL     1      40.946  11.437   9.574  0.00  0.00    +0.000 A 
ATOM     27  C   UNL     1      40.671  10.485  10.539  0.00  0.00    +0.000 A 
ATOM     28  N   UNL     1      41.590   9.629  11.035  0.00  0.00    +0.000 NA
ENDBRANCH  19  23
ENDBRANCH   1  17
TORSDOF 4
ENDMDL
MODEL 7
REMARK VINA RESULT:    -6.742      4.071      7.435
REMARK INTER + INTRA:          -8.356
REMARK INTER:                  -7.934
REMARK INTRA:                  -0.422
REMARK UNBOUND:                -0.037
REMARK  Name = 
REMARK  4 active torsions:
REMARK  status: ('A' for Active; 'I' for Inactive)
REMARK    1  A    between atoms: C_2  and  C_4
REMARK    2  A    between atoms: N_8  and  C_9
REMARK    3  A    between atoms: C_9  and  C_10
REMARK    4  A    between atoms: C_12  and  C_13
REMARK                            x       y       z     vdW  Elec       q    Type
REMARK                         _______ _______ _______ _____ _____    ______ ____
ROOT
ATOM      1  C   UNL     1      45.759   4.301  12.979  0.00  0.00    +0.000 C 
ATOM      2  C   UNL     1      44.361   3.761  13.225  0.00  0.00    +0.000 C 
ATOM      3  C   UNL     1      44.960   3.638  11.862  0.00  0.00    +0.000 C 
ENDROOT
BRANCH   1   8
ATOM      4  C   UNL     1      48.213   3.840  17.483  0.00  0.00    +0.000 A 
ATOM      5  C   UNL     1      47.516   4.921  16.948  0.00  0.00    +0.000 A 
ATOM      6  C   UNL     1      47.079   4.860  15.623  0.00  0.00    +0.000 A 
ATOM      7  C   UNL     1      47.331   3.718  14.866  0.00  0.00    +0.000 A 
ATOM      8  N   UNL     1      46.908   3.571  13.543  0.00  0.00    +0.000 N 
ATOM      9  N   UNL     1      48.031   2.677  15.367  0.00  0.00    +0.000 NA
ATOM     10  C   UNL     1      48.464   2.761  16.651  0.00  0.00    +0.000 A 
ATOM     11  H   UNL     1      47.096   2.618  13.253  0.00  0.00    +0.000 HD
BRANCH   4  13
ATOM     12  N   UNL     1      48.221   2.803  19.679  0.00  0.00    +0.000 N 
ATOM     13  C   UNL     1      48.703   3.799  18.875  0.00  0.00    +0.000 C 
ATOM     14  O   UNL     1      49.538   4.594  19.284  0.00  0.00    +0.000 OA
ATOM     15  H   UNL     1      48.645   2.717  20.594  0.00  0.00    +0.000 HD
ATOM     16  H   UNL     1      47.735   1.996  19.313  0.00  0.00    +0.000 HD
ENDBRANCH   4  13
ENDBRANCH   1   8
BRANCH   1  17
ATOM     17  C   UNL     1      45.982   5.812  12.789  0.00  0.00    +0.000 A 
ATOM     18  C   UNL     1      47.248   6.286  12.423  0.00  0.00    +0.000 A 
ATOM     19  C   UNL     1      47.469   7.646  12.163  0.00  0.00    +0.000 A 
ATOM     20  C   UNL     1      46.364   8.495  12.272  0.00  0.00    +0.000 A 
ATOM     21  C   UNL     1      45.143   7.971  12.655  0.00  0.00    +0.000 A 
ATOM     22  N   UNL     1      44.934   6.665  12.926  0.00  0.00    +0.000 NA
BRANCH  19  23
ATOM     23  C   UNL     1      48.792   8.166  11.762  0.00  0.00    +0.000 A 
ATOM     24  C   UNL     1      49.911   7.349  11.584  0.00  0.00    +0.000 A 
ATOM     25  C   UNL     1      51.120   7.920  11.190  0.00  0.00    +0.000 A 
ATOM     26  C   UNL     1      51.191   9.290  10.983  0.00  0.00    +0.000 A 
ATOM     27  C   UNL     1      50.045  10.036  11.187  0.00  0.00    +0.000 A 
ATOM     28  N   UNL     1      48.862   9.509  11.572  0.00  0.00    +0.000 NA
ENDBRANCH  19  23
ENDBRANCH   1  17
TORSDOF 4
ENDMDL
MODEL 8
REMARK VINA RESULT:    -6.565      2.858      4.508
REMARK INTER + INTRA:          -8.137
REMARK INTER:                  -8.408
REMARK INTRA:                   0.271
REMARK UNBOUND:                -0.037
REMARK  Name = 
REMARK  4 active torsions:
REMARK  status: ('A' for Active; 'I' for Inactive)
REMARK    1  A    between atoms: C_2  and  C_4
REMARK    2  A    between atoms: N_8  and  C_9
REMARK    3  A    between atoms: C_9  and  C_10
REMARK    4  A    between atoms: C_12  and  C_13
REMARK                            x       y       z     vdW  Elec       q    Type
REMARK                         _______ _______ _______ _____ _____    ______ ____
ROOT
ATOM      1  C   UNL     1      47.343   8.523  13.120  0.00  0.00    +0.000 C 
ATOM      2  C   UNL     1      47.519   9.888  12.478  0.00  0.00    +0.000 C 
ATOM      3  C   UNL     1      47.924   8.668  11.717  0.00  0.00    +0.000 C 
ENDROOT
BRANCH   1   8
ATOM      4  C   UNL     1      44.624   4.460  11.501  0.00  0.00    +0.000 A 
ATOM      5  C   UNL     1      45.682   5.130  10.892  0.00  0.00    +0.000 A 
ATOM      6  C   UNL     1      46.147   6.321  11.456  0.00  0.00    +0.000 A 
ATOM      7  C   UNL     1      45.559   6.807  12.621  0.00  0.00    +0.000 A 
ATOM      8  N   UNL     1      45.981   7.976  13.258  0.00  0.00    +0.000 N 
ATOM      9  N   UNL     1      44.514   6.179  13.202  0.00  0.00    +0.000 NA
ATOM     10  C   UNL     1      44.064   5.033  12.631  0.00  0.00    +0.000 A 
ATOM     11  H   UNL     1      45.491   8.051  14.143  0.00  0.00    +0.000 HD
BRANCH   4  13
ATOM     12  N   UNL     1      44.824   2.493  10.090  0.00  0.00    +0.000 N 
ATOM     13  C   UNL     1      44.070   3.188  10.994  0.00  0.00    +0.000 C 
ATOM     14  O   UNL     1      43.000   2.750  11.396  0.00  0.00    +0.000 OA
ATOM     15  H   UNL     1      44.487   1.573   9.834  0.00  0.00    +0.000 HD
ATOM     16  H   UNL     1      45.802   2.692   9.929  0.00  0.00    +0.000 HD
ENDBRANCH   4  13
ENDBRANCH   1   8
BRANCH   1  17
ATOM     17  C   UNL     1      48.347   8.029  14.175  0.00  0.00    +0.000 A 
ATOM     18  C   UNL     1      48.082   6.855  14.891  0.00  0.00    +0.000 A 
ATOM     19  C   UNL     1      49.011   6.332  15.802  0.00  0.00    +0.000 A 
ATOM     20  C   UNL     1      50.213   7.029  15.946  0.00  0.00    +0.000 A 
ATOM     21  C   UNL     1      50.410   8.193  15.224  0.00  0.00    +0.000 A 
ATOM     22  N   UNL     1      49.508   8.709  14.364  0.00  0.00    +0.000 NA
BRANCH  19  23
ATOM     23  C   UNL     1      48.757   5.087  16.556  0.00  0.00    +0.000 A 
ATOM     24  C   UNL     1      47.481   4.546  16.731  0.00  0.00    +0.000 A 
ATOM     25  C   UNL     1      47.332   3.359  17.446  0.00  0.00    +0.000 A 
ATOM     26  C   UNL     1      48.454   2.736  17.973  0.00  0.00    +0.000 A 
ATOM     27  C   UNL     1      49.684   3.334  17.767  0.00  0.00    +0.000 A 
ATOM     28  N   UNL     1      49.856   4.486  17.082  0.00  0.00    +0.000 NA
ENDBRANCH  19  23
ENDBRANCH   1  17
TORSDOF 4
ENDMDL
