MODEL 1
REMARK VINA RESULT:    -9.351      0.000      0.000
REMARK INTER + INTRA:         -12.317
REMARK INTER:                 -11.538
REMARK INTRA:                  -0.779
REMARK UNBOUND:                -0.779
REMARK  Name = 
REMARK  4 active torsions:
REMARK  status: ('A' for Active; 'I' for Inactive)
REMARK    1  A    between atoms: C_2  and  C_4
REMARK    2  A    between atoms: N_8  and  C_9
REMARK    3  A    between atoms: C_9  and  C_10
REMARK    4  A    between atoms: C_15  and  C_16
REMARK                            x       y       z     vdW  Elec       q    Type
REMARK                         _______ _______ _______ _____ _____    ______ ____
ROOT
ATOM      1  C   UNL     1      44.827   5.028  11.912  0.00  0.00    +0.000 A 
ATOM      2  C   UNL     1      45.312   4.130  12.864  0.00  0.00    +0.000 A 
ATOM      3  C   UNL     1      46.450   4.451  13.594  0.00  0.00    +0.000 A 
ATOM      4  F   UNL     1      46.905   3.588  14.512  0.00  0.00    +0.000 F 
ATOM      5  C   UNL     1      47.121   5.656  13.398  0.00  0.00    +0.000 A 
ATOM      6  C   UNL     1      46.671   6.583  12.445  0.00  0.00    +0.000 A 
ATOM      7  C   UNL     1      45.516   6.240  11.713  0.00  0.00    +0.000 A 
ENDROOT
BRANCH   6   8
ATOM      8  C   UNL     1      47.375   7.866  12.207  0.00  0.00    +0.000 A 
ATOM      9  C   UNL     1      48.709   7.904  11.779  0.00  0.00    +0.000 A 
ATOM     10  C   UNL     1      49.330   9.130  11.600  0.00  0.00    +0.000 A 
ATOM     11  N   UNL     1      48.723  10.317  11.798  0.00  0.00    +0.000 NA
ATOM     12  C   UNL     1      47.445  10.284  12.196  0.00  0.00    +0.000 A 
ATOM     13  N   UNL     1      46.812  11.516  12.350  0.00  0.00    +0.000 N 
ATOM     14  C   UNL     1      46.745   9.103  12.408  0.00  0.00    +0.000 A 
ATOM     15  H   UNL     1      47.521  12.229  12.202  0.00  0.00    +0.000 HD
ATOM     16  H   UNL     1      46.369  11.602  13.256  0.00  0.00    +0.000 HD
ENDBRANCH   6   8
BRANCH   1  17
ATOM     17  C   UNL     1      43.564   4.735  11.139  0.00  0.00    +0.000 C 
BRANCH  17  22
ATOM     18  C   UNL     1      46.366   2.259   7.633  0.00  0.00    +0.000 A 
ATOM     19  C   UNL     1      45.741   1.751   8.766  0.00  0.00    +0.000 A 
ATOM     20  C   UNL     1      44.887   2.572   9.500  0.00  0.00    +0.000 A 
ATOM     21  C   UNL     1      44.680   3.888   9.100  0.00  0.00    +0.000 A 
ATOM     22  N   UNL     1      43.781   4.736   9.706  0.00  0.00    +0.000 N 
ATOM     23  N   UNL     1      45.299   4.397   8.015  0.00  0.00    +0.000 NA
ATOM     24  C   UNL     1      46.132   3.585   7.310  0.00  0.00    +0.000 A 
ATOM     25  H   UNL     1      43.899   5.652   9.280  0.00  0.00    +0.000 HD
BRANCH  18  27
ATOM     26  N   UNL     1      48.308   2.090   6.184  0.00  0.00    +0.000 N 
ATOM     27  C   UNL     1      47.254   1.448   6.775  0.00  0.00    +0.000 C 
ATOM     28  O   UNL     1      47.078   0.246   6.627  0.00  0.00    +0.000 OA
ATOM     29  H   UNL     1      48.967   1.505   5.687  0.00  0.00    +0.000 HD
ATOM     30  H   UNL     1      48.629   3.000   6.483  0.00  0.00    +0.000 HD
ENDBRANCH  18  27
ENDBRANCH  17  22
ENDBRANCH   1  17
TORSDOF 4
ENDMDL
MODEL 2
REMARK VINA RESULT:    -9.007      3.111      4.178
REMARK INTER + INTRA:         -11.892
REMARK INTER:                 -11.198
REMARK INTRA:                  -0.694
REMARK UNBOUND:                -0.779
REMARK  Name = 
REMARK  4 active torsions:
REMARK  status: ('A' for Active; 'I' for Inactive)
REMARK    1  A    between atoms: C_2  and  C_4
REMARK    2  A    between atoms: N_8  and  C_9
REMARK    3  A    between atoms: C_9  and  C_10
REMARK    4  A    between atoms: C_15  and  C_16
REMARK                            x       y       z     vdW  Elec       q    Type
REMARK                         _______ _______ _______ _____ _____    ______ ____
ROOT
ATOM      1  C   UNL     1      45.621   5.667  12.054  0.00  0.00    +0.000 A 
ATOM      2  C   UNL     1      46.422   6.584  11.370  0.00  0.00    +0.000 A 
ATOM      3  C   UNL     1      47.588   7.053  11.963  0.00  0.00    +0.000 A 
ATOM      4  F   UNL     1      48.356   7.926  11.297  0.00  0.00    +0.000 F 
ATOM      5  C   UNL     1      47.981   6.625  13.229  0.00  0.00    +0.000 A 
ATOM      6  C   UNL     1      47.200   5.711  13.953  0.00  0.00    +0.000 A 
ATOM      7  C   UNL     1      46.019   5.247  13.338  0.00  0.00    +0.000 A 
ENDROOT
BRANCH   6   8
ATOM      8  C   UNL     1      47.587   5.251  15.309  0.00  0.00    +0.000 A 
ATOM      9  C   UNL     1      48.541   5.938  16.073  0.00  0.00    +0.000 A 
ATOM     10  C   UNL     1      48.890   5.449  17.322  0.00  0.00    +0.000 A 
ATOM     11  N   UNL     1      48.353   4.343  17.874  0.00  0.00    +0.000 NA
ATOM     12  C   UNL     1      47.433   3.691  17.151  0.00  0.00    +0.000 A 
ATOM     13  N   UNL     1      46.848   2.578  17.751  0.00  0.00    +0.000 N 
ATOM     14  C   UNL     1      47.027   4.103  15.887  0.00  0.00    +0.000 A 
ATOM     15  H   UNL     1      47.333   2.432  18.632  0.00  0.00    +0.000 HD
ATOM     16  H   UNL     1      46.891   1.762  17.154  0.00  0.00    +0.000 HD
ENDBRANCH   6   8
BRANCH   1  17
ATOM     17  C   UNL     1      44.376   5.097  11.419  0.00  0.00    +0.000 C 
BRANCH  17  22
ATOM     18  C   UNL     1      46.497   2.354   7.644  0.00  0.00    +0.000 A 
ATOM     19  C   UNL     1      45.932   1.908   8.833  0.00  0.00    +0.000 A 
ATOM     20  C   UNL     1      45.260   2.815   9.650  0.00  0.00    +0.000 A 
ATOM     21  C   UNL     1      45.174   4.151   9.276  0.00  0.00    +0.000 A 
ATOM     22  N   UNL     1      44.448   5.092   9.971  0.00  0.00    +0.000 N 
ATOM     23  N   UNL     1      45.738   4.598   8.135  0.00  0.00    +0.000 NA
ATOM     24  C   UNL     1      46.393   3.703   7.349  0.00  0.00    +0.000 A 
ATOM     25  H   UNL     1      44.631   5.993   9.538  0.00  0.00    +0.000 HD
BRANCH  18  27
ATOM     26  N   UNL     1      48.227   1.986   5.979  0.00  0.00    +0.000 N 
ATOM     27  C   UNL     1      47.191   1.455   6.699  0.00  0.00    +0.000 C 
ATOM     28  O   UNL     1      46.880   0.277   6.590  0.00  0.00    +0.000 OA
ATOM     29  H   UNL     1      48.760   1.335   5.415  0.00  0.00    +0.000 HD
ATOM     30  H   UNL     1      48.670   2.860   6.224  0.00  0.00    +0.000 HD
ENDBRANCH  18  27
ENDBRANCH  17  22
ENDBRANCH   1  17
TORSDOF 4
ENDMDL
MODEL 3
REMARK VINA RESULT:    -8.877      2.747      3.798
REMARK INTER + INTRA:         -11.733
REMARK INTER:                 -10.914
REMARK INTRA:                  -0.818
REMARK UNBOUND:                -0.779
REMARK  Name = 
REMARK  4 active torsions:
REMARK  status: ('A' for Active; 'I' for Inactive)
REMARK    1  A    between atoms: C_2  and  C_4
REMARK    2  A    between atoms: N_8  and  C_9
REMARK    3  A    between atoms: C_9  and  C_10
REMARK    4  A    between atoms: C_15  and  C_16
REMARK                            x       y       z     vdW  Elec       q    Type
REMARK                         _______ _______ _______ _____ _____    ______ ____
ROOT
ATOM      1  C   UNL     1      44.610   5.620  11.826  0.00  0.00    +0.000 A 
ATOM      2  C   UNL     1      44.859   6.946  11.467  0.00  0.00    +0.000 A 
ATOM      3  C   UNL     1      45.858   7.658  12.120  0.00  0.00    +0.000 A 
ATOM      4  F   UNL     1      46.098   8.927  11.764  0.00  0.00    +0.000 F 
ATOM      5  C   UNL     1      46.623   7.076  13.128  0.00  0.00    +0.000 A 
ATOM      6  C   UNL     1      46.399   5.748  13.524  0.00  0.00    +0.000 A 
ATOM      7  C   UNL     1      45.380   5.041  12.853  0.00  0.00    +0.000 A 
ENDROOT
BRANCH   6   8
ATOM      8  C   UNL     1      47.189   5.109  14.605  0.00  0.00    +0.000 A 
ATOM      9  C   UNL     1      47.119   3.731  14.850  0.00  0.00    +0.000 A 
ATOM     10  C   UNL     1      47.856   3.189  15.891  0.00  0.00    +0.000 A 
ATOM     11  N   UNL     1      48.664   3.908  16.694  0.00  0.00    +0.000 NA
ATOM     12  C   UNL     1      48.742   5.224  16.456  0.00  0.00    +0.000 A 
ATOM     13  N   UNL     1      49.618   5.949  17.260  0.00  0.00    +0.000 N 
ATOM     14  C   UNL     1      48.035   5.854  15.440  0.00  0.00    +0.000 A 
ATOM     15  H   UNL     1      49.974   5.304  17.960  0.00  0.00    +0.000 HD
ATOM     16  H   UNL     1      49.168   6.754  17.678  0.00  0.00    +0.000 HD
ENDBRANCH   6   8
BRANCH   1  17
ATOM     17  C   UNL     1      43.568   4.801  11.103  0.00  0.00    +0.000 C 
BRANCH  17  22
ATOM     18  C   UNL     1      46.368   2.217   7.675  0.00  0.00    +0.000 A 
ATOM     19  C   UNL     1      45.735   1.742   8.817  0.00  0.00    +0.000 A 
ATOM     20  C   UNL     1      44.883   2.588   9.525  0.00  0.00    +0.000 A 
ATOM     21  C   UNL     1      44.688   3.895   9.091  0.00  0.00    +0.000 A 
ATOM     22  N   UNL     1      43.792   4.765   9.671  0.00  0.00    +0.000 N 
ATOM     23  N   UNL     1      45.315   4.371   7.996  0.00  0.00    +0.000 NA
ATOM     24  C   UNL     1      46.146   3.536   7.317  0.00  0.00    +0.000 A 
ATOM     25  H   UNL     1      43.919   5.668   9.223  0.00  0.00    +0.000 HD
BRANCH  18  27
ATOM     26  N   UNL     1      48.297   2.003   6.213  0.00  0.00    +0.000 N 
ATOM     27  C   UNL     1      47.255   1.378   6.842  0.00  0.00    +0.000 C 
ATOM     28  O   UNL     1      47.088   0.170   6.745  0.00  0.00    +0.000 OA
ATOM     29  H   UNL     1      48.956   1.403   5.734  0.00  0.00    +0.000 HD
ATOM     30  H   UNL     1      48.613   2.927   6.470  0.00  0.00    +0.000 HD
ENDBRANCH  18  27
ENDBRANCH  17  22
ENDBRANCH   1  17
TORSDOF 4
ENDMDL
MODEL 4
REMARK VINA RESULT:    -8.372      2.951      3.749
REMARK INTER + INTRA:         -11.109
REMARK INTER:                 -10.471
REMARK INTRA:                  -0.637
REMARK UNBOUND:                -0.779
REMARK  Name = 
REMARK  4 active torsions:
REMARK  status: ('A' for Active; 'I' for Inactive)
REMARK    1  A    between atoms: C_2  and  C_4
REMARK    2  A    between atoms: N_8  and  C_9
REMARK    3  A    between atoms: C_9  and  C_10
REMARK    4  A    between atoms: C_15  and  C_16
REMARK                            x       y       z     vdW  Elec       q    Type
REMARK                         _______ _______ _______ _____ _____    ______ ____
ROOT
ATOM      1  C   UNL     1      44.061   4.867  11.565  0.00  0.00    +0.000 A 
ATOM      2  C   UNL     1      43.683   6.125  11.093  0.00  0.00    +0.000 A 
ATOM      3  C   UNL     1      44.323   7.260  11.574  0.00  0.00    +0.000 A 
ATOM      4  F   UNL     1      43.961   8.464  11.110  0.00  0.00    +0.000 F 
ATOM      5  C   UNL     1      45.342   7.173  12.521  0.00  0.00    +0.000 A 
ATOM      6  C   UNL     1      45.746   5.927  13.028  0.00  0.00    +0.000 A 
ATOM      7  C   UNL     1      45.085   4.786  12.529  0.00  0.00    +0.000 A 
ENDROOT
BRANCH   6   8
ATOM      8  C   UNL     1      46.817   5.807  14.046  0.00  0.00    +0.000 A 
ATOM      9  C   UNL     1      47.861   6.738  14.129  0.00  0.00    +0.000 A 
ATOM     10  C   UNL     1      48.853   6.563  15.081  0.00  0.00    +0.000 A 
ATOM     11  N   UNL     1      48.877   5.546  15.963  0.00  0.00    +0.000 NA
ATOM     12  C   UNL     1      47.875   4.659  15.895  0.00  0.00    +0.000 A 
ATOM     13  N   UNL     1      47.883   3.639  16.844  0.00  0.00    +0.000 N 
ATOM     14  C   UNL     1      46.843   4.751  14.969  0.00  0.00    +0.000 A 
ATOM     15  H   UNL     1      48.748   3.735  17.369  0.00  0.00    +0.000 HD
ATOM     16  H   UNL     1      47.797   2.726  16.416  0.00  0.00    +0.000 HD
ENDBRANCH   6   8
BRANCH   1  17
ATOM     17  C   UNL     1      43.424   3.610  11.025  0.00  0.00    +0.000 C 
BRANCH  17  22
ATOM     18  C   UNL     1      46.677   2.492   7.225  0.00  0.00    +0.000 A 
ATOM     19  C   UNL     1      46.350   3.735   7.753  0.00  0.00    +0.000 A 
ATOM     20  C   UNL     1      45.562   3.802   8.901  0.00  0.00    +0.000 A 
ATOM     21  C   UNL     1      45.102   2.630   9.494  0.00  0.00    +0.000 A 
ATOM     22  N   UNL     1      44.404   2.599  10.680  0.00  0.00    +0.000 N 
ATOM     23  N   UNL     1      45.397   1.420   8.976  0.00  0.00    +0.000 NA
ATOM     24  C   UNL     1      46.164   1.370   7.854  0.00  0.00    +0.000 A 
ATOM     25  H   UNL     1      44.115   1.637  10.832  0.00  0.00    +0.000 HD
BRANCH  18  27
ATOM     26  N   UNL     1      47.395   3.243   5.030  0.00  0.00    +0.000 N 
ATOM     27  C   UNL     1      47.540   2.328   6.037  0.00  0.00    +0.000 C 
ATOM     28  O   UNL     1      48.374   1.435   5.970  0.00  0.00    +0.000 OA
ATOM     29  H   UNL     1      48.063   3.182   4.271  0.00  0.00    +0.000 HD
ATOM     30  H   UNL     1      46.915   4.122   5.156  0.00  0.00    +0.000 HD
ENDBRANCH  18  27
ENDBRANCH  17  22
ENDBRANCH   1  17
TORSDOF 4
ENDMDL
MODEL 5
REMARK VINA RESULT:    -8.075      3.579      7.279
REMARK INTER + INTRA:         -10.743
REMARK INTER:                 -10.563
REMARK INTRA:                  -0.180
REMARK UNBOUND:                -0.779
REMARK  Name = 
REMARK  4 active torsions:
REMARK  status: ('A' for Active; 'I' for Inactive)
REMARK    1  A    between atoms: C_2  and  C_4
REMARK    2  A    between atoms: N_8  and  C_9
REMARK    3  A    between atoms: C_9  and  C_10
REMARK    4  A    between atoms: C_15  and  C_16
REMARK                            x       y       z     vdW  Elec       q    Type
REMARK                         _______ _______ _______ _____ _____    ______ ____
ROOT
ATOM      1  C   UNL     1      45.338   6.378  11.073  0.00  0.00    +0.000 A 
ATOM      2  C   UNL     1      44.006   6.250  11.471  0.00  0.00    +0.000 A 
ATOM      3  C   UNL     1      43.232   5.217  10.958  0.00  0.00    +0.000 A 
ATOM      4  F   UNL     1      41.957   5.096  11.351  0.00  0.00    +0.000 F 
ATOM      5  C   UNL     1      43.756   4.298  10.051  0.00  0.00    +0.000 A 
ATOM      6  C   UNL     1      45.088   4.397   9.619  0.00  0.00    +0.000 A 
ATOM      7  C   UNL     1      45.859   5.451  10.148  0.00  0.00    +0.000 A 
ENDROOT
BRANCH   6   8
ATOM      8  C   UNL     1      45.667   3.441   8.643  0.00  0.00    +0.000 A 
ATOM      9  C   UNL     1      45.675   2.060   8.884  0.00  0.00    +0.000 A 
ATOM     10  C   UNL     1      46.255   1.213   7.953  0.00  0.00    +0.000 A 
ATOM     11  N   UNL     1      46.811   1.631   6.799  0.00  0.00    +0.000 NA
ATOM     12  C   UNL     1      46.795   2.949   6.561  0.00  0.00    +0.000 A 
ATOM     13  N   UNL     1      47.327   3.366   5.343  0.00  0.00    +0.000 N 
ATOM     14  C   UNL     1      46.242   3.872   7.440  0.00  0.00    +0.000 A 
ATOM     15  H   UNL     1      47.720   2.541   4.898  0.00  0.00    +0.000 HD
ATOM     16  H   UNL     1      48.017   4.098   5.463  0.00  0.00    +0.000 HD
ENDBRANCH   6   8
BRANCH   1  17
ATOM     17  C   UNL     1      46.222   7.456  11.650  0.00  0.00    +0.000 C 
BRANCH  17  22
ATOM     18  C   UNL     1      47.406   4.434  15.617  0.00  0.00    +0.000 A 
ATOM     19  C   UNL     1      46.356   4.315  14.715  0.00  0.00    +0.000 A 
ATOM     20  C   UNL     1      46.312   5.156  13.605  0.00  0.00    +0.000 A 
ATOM     21  C   UNL     1      47.307   6.111  13.421  0.00  0.00    +0.000 A 
ATOM     22  N   UNL     1      47.395   6.914  12.306  0.00  0.00    +0.000 N 
ATOM     23  N   UNL     1      48.319   6.249  14.302  0.00  0.00    +0.000 NA
ATOM     24  C   UNL     1      48.347   5.423  15.382  0.00  0.00    +0.000 A 
ATOM     25  H   UNL     1      48.151   7.574  12.471  0.00  0.00    +0.000 HD
BRANCH  18  27
ATOM     26  N   UNL     1      48.822   3.351  17.268  0.00  0.00    +0.000 N 
ATOM     27  C   UNL     1      47.553   3.557  16.797  0.00  0.00    +0.000 C 
ATOM     28  O   UNL     1      46.582   3.065  17.354  0.00  0.00    +0.000 OA
ATOM     29  H   UNL     1      48.899   2.836  18.136  0.00  0.00    +0.000 HD
ATOM     30  H   UNL     1      49.603   3.933  17.002  0.00  0.00    +0.000 HD
ENDBRANCH  18  27
ENDBRANCH  17  22
ENDBRANCH   1  17
TORSDOF 4
ENDMDL
MODEL 6
REMARK VINA RESULT:    -7.831      2.280      2.817
REMARK INTER + INTRA:         -10.441
REMARK INTER:                  -9.812
REMARK INTRA:                  -0.630
REMARK UNBOUND:                -0.779
REMARK  Name = 
REMARK  4 active torsions:
REMARK  status: ('A' for Active; 'I' for Inactive)
REMARK    1  A    between atoms: C_2  and  C_4
REMARK    2  A    between atoms: N_8  and  C_9
REMARK    3  A    between atoms: C_9  and  C_10
REMARK    4  A    between atoms: C_15  and  C_16
REMARK                            x       y       z     vdW  Elec       q    Type
REMARK                         _______ _______ _______ _____ _____    ______ ____
ROOT
ATOM      1  C   UNL     1      44.472   5.066  11.750  0.00  0.00    +0.000 A 
ATOM      2  C   UNL     1      45.452   4.847  12.720  0.00  0.00    +0.000 A 
ATOM      3  C   UNL     1      46.121   5.929  13.278  0.00  0.00    +0.000 A 
ATOM      4  F   UNL     1      47.054   5.711  14.214  0.00  0.00    +0.000 F 
ATOM      5  C   UNL     1      45.835   7.237  12.891  0.00  0.00    +0.000 A 
ATOM      6  C   UNL     1      44.863   7.500  11.913  0.00  0.00    +0.000 A 
ATOM      7  C   UNL     1      44.195   6.390  11.357  0.00  0.00    +0.000 A 
ENDROOT
BRANCH   6   8
ATOM      8  C   UNL     1      44.549   8.881  11.473  0.00  0.00    +0.000 A 
ATOM      9  C   UNL     1      45.383   9.961  11.791  0.00  0.00    +0.000 A 
ATOM     10  C   UNL     1      45.029  11.236  11.381  0.00  0.00    +0.000 A 
ATOM     11  N   UNL     1      43.920  11.516  10.668  0.00  0.00    +0.000 NA
ATOM     12  C   UNL     1      43.126  10.484  10.352  0.00  0.00    +0.000 A 
ATOM     13  N   UNL     1      42.009  10.777   9.573  0.00  0.00    +0.000 N 
ATOM     14  C   UNL     1      43.398   9.174  10.727  0.00  0.00    +0.000 A 
ATOM     15  H   UNL     1      41.980  11.788   9.471  0.00  0.00    +0.000 HD
ATOM     16  H   UNL     1      41.158  10.411   9.981  0.00  0.00    +0.000 HD
ENDBRANCH   6   8
BRANCH   1  17
ATOM     17  C   UNL     1      43.690   3.918  11.162  0.00  0.00    +0.000 C 
BRANCH  17  22
ATOM     18  C   UNL     1      46.674   2.562   7.222  0.00  0.00    +0.000 A 
ATOM     19  C   UNL     1      46.500   3.819   7.790  0.00  0.00    +0.000 A 
ATOM     20  C   UNL     1      45.763   3.938   8.967  0.00  0.00    +0.000 A 
ATOM     21  C   UNL     1      45.201   2.806   9.549  0.00  0.00    +0.000 A 
ATOM     22  N   UNL     1      44.543   2.818  10.758  0.00  0.00    +0.000 N 
ATOM     23  N   UNL     1      45.346   1.586   8.993  0.00  0.00    +0.000 NA
ATOM     24  C   UNL     1      46.065   1.485   7.843  0.00  0.00    +0.000 A 
ATOM     25  H   UNL     1      44.158   1.888  10.899  0.00  0.00    +0.000 HD
BRANCH  18  27
ATOM     26  N   UNL     1      47.298   3.222   4.969  0.00  0.00    +0.000 N 
ATOM     27  C   UNL     1      47.474   2.339   6.000  0.00  0.00    +0.000 C 
ATOM     28  O   UNL     1      48.287   1.428   5.923  0.00  0.00    +0.000 OA
ATOM     29  H   UNL     1      47.926   3.122   4.181  0.00  0.00    +0.000 HD
ATOM     30  H   UNL     1      46.841   4.115   5.087  0.00  0.00    +0.000 HD
ENDBRANCH  18  27
ENDBRANCH  17  22
ENDBRANCH   1  17
TORSDOF 4
ENDMDL
MODEL 7
REMARK VINA RESULT:    -7.825      3.325      7.492
REMARK INTER + INTRA:         -10.435
REMARK INTER:                  -9.940
REMARK INTRA:                  -0.495
REMARK UNBOUND:                -0.779
REMARK  Name = 
REMARK  4 active torsions:
REMARK  status: ('A' for Active; 'I' for Inactive)
REMARK    1  A    between atoms: C_2  and  C_4
REMARK    2  A    between atoms: N_8  and  C_9
REMARK    3  A    between atoms: C_9  and  C_10
REMARK    4  A    between atoms: C_15  and  C_16
REMARK                            x       y       z     vdW  Elec       q    Type
REMARK                         _______ _______ _______ _____ _____    ______ ____
ROOT
ATOM      1  C   UNL     1      44.732   5.030  10.670  0.00  0.00    +0.000 A 
ATOM      2  C   UNL     1      43.768   4.305  11.373  0.00  0.00    +0.000 A 
ATOM      3  C   UNL     1      43.544   2.971  11.055  0.00  0.00    +0.000 A 
ATOM      4  F   UNL     1      42.623   2.280  11.740  0.00  0.00    +0.000 F 
ATOM      5  C   UNL     1      44.264   2.335  10.046  0.00  0.00    +0.000 A 
ATOM      6  C   UNL     1      45.236   3.030   9.309  0.00  0.00    +0.000 A 
ATOM      7  C   UNL     1      45.449   4.383   9.645  0.00  0.00    +0.000 A 
ENDROOT
BRANCH   6   8
ATOM      8  C   UNL     1      46.006   2.381   8.221  0.00  0.00    +0.000 A 
ATOM      9  C   UNL     1      46.265   1.004   8.224  0.00  0.00    +0.000 A 
ATOM     10  C   UNL     1      47.015   0.452   7.198  0.00  0.00    +0.000 A 
ATOM     11  N   UNL     1      47.511   1.160   6.164  0.00  0.00    +0.000 NA
ATOM     12  C   UNL     1      47.257   2.475   6.152  0.00  0.00    +0.000 A 
ATOM     13  N   UNL     1      47.732   3.189   5.055  0.00  0.00    +0.000 N 
ATOM     14  C   UNL     1      46.520   3.114   7.142  0.00  0.00    +0.000 A 
ATOM     15  H   UNL     1      48.283   2.539   4.499  0.00  0.00    +0.000 HD
ATOM     16  H   UNL     1      48.270   3.999   5.336  0.00  0.00    +0.000 HD
ENDBRANCH   6   8
BRANCH   1  17
ATOM     17  C   UNL     1      45.038   6.464  11.025  0.00  0.00    +0.000 C 
BRANCH  17  22
ATOM     18  C   UNL     1      47.922   5.715  15.196  0.00  0.00    +0.000 A 
ATOM     19  C   UNL     1      46.904   4.917  14.686  0.00  0.00    +0.000 A 
ATOM     20  C   UNL     1      46.357   5.223  13.441  0.00  0.00    +0.000 A 
ATOM     21  C   UNL     1      46.823   6.326  12.733  0.00  0.00    +0.000 A 
ATOM     22  N   UNL     1      46.409   6.644  11.459  0.00  0.00    +0.000 N 
ATOM     23  N   UNL     1      47.794   7.120  13.230  0.00  0.00    +0.000 NA
ATOM     24  C   UNL     1      48.317   6.811  14.446  0.00  0.00    +0.000 A 
ATOM     25  H   UNL     1      46.832   7.537  11.221  0.00  0.00    +0.000 HD
BRANCH  18  27
ATOM     26  N   UNL     1      48.212   6.206  17.557  0.00  0.00    +0.000 N 
ATOM     27  C   UNL     1      48.586   5.440  16.486  0.00  0.00    +0.000 C 
ATOM     28  O   UNL     1      49.409   4.542  16.605  0.00  0.00    +0.000 OA
ATOM     29  H   UNL     1      48.595   5.939  18.455  0.00  0.00    +0.000 HD
ATOM     30  H   UNL     1      47.372   6.767  17.559  0.00  0.00    +0.000 HD
ENDBRANCH  18  27
ENDBRANCH  17  22
ENDBRANCH   1  17
TORSDOF 4
ENDMDL
MODEL 8
REMARK VINA RESULT:    -7.605      4.699      7.957
REMARK INTER + INTRA:         -10.163
REMARK INTER:                  -9.661
REMARK INTRA:                  -0.502
REMARK UNBOUND:                -0.779
REMARK  Name = 
REMARK  4 active torsions:
REMARK  status: ('A' for Active; 'I' for Inactive)
REMARK    1  A    between atoms: C_2  and  C_4
REMARK    2  A    between atoms: N_8  and  C_9
REMARK    3  A    between atoms: C_9  and  C_10
REMARK    4  A    between atoms: C_15  and  C_16
REMARK                            x       y       z     vdW  Elec       q    Type
REMARK                         _______ _______ _______ _____ _____    ______ ____
ROOT
ATOM      1  C   UNL     1      45.257   5.426  12.634  0.00  0.00    +0.000 A 
ATOM      2  C   UNL     1      43.919   5.820  12.682  0.00  0.00    +0.000 A 
ATOM      3  C   UNL     1      43.058   5.456  11.655  0.00  0.00    +0.000 A 
ATOM      4  F   UNL     1      41.773   5.831  11.712  0.00  0.00    +0.000 F 
ATOM      5  C   UNL     1      43.500   4.699  10.572  0.00  0.00    +0.000 A 
ATOM      6  C   UNL     1      44.839   4.289  10.481  0.00  0.00    +0.000 A 
ATOM      7  C   UNL     1      45.699   4.669  11.531  0.00  0.00    +0.000 A 
ENDROOT
BRANCH   6   8
ATOM      8  C   UNL     1      45.339   3.496   9.332  0.00  0.00    +0.000 A 
ATOM      9  C   UNL     1      45.278   2.095   9.323  0.00  0.00    +0.000 A 
ATOM     10  C   UNL     1      45.786   1.401   8.237  0.00  0.00    +0.000 A 
ATOM     11  N   UNL     1      46.334   1.990   7.157  0.00  0.00    +0.000 NA
ATOM     12  C   UNL     1      46.384   3.329   7.156  0.00  0.00    +0.000 A 
ATOM     13  N   UNL     1      46.907   3.930   6.013  0.00  0.00    +0.000 N 
ATOM     14  C   UNL     1      45.906   4.106   8.204  0.00  0.00    +0.000 A 
ATOM     15  H   UNL     1      47.242   3.179   5.416  0.00  0.00    +0.000 HD
ATOM     16  H   UNL     1      47.638   4.593   6.237  0.00  0.00    +0.000 HD
ENDBRANCH   6   8
BRANCH   1  17
ATOM     17  C   UNL     1      46.207   5.759  13.758  0.00  0.00    +0.000 C 
BRANCH  17  22
ATOM     18  C   UNL     1      49.467   4.002  17.303  0.00  0.00    +0.000 A 
ATOM     19  C   UNL     1      49.180   5.319  16.960  0.00  0.00    +0.000 A 
ATOM     20  C   UNL     1      48.134   5.580  16.077  0.00  0.00    +0.000 A 
ATOM     21  C   UNL     1      47.402   4.526  15.540  0.00  0.00    +0.000 A 
ATOM     22  N   UNL     1      46.294   4.697  14.740  0.00  0.00    +0.000 N 
ATOM     23  N   UNL     1      47.687   3.244  15.850  0.00  0.00    +0.000 NA
ATOM     24  C   UNL     1      48.712   3.004  16.711  0.00  0.00    +0.000 A 
ATOM     25  H   UNL     1      46.013   3.775  14.416  0.00  0.00    +0.000 HD
BRANCH  18  27
ATOM     26  N   UNL     1      51.224   2.485  18.014  0.00  0.00    +0.000 N 
ATOM     27  C   UNL     1      50.530   3.638  18.262  0.00  0.00    +0.000 C 
ATOM     28  O   UNL     1      50.804   4.352  19.216  0.00  0.00    +0.000 OA
ATOM     29  H   UNL     1      52.017   2.301  18.617  0.00  0.00    +0.000 HD
ATOM     30  H   UNL     1      51.204   2.017  17.120  0.00  0.00    +0.000 HD
ENDBRANCH  18  27
ENDBRANCH  17  22
ENDBRANCH   1  17
TORSDOF 4
ENDMDL
MODEL 9
REMARK VINA RESULT:    -7.429      5.433      8.117
REMARK INTER + INTRA:          -9.946
REMARK INTER:                  -9.235
REMARK INTRA:                  -0.711
REMARK UNBOUND:                -0.779
REMARK  Name = 
REMARK  4 active torsions:
REMARK  status: ('A' for Active; 'I' for Inactive)
REMARK    1  A    between atoms: C_2  and  C_4
REMARK    2  A    between atoms: N_8  and  C_9
REMARK    3  A    between atoms: C_9  and  C_10
REMARK    4  A    between atoms: C_15  and  C_16
REMARK                            x       y       z     vdW  Elec       q    Type
REMARK                         _______ _______ _______ _____ _____    ______ ____
ROOT
ATOM      1  C   UNL     1      48.333   6.647  14.511  0.00  0.00    +0.000 A 
ATOM      2  C   UNL     1      49.147   7.321  13.599  0.00  0.00    +0.000 A 
ATOM      3  C   UNL     1      48.779   7.379  12.261  0.00  0.00    +0.000 A 
ATOM      4  F   UNL     1      49.561   8.035  11.393  0.00  0.00    +0.000 F 
ATOM      5  C   UNL     1      47.608   6.778  11.804  0.00  0.00    +0.000 A 
ATOM      6  C   UNL     1      46.765   6.083  12.687  0.00  0.00    +0.000 A 
ATOM      7  C   UNL     1      47.155   6.034  14.040  0.00  0.00    +0.000 A 
ENDROOT
BRANCH   6   8
ATOM      8  C   UNL     1      45.521   5.422  12.224  0.00  0.00    +0.000 A 
ATOM      9  C   UNL     1      44.592   6.090  11.414  0.00  0.00    +0.000 A 
ATOM     10  C   UNL     1      43.430   5.436  11.034  0.00  0.00    +0.000 A 
ATOM     11  N   UNL     1      43.131   4.170  11.383  0.00  0.00    +0.000 NA
ATOM     12  C   UNL     1      44.022   3.525  12.148  0.00  0.00    +0.000 A 
ATOM     13  N   UNL     1      43.727   2.200  12.462  0.00  0.00    +0.000 N 
ATOM     14  C   UNL     1      45.209   4.103  12.582  0.00  0.00    +0.000 A 
ATOM     15  H   UNL     1      42.797   2.013  12.095  0.00  0.00    +0.000 HD
ATOM     16  H   UNL     1      43.784   2.027  13.458  0.00  0.00    +0.000 HD
ENDBRANCH   6   8
BRANCH   1  17
ATOM     17  C   UNL     1      48.675   6.610  15.980  0.00  0.00    +0.000 C 
BRANCH  17  22
ATOM     18  C   UNL     1      51.258   2.428  17.433  0.00  0.00    +0.000 A 
ATOM     19  C   UNL     1      51.628   3.763  17.546  0.00  0.00    +0.000 A 
ATOM     20  C   UNL     1      50.701   4.756  17.236  0.00  0.00    +0.000 A 
ATOM     21  C   UNL     1      49.426   4.402  16.806  0.00  0.00    +0.000 A 
ATOM     22  N   UNL     1      48.420   5.313  16.574  0.00  0.00    +0.000 N 
ATOM     23  N   UNL     1      49.064   3.109  16.673  0.00  0.00    +0.000 NA
ATOM     24  C   UNL     1      49.980   2.151  16.976  0.00  0.00    +0.000 A 
ATOM     25  H   UNL     1      47.634   4.798  16.185  0.00  0.00    +0.000 HD
BRANCH  18  27
ATOM     26  N   UNL     1      51.582   0.134  18.163  0.00  0.00    +0.000 N 
ATOM     27  C   UNL     1      52.163   1.313  17.780  0.00  0.00    +0.000 C 
ATOM     28  O   UNL     1      53.378   1.424  17.695  0.00  0.00    +0.000 OA
ATOM     29  H   UNL     1      52.208  -0.651  18.295  0.00  0.00    +0.000 HD
ATOM     30  H   UNL     1      50.607  -0.072  18.000  0.00  0.00    +0.000 HD
ENDBRANCH  18  27
ENDBRANCH  17  22
ENDBRANCH   1  17
TORSDOF 4
ENDMDL
