MODEL 1
REMARK VINA RESULT:    -9.301      0.000      0.000
REMARK INTER + INTRA:         -12.638
REMARK INTER:                 -12.020
REMARK INTRA:                  -0.618
REMARK UNBOUND:                -0.618
REMARK  Name = 
REMARK  5 active torsions:
REMARK  status: ('A' for Active; 'I' for Inactive)
REMARK    1  A    between atoms: C_2  and  C_4
REMARK    2  A    between atoms: C_7  and  O_8
REMARK    3  A    between atoms: O_8  and  C_9
REMARK    4  A    between atoms: C_9  and  C_10
REMARK    5  A    between atoms: C_10  and  C_13
REMARK                            x       y       z     vdW  Elec       q    Type
REMARK                         _______ _______ _______ _____ _____    ______ ____
ROOT
ATOM      1  C   UNL     1      44.570   4.922  12.467  0.00  0.00    +0.000 C 
ATOM      2  F   UNL     1      43.554   5.446  13.217  0.00  0.00    +0.000 F 
ATOM      3  F   UNL     1      44.351   3.574  12.452  0.00  0.00    +0.000 F 
ENDROOT
BRANCH   1   4
ATOM      4  C   UNL     1      45.924   5.265  13.053  0.00  0.00    +0.000 A 
ATOM      5  C   UNL     1      46.816   6.109  12.397  0.00  0.00    +0.000 A 
ATOM      6  C   UNL     1      48.003   6.419  13.036  0.00  0.00    +0.000 A 
ATOM      7  N   UNL     1      48.350   5.957  14.260  0.00  0.00    +0.000 NA
ATOM      8  C   UNL     1      47.510   5.114  14.896  0.00  0.00    +0.000 A 
ATOM      9  N   UNL     1      47.845   4.641  16.145  0.00  0.00    +0.000 N 
ATOM     10  C   UNL     1      48.785   5.375  16.998  0.00  0.00    +0.000 C 
ATOM     11  C   UNL     1      50.006   4.514  17.354  0.00  0.00    +0.000 C 
ATOM     12  O   UNL     1      49.618   3.234  17.885  0.00  0.00    +0.000 OA
ATOM     13  C   UNL     1      48.841   2.519  16.912  0.00  0.00    +0.000 C 
ATOM     14  C   UNL     1      47.547   3.269  16.562  0.00  0.00    +0.000 C 
ATOM     15  C   UNL     1      46.295   4.763  14.308  0.00  0.00    +0.000 A 
ENDBRANCH   1   4
BRANCH   1  16
ATOM     16  C   UNL     1      44.451   5.462  11.034  0.00  0.00    +0.000 C 
BRANCH  16  17
ATOM     17  O   UNL     1      43.775   4.525  10.173  0.00  0.00    +0.000 OA
BRANCH  17  21
ATOM     18  C   UNL     1      46.394   2.470   7.738  0.00  0.00    +0.000 A 
ATOM     19  C   UNL     1      45.645   1.772   8.688  0.00  0.00    +0.000 A 
ATOM     20  C   UNL     1      44.762   2.476   9.510  0.00  0.00    +0.000 A 
ATOM     21  C   UNL     1      44.658   3.852   9.349  0.00  0.00    +0.000 A 
ATOM     22  N   UNL     1      45.374   4.551   8.444  0.00  0.00    +0.000 NA
ATOM     23  C   UNL     1      46.233   3.848   7.667  0.00  0.00    +0.000 A 
BRANCH  18  25
ATOM     24  N   UNL     1      48.450   2.570   6.441  0.00  0.00    +0.000 N 
ATOM     25  C   UNL     1      47.364   1.834   6.821  0.00  0.00    +0.000 C 
ATOM     26  O   UNL     1      47.225   0.676   6.451  0.00  0.00    +0.000 OA
ATOM     27  H   UNL     1      49.158   2.074   5.913  0.00  0.00    +0.000 HD
ATOM     28  H   UNL     1      48.735   3.412   6.923  0.00  0.00    +0.000 HD
ENDBRANCH  18  25
ENDBRANCH  17  21
ENDBRANCH  16  17
ENDBRANCH   1  16
TORSDOF 5
ENDMDL
MODEL 2
REMARK VINA RESULT:    -9.262      2.244      2.913
REMARK INTER + INTRA:         -12.587
REMARK INTER:                 -11.743
REMARK INTRA:                  -0.845
REMARK UNBOUND:                -0.618
REMARK  Name = 
REMARK  5 active torsions:
REMARK  status: ('A' for Active; 'I' for Inactive)
REMARK    1  A    between atoms: C_2  and  C_4
REMARK    2  A    between atoms: C_7  and  O_8
REMARK    3  A    between atoms: O_8  and  C_9
REMARK    4  A    between atoms: C_9  and  C_10
REMARK    5  A    between atoms: C_10  and  C_13
REMARK                            x       y       z     vdW  Elec       q    Type
REMARK                         _______ _______ _______ _____ _____    ______ ____
ROOT
ATOM      1  C   UNL     1      43.579   5.274  12.225  0.00  0.00    +0.000 C 
ATOM      2  F   UNL     1      43.342   6.521  11.715  0.00  0.00    +0.000 F 
ATOM      3  F   UNL     1      42.649   5.102  13.210  0.00  0.00    +0.000 F 
ENDROOT
BRANCH   1   4
ATOM      4  C   UNL     1      44.992   5.155  12.759  0.00  0.00    +0.000 A 
ATOM      5  C   UNL     1      45.533   3.930  13.138  0.00  0.00    +0.000 A 
ATOM      6  C   UNL     1      46.853   3.905  13.553  0.00  0.00    +0.000 A 
ATOM      7  N   UNL     1      47.652   4.997  13.608  0.00  0.00    +0.000 NA
ATOM      8  C   UNL     1      47.134   6.197  13.273  0.00  0.00    +0.000 A 
ATOM      9  N   UNL     1      47.936   7.314  13.317  0.00  0.00    +0.000 N 
ATOM     10  C   UNL     1      49.394   7.197  13.223  0.00  0.00    +0.000 C 
ATOM     11  C   UNL     1      50.082   7.781  14.466  0.00  0.00    +0.000 C 
ATOM     12  O   UNL     1      49.625   9.115  14.750  0.00  0.00    +0.000 OA
ATOM     13  C   UNL     1      48.211   9.103  14.993  0.00  0.00    +0.000 C 
ATOM     14  C   UNL     1      47.430   8.615  13.763  0.00  0.00    +0.000 C 
ATOM     15  C   UNL     1      45.810   6.290  12.843  0.00  0.00    +0.000 A 
ENDBRANCH   1   4
BRANCH   1  16
ATOM     16  C   UNL     1      43.333   4.236  11.120  0.00  0.00    +0.000 C 
BRANCH  16  17
ATOM     17  O   UNL     1      43.616   4.780   9.816  0.00  0.00    +0.000 OA
BRANCH  17  21
ATOM     18  C   UNL     1      46.352   2.453   7.789  0.00  0.00    +0.000 A 
ATOM     19  C   UNL     1      45.495   1.858   8.717  0.00  0.00    +0.000 A 
ATOM     20  C   UNL     1      44.573   2.654   9.400  0.00  0.00    +0.000 A 
ATOM     21  C   UNL     1      44.539   4.015   9.128  0.00  0.00    +0.000 A 
ATOM     22  N   UNL     1      45.359   4.616   8.241  0.00  0.00    +0.000 NA
ATOM     23  C   UNL     1      46.254   3.825   7.599  0.00  0.00    +0.000 A 
BRANCH  18  25
ATOM     24  N   UNL     1      48.434   2.424   6.531  0.00  0.00    +0.000 N 
ATOM     25  C   UNL     1      47.371   1.714   7.013  0.00  0.00    +0.000 C 
ATOM     26  O   UNL     1      47.292   0.505   6.847  0.00  0.00    +0.000 OA
ATOM     27  H   UNL     1      49.176   1.877   6.110  0.00  0.00    +0.000 HD
ATOM     28  H   UNL     1      48.671   3.348   6.864  0.00  0.00    +0.000 HD
ENDBRANCH  18  25
ENDBRANCH  17  21
ENDBRANCH  16  17
ENDBRANCH   1  16
TORSDOF 5
ENDMDL
MODEL 3
REMARK VINA RESULT:    -8.356      2.029      2.763
REMARK INTER + INTRA:         -11.416
REMARK INTER:                 -11.023
REMARK INTRA:                  -0.393
REMARK UNBOUND:                -0.618
REMARK  Name = 
REMARK  5 active torsions:
REMARK  status: ('A' for Active; 'I' for Inactive)
REMARK    1  A    between atoms: C_2  and  C_4
REMARK    2  A    between atoms: C_7  and  O_8
REMARK    3  A    between atoms: O_8  and  C_9
REMARK    4  A    between atoms: C_9  and  C_10
REMARK    5  A    between atoms: C_10  and  C_13
REMARK                            x       y       z     vdW  Elec       q    Type
REMARK                         _______ _______ _______ _____ _____    ______ ____
ROOT
ATOM      1  C   UNL     1      45.368   6.021  11.691  0.00  0.00    +0.000 C 
ATOM      2  F   UNL     1      46.134   6.275  10.587  0.00  0.00    +0.000 F 
ATOM      3  F   UNL     1      44.591   7.131  11.856  0.00  0.00    +0.000 F 
ENDROOT
BRANCH   1   4
ATOM      4  C   UNL     1      46.226   5.749  12.909  0.00  0.00    +0.000 A 
ATOM      5  C   UNL     1      46.156   4.545  13.604  0.00  0.00    +0.000 A 
ATOM      6  C   UNL     1      47.023   4.359  14.666  0.00  0.00    +0.000 A 
ATOM      7  N   UNL     1      47.939   5.271  15.067  0.00  0.00    +0.000 NA
ATOM      8  C   UNL     1      48.000   6.455  14.423  0.00  0.00    +0.000 A 
ATOM      9  N   UNL     1      48.931   7.390  14.815  0.00  0.00    +0.000 N 
ATOM     10  C   UNL     1      50.145   6.987  15.531  0.00  0.00    +0.000 C 
ATOM     11  C   UNL     1      50.236   7.667  16.905  0.00  0.00    +0.000 C 
ATOM     12  O   UNL     1      50.069   9.093  16.805  0.00  0.00    +0.000 OA
ATOM     13  C   UNL     1      48.781   9.393  16.247  0.00  0.00    +0.000 C 
ATOM     14  C   UNL     1      48.633   8.825  14.827  0.00  0.00    +0.000 C 
ATOM     15  C   UNL     1      47.155   6.706  13.342  0.00  0.00    +0.000 A 
ENDBRANCH   1   4
BRANCH   1  16
ATOM     16  C   UNL     1      44.461   4.817  11.393  0.00  0.00    +0.000 C 
BRANCH  16  17
ATOM     17  O   UNL     1      44.043   4.803  10.014  0.00  0.00    +0.000 OA
BRANCH  17  21
ATOM     18  C   UNL     1      46.427   2.326   7.734  0.00  0.00    +0.000 A 
ATOM     19  C   UNL     1      45.639   1.780   8.749  0.00  0.00    +0.000 A 
ATOM     20  C   UNL     1      44.836   2.626   9.518  0.00  0.00    +0.000 A 
ATOM     21  C   UNL     1      44.848   3.988   9.241  0.00  0.00    +0.000 A 
ATOM     22  N   UNL     1      45.605   4.541   8.270  0.00  0.00    +0.000 NA
ATOM     23  C   UNL     1      46.385   3.701   7.546  0.00  0.00    +0.000 A 
BRANCH  18  25
ATOM     24  N   UNL     1      48.479   2.119   6.445  0.00  0.00    +0.000 N 
ATOM     25  C   UNL     1      47.320   1.532   6.864  0.00  0.00    +0.000 C 
ATOM     26  O   UNL     1      47.055   0.375   6.566  0.00  0.00    +0.000 OA
ATOM     27  H   UNL     1      49.128   1.516   5.952  0.00  0.00    +0.000 HD
ATOM     28  H   UNL     1      48.856   2.953   6.874  0.00  0.00    +0.000 HD
ENDBRANCH  18  25
ENDBRANCH  17  21
ENDBRANCH  16  17
ENDBRANCH   1  16
TORSDOF 5
ENDMDL
MODEL 4
REMARK VINA RESULT:    -8.345      2.762      3.468
REMARK INTER + INTRA:         -11.403
REMARK INTER:                 -10.569
REMARK INTRA:                  -0.833
REMARK UNBOUND:                -0.618
REMARK  Name = 
REMARK  5 active torsions:
REMARK  status: ('A' for Active; 'I' for Inactive)
REMARK    1  A    between atoms: C_2  and  C_4
REMARK    2  A    between atoms: C_7  and  O_8
REMARK    3  A    between atoms: O_8  and  C_9
REMARK    4  A    between atoms: C_9  and  C_10
REMARK    5  A    between atoms: C_10  and  C_13
REMARK                            x       y       z     vdW  Elec       q    Type
REMARK                         _______ _______ _______ _____ _____    ______ ____
ROOT
ATOM      1  C   UNL     1      43.477   4.542  12.197  0.00  0.00    +0.000 C 
ATOM      2  F   UNL     1      42.285   4.531  11.526  0.00  0.00    +0.000 F 
ATOM      3  F   UNL     1      43.160   4.283  13.500  0.00  0.00    +0.000 F 
ENDROOT
BRANCH   1   4
ATOM      4  C   UNL     1      44.184   5.874  12.045  0.00  0.00    +0.000 A 
ATOM      5  C   UNL     1      43.626   6.923  11.320  0.00  0.00    +0.000 A 
ATOM      6  C   UNL     1      44.312   8.124  11.287  0.00  0.00    +0.000 A 
ATOM      7  N   UNL     1      45.488   8.344  11.920  0.00  0.00    +0.000 NA
ATOM      8  C   UNL     1      46.057   7.329  12.602  0.00  0.00    +0.000 A 
ATOM      9  N   UNL     1      47.249   7.539  13.256  0.00  0.00    +0.000 N 
ATOM     10  C   UNL     1      47.658   8.889  13.658  0.00  0.00    +0.000 C 
ATOM     11  C   UNL     1      48.997   9.280  13.017  0.00  0.00    +0.000 C 
ATOM     12  O   UNL     1      50.007   8.279  13.238  0.00  0.00    +0.000 OA
ATOM     13  C   UNL     1      49.589   7.032  12.662  0.00  0.00    +0.000 C 
ATOM     14  C   UNL     1      48.296   6.515  13.311  0.00  0.00    +0.000 C 
ATOM     15  C   UNL     1      45.416   6.092  12.677  0.00  0.00    +0.000 A 
ENDBRANCH   1   4
BRANCH   1  16
ATOM     16  C   UNL     1      44.355   3.402  11.661  0.00  0.00    +0.000 C 
BRANCH  16  17
ATOM     17  O   UNL     1      43.788   2.818  10.472  0.00  0.00    +0.000 OA
BRANCH  17  21
ATOM     18  C   UNL     1      46.557   2.574   7.425  0.00  0.00    +0.000 A 
ATOM     19  C   UNL     1      45.982   3.808   7.736  0.00  0.00    +0.000 A 
ATOM     20  C   UNL     1      45.043   3.881   8.768  0.00  0.00    +0.000 A 
ATOM     21  C   UNL     1      44.717   2.718   9.454  0.00  0.00    +0.000 A 
ATOM     22  N   UNL     1      45.255   1.513   9.170  0.00  0.00    +0.000 NA
ATOM     23  C   UNL     1      46.153   1.465   8.156  0.00  0.00    +0.000 A 
BRANCH  18  25
ATOM     24  N   UNL     1      47.526   3.243   5.296  0.00  0.00    +0.000 N 
ATOM     25  C   UNL     1      47.553   2.375   6.351  0.00  0.00    +0.000 C 
ATOM     26  O   UNL     1      48.399   1.495   6.422  0.00  0.00    +0.000 OA
ATOM     27  H   UNL     1      48.291   3.162   4.636  0.00  0.00    +0.000 HD
ATOM     28  H   UNL     1      47.031   4.124   5.326  0.00  0.00    +0.000 HD
ENDBRANCH  18  25
ENDBRANCH  17  21
ENDBRANCH  16  17
ENDBRANCH   1  16
TORSDOF 5
ENDMDL
MODEL 5
REMARK VINA RESULT:    -7.114      3.816      5.896
REMARK INTER + INTRA:          -9.811
REMARK INTER:                  -9.345
REMARK INTRA:                  -0.466
REMARK UNBOUND:                -0.618
REMARK  Name = 
REMARK  5 active torsions:
REMARK  status: ('A' for Active; 'I' for Inactive)
REMARK    1  A    between atoms: C_2  and  C_4
REMARK    2  A    between atoms: C_7  and  O_8
REMARK    3  A    between atoms: O_8  and  C_9
REMARK    4  A    between atoms: C_9  and  C_10
REMARK    5  A    between atoms: C_10  and  C_13
REMARK                            x       y       z     vdW  Elec       q    Type
REMARK                         _______ _______ _______ _____ _____    ______ ____
ROOT
ATOM      1  C   UNL     1      48.210   2.962  16.718  0.00  0.00    +0.000 C 
ATOM      2  F   UNL     1      47.369   2.561  17.720  0.00  0.00    +0.000 F 
ATOM      3  F   UNL     1      48.569   1.817  16.067  0.00  0.00    +0.000 F 
ENDROOT
BRANCH   1   4
ATOM      4  C   UNL     1      49.414   3.697  17.270  0.00  0.00    +0.000 A 
ATOM      5  C   UNL     1      49.403   5.073  17.479  0.00  0.00    +0.000 A 
ATOM      6  C   UNL     1      50.524   5.652  18.047  0.00  0.00    +0.000 A 
ATOM      7  N   UNL     1      51.629   4.963  18.417  0.00  0.00    +0.000 NA
ATOM      8  C   UNL     1      51.668   3.633  18.193  0.00  0.00    +0.000 A 
ATOM      9  N   UNL     1      52.782   2.917  18.570  0.00  0.00    +0.000 N 
ATOM     10  C   UNL     1      53.678   3.418  19.617  0.00  0.00    +0.000 C 
ATOM     11  C   UNL     1      55.107   3.603  19.088  0.00  0.00    +0.000 C 
ATOM     12  O   UNL     1      55.590   2.418  18.430  0.00  0.00    +0.000 OA
ATOM     13  C   UNL     1      54.743   2.102  17.315  0.00  0.00    +0.000 C 
ATOM     14  C   UNL     1      53.303   1.810  17.764  0.00  0.00    +0.000 C 
ATOM     15  C   UNL     1      50.569   2.987  17.627  0.00  0.00    +0.000 A 
ENDBRANCH   1   4
BRANCH   1  16
ATOM     16  C   UNL     1      47.427   3.862  15.751  0.00  0.00    +0.000 C 
BRANCH  16  17
ATOM     17  O   UNL     1      47.498   3.368  14.399  0.00  0.00    +0.000 OA
BRANCH  17  21
ATOM     18  C   UNL     1      44.413   4.843  12.093  0.00  0.00    +0.000 A 
ATOM     19  C   UNL     1      45.169   5.720  12.874  0.00  0.00    +0.000 A 
ATOM     20  C   UNL     1      46.211   5.211  13.654  0.00  0.00    +0.000 A 
ATOM     21  C   UNL     1      46.461   3.845  13.621  0.00  0.00    +0.000 A 
ATOM     22  N   UNL     1      45.741   2.977  12.880  0.00  0.00    +0.000 NA
ATOM     23  C   UNL     1      44.728   3.492  12.142  0.00  0.00    +0.000 A 
BRANCH  18  25
ATOM     24  N   UNL     1      42.275   5.973  11.826  0.00  0.00    +0.000 N 
ATOM     25  C   UNL     1      43.284   5.265  11.237  0.00  0.00    +0.000 C 
ATOM     26  O   UNL     1      43.273   5.029  10.036  0.00  0.00    +0.000 OA
ATOM     27  H   UNL     1      41.577   6.353  11.198  0.00  0.00    +0.000 HD
ATOM     28  H   UNL     1      42.371   6.410  12.732  0.00  0.00    +0.000 HD
ENDBRANCH  18  25
ENDBRANCH  17  21
ENDBRANCH  16  17
ENDBRANCH   1  16
TORSDOF 5
ENDMDL
MODEL 6
REMARK VINA RESULT:    -6.979      3.626      5.630
REMARK INTER + INTRA:          -9.636
REMARK INTER:                  -9.143
REMARK INTRA:                  -0.494
REMARK UNBOUND:                -0.618
REMARK  Name = 
REMARK  5 active torsions:
REMARK  status: ('A' for Active; 'I' for Inactive)
REMARK    1  A    between atoms: C_2  and  C_4
REMARK    2  A    between atoms: C_7  and  O_8
REMARK    3  A    between atoms: O_8  and  C_9
REMARK    4  A    between atoms: C_9  and  C_10
REMARK    5  A    between atoms: C_10  and  C_13
REMARK                            x       y       z     vdW  Elec       q    Type
REMARK                         _______ _______ _______ _____ _____    ______ ____
ROOT
ATOM      1  C   UNL     1      47.981   3.121  16.821  0.00  0.00    +0.000 C 
ATOM      2  F   UNL     1      47.102   2.515  17.676  0.00  0.00    +0.000 F 
ATOM      3  F   UNL     1      48.677   2.102  16.235  0.00  0.00    +0.000 F 
ENDROOT
BRANCH   1   4
ATOM      4  C   UNL     1      48.897   4.078  17.556  0.00  0.00    +0.000 A 
ATOM      5  C   UNL     1      50.187   3.715  17.935  0.00  0.00    +0.000 A 
ATOM      6  C   UNL     1      50.976   4.673  18.545  0.00  0.00    +0.000 A 
ATOM      7  N   UNL     1      50.576   5.943  18.791  0.00  0.00    +0.000 NA
ATOM      8  C   UNL     1      49.319   6.302  18.457  0.00  0.00    +0.000 A 
ATOM      9  N   UNL     1      48.899   7.591  18.695  0.00  0.00    +0.000 N 
ATOM     10  C   UNL     1      49.867   8.685  18.818  0.00  0.00    +0.000 C 
ATOM     11  C   UNL     1      49.759   9.375  20.185  0.00  0.00    +0.000 C 
ATOM     12  O   UNL     1      48.405   9.763  20.481  0.00  0.00    +0.000 OA
ATOM     13  C   UNL     1      47.561   8.602  20.503  0.00  0.00    +0.000 C 
ATOM     14  C   UNL     1      47.537   7.895  19.140  0.00  0.00    +0.000 C 
ATOM     15  C   UNL     1      48.472   5.384  17.836  0.00  0.00    +0.000 A 
ENDBRANCH   1   4
BRANCH   1  16
ATOM     16  C   UNL     1      47.182   3.865  15.740  0.00  0.00    +0.000 C 
BRANCH  16  17
ATOM     17  O   UNL     1      47.495   3.372  14.423  0.00  0.00    +0.000 OA
BRANCH  17  21
ATOM     18  C   UNL     1      44.745   4.659  11.631  0.00  0.00    +0.000 A 
ATOM     19  C   UNL     1      45.551   5.593  12.285  0.00  0.00    +0.000 A 
ATOM     20  C   UNL     1      46.479   5.149  13.231  0.00  0.00    +0.000 A 
ATOM     21  C   UNL     1      46.568   3.786  13.485  0.00  0.00    +0.000 A 
ATOM     22  N   UNL     1      45.798   2.864  12.871  0.00  0.00    +0.000 NA
ATOM     23  C   UNL     1      44.897   3.320  11.967  0.00  0.00    +0.000 A 
BRANCH  18  25
ATOM     24  N   UNL     1      43.902   4.532   9.353  0.00  0.00    +0.000 N 
ATOM     25  C   UNL     1      43.726   5.012  10.620  0.00  0.00    +0.000 C 
ATOM     26  O   UNL     1      42.738   5.670  10.914  0.00  0.00    +0.000 OA
ATOM     27  H   UNL     1      43.132   4.685   8.711  0.00  0.00    +0.000 HD
ATOM     28  H   UNL     1      44.544   3.782   9.136  0.00  0.00    +0.000 HD
ENDBRANCH  18  25
ENDBRANCH  17  21
ENDBRANCH  16  17
ENDBRANCH   1  16
TORSDOF 5
ENDMDL
MODEL 7
REMARK VINA RESULT:    -6.917      3.794      7.657
REMARK INTER + INTRA:          -9.557
REMARK INTER:                  -8.688
REMARK INTRA:                  -0.869
REMARK UNBOUND:                -0.618
REMARK  Name = 
REMARK  5 active torsions:
REMARK  status: ('A' for Active; 'I' for Inactive)
REMARK    1  A    between atoms: C_2  and  C_4
REMARK    2  A    between atoms: C_7  and  O_8
REMARK    3  A    between atoms: O_8  and  C_9
REMARK    4  A    between atoms: C_9  and  C_10
REMARK    5  A    between atoms: C_10  and  C_13
REMARK                            x       y       z     vdW  Elec       q    Type
REMARK                         _______ _______ _______ _____ _____    ______ ____
ROOT
ATOM      1  C   UNL     1      49.168   8.252  12.181  0.00  0.00    +0.000 C 
ATOM      2  F   UNL     1      49.659   9.517  12.349  0.00  0.00    +0.000 F 
ATOM      3  F   UNL     1      49.683   7.818  10.993  0.00  0.00    +0.000 F 
ENDROOT
BRANCH   1   4
ATOM      4  C   UNL     1      47.653   8.244  12.174  0.00  0.00    +0.000 A 
ATOM      5  C   UNL     1      46.911   9.396  12.418  0.00  0.00    +0.000 A 
ATOM      6  C   UNL     1      45.533   9.310  12.327  0.00  0.00    +0.000 A 
ATOM      7  N   UNL     1      44.862   8.179  12.010  0.00  0.00    +0.000 NA
ATOM      8  C   UNL     1      45.565   7.046  11.799  0.00  0.00    +0.000 A 
ATOM      9  N   UNL     1      44.897   5.889  11.468  0.00  0.00    +0.000 N 
ATOM     10  C   UNL     1      43.563   5.938  10.860  0.00  0.00    +0.000 C 
ATOM     11  C   UNL     1      42.529   5.200  11.722  0.00  0.00    +0.000 C 
ATOM     12  O   UNL     1      42.965   3.870  12.056  0.00  0.00    +0.000 OA
ATOM     13  C   UNL     1      44.194   3.932  12.796  0.00  0.00    +0.000 C 
ATOM     14  C   UNL     1      45.318   4.579  11.972  0.00  0.00    +0.000 C 
ATOM     15  C   UNL     1      46.958   7.064  11.872  0.00  0.00    +0.000 A 
ENDBRANCH   1   4
BRANCH   1  16
ATOM     16  C   UNL     1      49.705   7.362  13.312  0.00  0.00    +0.000 C 
BRANCH  16  17
ATOM     17  O   UNL     1      49.230   7.803  14.599  0.00  0.00    +0.000 OA
BRANCH  17  21
ATOM     18  C   UNL     1      48.048   4.668  17.004  0.00  0.00    +0.000 A 
ATOM     19  C   UNL     1      48.771   5.726  17.558  0.00  0.00    +0.000 A 
ATOM     20  C   UNL     1      49.169   6.783  16.736  0.00  0.00    +0.000 A 
ATOM     21  C   UNL     1      48.826   6.745  15.390  0.00  0.00    +0.000 A 
ATOM     22  N   UNL     1      48.134   5.731  14.829  0.00  0.00    +0.000 NA
ATOM     23  C   UNL     1      47.770   4.712  15.644  0.00  0.00    +0.000 A 
BRANCH  18  25
ATOM     24  N   UNL     1      48.292   3.148  18.888  0.00  0.00    +0.000 N 
ATOM     25  C   UNL     1      47.582   3.494  17.773  0.00  0.00    +0.000 C 
ATOM     26  O   UNL     1      46.573   2.882  17.451  0.00  0.00    +0.000 OA
ATOM     27  H   UNL     1      47.885   2.419  19.462  0.00  0.00    +0.000 HD
ATOM     28  H   UNL     1      48.955   3.771  19.328  0.00  0.00    +0.000 HD
ENDBRANCH  18  25
ENDBRANCH  17  21
ENDBRANCH  16  17
ENDBRANCH   1  16
TORSDOF 5
ENDMDL
MODEL 8
REMARK VINA RESULT:    -6.855      3.433      8.136
REMARK INTER + INTRA:          -9.477
REMARK INTER:                  -8.908
REMARK INTRA:                  -0.569
REMARK UNBOUND:                -0.618
REMARK  Name = 
REMARK  5 active torsions:
REMARK  status: ('A' for Active; 'I' for Inactive)
REMARK    1  A    between atoms: C_2  and  C_4
REMARK    2  A    between atoms: C_7  and  O_8
REMARK    3  A    between atoms: O_8  and  C_9
REMARK    4  A    between atoms: C_9  and  C_10
REMARK    5  A    between atoms: C_10  and  C_13
REMARK                            x       y       z     vdW  Elec       q    Type
REMARK                         _______ _______ _______ _____ _____    ______ ____
ROOT
ATOM      1  C   UNL     1      48.618   7.118  14.974  0.00  0.00    +0.000 C 
ATOM      2  F   UNL     1      48.581   8.211  15.796  0.00  0.00    +0.000 F 
ATOM      3  F   UNL     1      49.886   7.090  14.467  0.00  0.00    +0.000 F 
ENDROOT
BRANCH   1   4
ATOM      4  C   UNL     1      47.577   7.215  13.878  0.00  0.00    +0.000 A 
ATOM      5  C   UNL     1      47.168   8.441  13.360  0.00  0.00    +0.000 A 
ATOM      6  C   UNL     1      46.260   8.432  12.316  0.00  0.00    +0.000 A 
ATOM      7  N   UNL     1      45.749   7.307  11.764  0.00  0.00    +0.000 NA
ATOM      8  C   UNL     1      46.111   6.112  12.275  0.00  0.00    +0.000 A 
ATOM      9  N   UNL     1      45.605   4.958  11.720  0.00  0.00    +0.000 N 
ATOM     10  C   UNL     1      45.113   4.942  10.339  0.00  0.00    +0.000 C 
ATOM     11  C   UNL     1      43.636   4.528  10.277  0.00  0.00    +0.000 C 
ATOM     12  O   UNL     1      43.396   3.303  10.992  0.00  0.00    +0.000 OA
ATOM     13  C   UNL     1      43.751   3.468  12.373  0.00  0.00    +0.000 C 
ATOM     14  C   UNL     1      45.243   3.797  12.537  0.00  0.00    +0.000 C 
ATOM     15  C   UNL     1      47.026   6.050  13.326  0.00  0.00    +0.000 A 
ENDBRANCH   1   4
BRANCH   1  16
ATOM     16  C   UNL     1      48.392   5.858  15.822  0.00  0.00    +0.000 C 
BRANCH  16  17
ATOM     17  O   UNL     1      49.141   5.910  17.052  0.00  0.00    +0.000 OA
BRANCH  17  21
ATOM     18  C   UNL     1      51.528   2.589  17.581  0.00  0.00    +0.000 A 
ATOM     19  C   UNL     1      52.073   3.863  17.752  0.00  0.00    +0.000 A 
ATOM     20  C   UNL     1      51.258   4.983  17.569  0.00  0.00    +0.000 A 
ATOM     21  C   UNL     1      49.926   4.786  17.225  0.00  0.00    +0.000 A 
ATOM     22  N   UNL     1      49.377   3.567  17.048  0.00  0.00    +0.000 NA
ATOM     23  C   UNL     1      50.191   2.496  17.219  0.00  0.00    +0.000 A 
BRANCH  18  25
ATOM     24  N   UNL     1      51.608   0.220  18.129  0.00  0.00    +0.000 N 
ATOM     25  C   UNL     1      52.295   1.335  17.740  0.00  0.00    +0.000 C 
ATOM     26  O   UNL     1      53.492   1.284  17.490  0.00  0.00    +0.000 OA
ATOM     27  H   UNL     1      52.130  -0.649  18.114  0.00  0.00    +0.000 HD
ATOM     28  H   UNL     1      50.600   0.157  18.087  0.00  0.00    +0.000 HD
ENDBRANCH  18  25
ENDBRANCH  17  21
ENDBRANCH  16  17
ENDBRANCH   1  16
TORSDOF 5
ENDMDL
MODEL 9
REMARK VINA RESULT:    -6.821      3.121      4.044
REMARK INTER + INTRA:          -9.432
REMARK INTER:                  -8.617
REMARK INTRA:                  -0.815
REMARK UNBOUND:                -0.618
REMARK  Name = 
REMARK  5 active torsions:
REMARK  status: ('A' for Active; 'I' for Inactive)
REMARK    1  A    between atoms: C_2  and  C_4
REMARK    2  A    between atoms: C_7  and  O_8
REMARK    3  A    between atoms: O_8  and  C_9
REMARK    4  A    between atoms: C_9  and  C_10
REMARK    5  A    between atoms: C_10  and  C_13
REMARK                            x       y       z     vdW  Elec       q    Type
REMARK                         _______ _______ _______ _____ _____    ______ ____
ROOT
ATOM      1  C   UNL     1      48.132   8.149  12.689  0.00  0.00    +0.000 C 
ATOM      2  F   UNL     1      48.347   7.442  11.539  0.00  0.00    +0.000 F 
ATOM      3  F   UNL     1      48.523   9.427  12.407  0.00  0.00    +0.000 F 
ENDROOT
BRANCH   1   4
ATOM      4  C   UNL     1      48.912   7.567  13.850  0.00  0.00    +0.000 A 
ATOM      5  C   UNL     1      50.242   7.904  14.084  0.00  0.00    +0.000 A 
ATOM      6  C   UNL     1      50.857   7.374  15.205  0.00  0.00    +0.000 A 
ATOM      7  N   UNL     1      50.244   6.555  16.091  0.00  0.00    +0.000 NA
ATOM      8  C   UNL     1      48.964   6.194  15.863  0.00  0.00    +0.000 A 
ATOM      9  N   UNL     1      48.326   5.367  16.758  0.00  0.00    +0.000 N 
ATOM     10  C   UNL     1      48.780   5.272  18.149  0.00  0.00    +0.000 C 
ATOM     11  C   UNL     1      49.177   3.833  18.510  0.00  0.00    +0.000 C 
ATOM     12  O   UNL     1      48.140   2.894  18.173  0.00  0.00    +0.000 OA
ATOM     13  C   UNL     1      47.881   2.941  16.762  0.00  0.00    +0.000 C 
ATOM     14  C   UNL     1      47.388   4.328  16.323  0.00  0.00    +0.000 C 
ATOM     15  C   UNL     1      48.285   6.695  14.752  0.00  0.00    +0.000 A 
ENDBRANCH   1   4
BRANCH   1  16
ATOM     16  C   UNL     1      46.627   8.144  12.996  0.00  0.00    +0.000 C 
BRANCH  16  17
ATOM     17  O   UNL     1      45.846   8.034  11.790  0.00  0.00    +0.000 OA
BRANCH  17  21
ATOM     18  C   UNL     1      44.334   4.226  11.317  0.00  0.00    +0.000 A 
ATOM     19  C   UNL     1      44.151   4.894  12.529  0.00  0.00    +0.000 A 
ATOM     20  C   UNL     1      44.668   6.183  12.682  0.00  0.00    +0.000 A 
ATOM     21  C   UNL     1      45.346   6.758  11.614  0.00  0.00    +0.000 A 
ATOM     22  N   UNL     1      45.542   6.132  10.435  0.00  0.00    +0.000 NA
ATOM     23  C   UNL     1      45.042   4.878  10.316  0.00  0.00    +0.000 A 
BRANCH  18  25
ATOM     24  N   UNL     1      44.440   2.161  10.036  0.00  0.00    +0.000 N 
ATOM     25  C   UNL     1      43.839   2.860  11.044  0.00  0.00    +0.000 C 
ATOM     26  O   UNL     1      42.956   2.355  11.723  0.00  0.00    +0.000 OA
ATOM     27  H   UNL     1      44.168   1.189   9.948  0.00  0.00    +0.000 HD
ATOM     28  H   UNL     1      45.329   2.432   9.637  0.00  0.00    +0.000 HD
ENDBRANCH  18  25
ENDBRANCH  17  21
ENDBRANCH  16  17
ENDBRANCH   1  16
TORSDOF 5
ENDMDL
