MODEL 1
REMARK VINA RESULT:    -9.640      0.000      0.000
REMARK INTER + INTRA:         -13.897
REMARK INTER:                 -13.021
REMARK INTRA:                  -0.875
REMARK UNBOUND:                -0.875
REMARK  Name = 
REMARK  6 active torsions:
REMARK  status: ('A' for Active; 'I' for Inactive)
REMARK    1  A    between atoms: C_2  and  C_20
REMARK    2  A    between atoms: N_3  and  C_4
REMARK    3  A    between atoms: C_4  and  C_5
REMARK    4  A    between atoms: C_8  and  C_9
REMARK    5  A    between atoms: C_9  and  N_10
REMARK    6  A    between atoms: C_11  and  C_13
REMARK                            x       y       z     vdW  Elec       q    Type
REMARK                         _______ _______ _______ _____ _____    ______ ____
ROOT
ATOM      1  C   UNL     1      45.963   4.381  14.654  0.00  0.00    +0.000 C 
ENDROOT
BRANCH   1   2
ATOM      2  C   UNL     1      46.089   4.848  13.194  0.00  0.00    +0.000 C 
ATOM      3  C   UNL     1      45.944   3.679  12.196  0.00  0.00    +0.000 C 
ATOM      4  C   UNL     1      44.507   3.159  12.060  0.00  0.00    +0.000 C 
ATOM      5  C   UNL     1      43.480   4.275  11.789  0.00  0.00    +0.000 C 
ATOM      6  C   UNL     1      43.628   5.356  12.877  0.00  0.00    +0.000 C 
ATOM      7  C   UNL     1      45.043   5.937  12.905  0.00  0.00    +0.000 C 
BRANCH   5   8
ATOM      8  C   UNL     1      43.626   4.830  10.355  0.00  0.00    +0.000 C 
BRANCH   8   9
ATOM      9  N   UNL     1      44.125   3.849   9.404  0.00  0.00    +0.000 N 
ATOM     10  C   UNL     1      45.239   4.097   8.635  0.00  0.00    +0.000 C 
ATOM     11  O   UNL     1      45.856   5.162   8.678  0.00  0.00    +0.000 OA
ATOM     12  H   UNL     1      43.612   2.990   9.251  0.00  0.00    +0.000 HD
BRANCH  10  13
ATOM     13  C   UNL     1      45.609   2.958   7.701  0.00  0.00    +0.000 C 
ATOM     14  C   UNL     1      45.986   1.682   8.449  0.00  0.00    +0.000 C 
ATOM     15  C   UNL     1      46.851   0.888   7.476  0.00  0.00    +0.000 C 
ATOM     16  C   UNL     1      47.329   1.878   6.417  0.00  0.00    +0.000 C 
ATOM     17  C   UNL     1      46.865   3.250   6.883  0.00  0.00    +0.000 C 
ENDBRANCH  10  13
ENDBRANCH   8   9
ENDBRANCH   5   8
ENDBRANCH   1   2
BRANCH   1  20
ATOM     18  O   UNL     1      46.463   3.383  17.191  0.00  0.00    +0.000 OA
ATOM     19  C   UNL     1      47.327   4.066  16.647  0.00  0.00    +0.000 C 
ATOM     20  N   UNL     1      47.158   4.638  15.407  0.00  0.00    +0.000 N 
ATOM     21  H   UNL     1      47.951   5.018  14.911  0.00  0.00    +0.000 HD
BRANCH  19  22
ATOM     22  C   UNL     1      48.604   4.349  17.283  0.00  0.00    +0.000 A 
ATOM     23  C   UNL     1      48.846   5.533  17.963  0.00  0.00    +0.000 A 
ATOM     24  S   UNL     1      50.414   5.588  18.652  0.00  0.00    +0.000 S 
ATOM     25  C   UNL     1      50.791   4.036  18.069  0.00  0.00    +0.000 A 
ATOM     26  N   UNL     1      51.992   3.452  18.306  0.00  0.00    +0.000 NA
ATOM     27  C   UNL     1      52.117   2.262  17.812  0.00  0.00    +0.000 A 
ATOM     28  N   UNL     1      51.147   1.603  17.101  0.00  0.00    +0.000 N 
ATOM     29  C   UNL     1      49.955   2.166  16.780  0.00  0.00    +0.000 A 
ATOM     30  O   UNL     1      49.174   1.589  16.003  0.00  0.00    +0.000 OA
ATOM     31  C   UNL     1      49.749   3.488  17.339  0.00  0.00    +0.000 A 
ATOM     32  H   UNL     1      51.332   0.689  16.710  0.00  0.00    +0.000 HD
ENDBRANCH  19  22
ENDBRANCH   1  20
TORSDOF 6
ENDMDL
MODEL 2
REMARK VINA RESULT:    -8.747      1.264      1.918
REMARK INTER + INTRA:         -12.690
REMARK INTER:                 -11.760
REMARK INTRA:                  -0.930
REMARK UNBOUND:                -0.875
REMARK  Name = 
REMARK  6 active torsions:
REMARK  status: ('A' for Active; 'I' for Inactive)
REMARK    1  A    between atoms: C_2  and  C_20
REMARK    2  A    between atoms: N_3  and  C_4
REMARK    3  A    between atoms: C_4  and  C_5
REMARK    4  A    between atoms: C_8  and  C_9
REMARK    5  A    between atoms: C_9  and  N_10
REMARK    6  A    between atoms: C_11  and  C_13
REMARK                            x       y       z     vdW  Elec       q    Type
REMARK                         _______ _______ _______ _____ _____    ______ ____
ROOT
ATOM      1  C   UNL     1      46.009   4.378  14.640  0.00  0.00    +0.000 C 
ENDROOT
BRANCH   1   2
ATOM      2  C   UNL     1      46.095   4.827  13.171  0.00  0.00    +0.000 C 
ATOM      3  C   UNL     1      45.869   3.655  12.192  0.00  0.00    +0.000 C 
ATOM      4  C   UNL     1      44.409   3.186  12.117  0.00  0.00    +0.000 C 
ATOM      5  C   UNL     1      43.413   4.336  11.876  0.00  0.00    +0.000 C 
ATOM      6  C   UNL     1      43.643   5.421  12.946  0.00  0.00    +0.000 C 
ATOM      7  C   UNL     1      45.078   5.950  12.913  0.00  0.00    +0.000 C 
BRANCH   5   8
ATOM      8  C   UNL     1      43.522   4.873  10.432  0.00  0.00    +0.000 C 
BRANCH   8   9
ATOM      9  N   UNL     1      44.040   3.894   9.489  0.00  0.00    +0.000 N 
ATOM     10  C   UNL     1      45.155   4.153   8.724  0.00  0.00    +0.000 C 
ATOM     11  O   UNL     1      45.756   5.228   8.763  0.00  0.00    +0.000 OA
ATOM     12  H   UNL     1      43.541   3.026   9.338  0.00  0.00    +0.000 HD
BRANCH  10  13
ATOM     13  C   UNL     1      45.546   3.014   7.799  0.00  0.00    +0.000 C 
ATOM     14  C   UNL     1      45.929   1.745   8.556  0.00  0.00    +0.000 C 
ATOM     15  C   UNL     1      46.812   0.956   7.595  0.00  0.00    +0.000 C 
ATOM     16  C   UNL     1      47.290   1.946   6.537  0.00  0.00    +0.000 C 
ATOM     17  C   UNL     1      46.807   3.315   6.992  0.00  0.00    +0.000 C 
ENDBRANCH  10  13
ENDBRANCH   8   9
ENDBRANCH   5   8
ENDBRANCH   1   2
BRANCH   1  20
ATOM     18  O   UNL     1      46.453   3.252  17.134  0.00  0.00    +0.000 OA
ATOM     19  C   UNL     1      47.424   3.556  16.444  0.00  0.00    +0.000 C 
ATOM     20  N   UNL     1      47.307   4.155  15.211  0.00  0.00    +0.000 N 
ATOM     21  H   UNL     1      48.105   4.204  14.594  0.00  0.00    +0.000 HD
BRANCH  19  22
ATOM     22  C   UNL     1      48.790   3.326  16.887  0.00  0.00    +0.000 A 
ATOM     23  C   UNL     1      49.381   2.072  16.845  0.00  0.00    +0.000 A 
ATOM     24  S   UNL     1      51.007   2.092  17.384  0.00  0.00    +0.000 S 
ATOM     25  C   UNL     1      50.956   3.768  17.669  0.00  0.00    +0.000 A 
ATOM     26  N   UNL     1      52.031   4.449  18.137  0.00  0.00    +0.000 NA
ATOM     27  C   UNL     1      51.839   5.721  18.282  0.00  0.00    +0.000 A 
ATOM     28  N   UNL     1      50.665   6.373  18.001  0.00  0.00    +0.000 N 
ATOM     29  C   UNL     1      49.542   5.729  17.594  0.00  0.00    +0.000 A 
ATOM     30  O   UNL     1      48.464   6.342  17.502  0.00  0.00    +0.000 OA
ATOM     31  C   UNL     1      49.712   4.306  17.381  0.00  0.00    +0.000 A 
ATOM     32  H   UNL     1      50.576   7.364  18.179  0.00  0.00    +0.000 HD
ENDBRANCH  19  22
ENDBRANCH   1  20
TORSDOF 6
ENDMDL
MODEL 3
REMARK VINA RESULT:    -8.323      2.135      2.703
REMARK INTER + INTRA:         -12.118
REMARK INTER:                 -11.075
REMARK INTRA:                  -1.043
REMARK UNBOUND:                -0.875
REMARK  Name = 
REMARK  6 active torsions:
REMARK  status: ('A' for Active; 'I' for Inactive)
REMARK    1  A    between atoms: C_2  and  C_20
REMARK    2  A    between atoms: N_3  and  C_4
REMARK    3  A    between atoms: C_4  and  C_5
REMARK    4  A    between atoms: C_8  and  C_9
REMARK    5  A    between atoms: C_9  and  N_10
REMARK    6  A    between atoms: C_11  and  C_13
REMARK                            x       y       z     vdW  Elec       q    Type
REMARK                         _______ _______ _______ _____ _____    ______ ____
ROOT
ATOM      1  C   UNL     1      46.243   4.303  14.508  0.00  0.00    +0.000 C 
ENDROOT
BRANCH   1   2
ATOM      2  C   UNL     1      46.258   4.773  13.043  0.00  0.00    +0.000 C 
ATOM      3  C   UNL     1      45.955   3.621  12.061  0.00  0.00    +0.000 C 
ATOM      4  C   UNL     1      44.484   3.183  12.058  0.00  0.00    +0.000 C 
ATOM      5  C   UNL     1      43.501   4.357  11.888  0.00  0.00    +0.000 C 
ATOM      6  C   UNL     1      43.811   5.420  12.960  0.00  0.00    +0.000 C 
ATOM      7  C   UNL     1      45.253   5.920  12.857  0.00  0.00    +0.000 C 
BRANCH   5   8
ATOM      8  C   UNL     1      43.543   4.915  10.448  0.00  0.00    +0.000 C 
BRANCH   8   9
ATOM      9  N   UNL     1      44.036   3.956   9.472  0.00  0.00    +0.000 N 
ATOM     10  C   UNL     1      45.146   4.221   8.703  0.00  0.00    +0.000 C 
ATOM     11  O   UNL     1      45.764   5.285   8.766  0.00  0.00    +0.000 OA
ATOM     12  H   UNL     1      43.522   3.101   9.302  0.00  0.00    +0.000 HD
BRANCH  10  13
ATOM     13  C   UNL     1      45.510   3.104   7.740  0.00  0.00    +0.000 C 
ATOM     14  C   UNL     1      45.999   1.847   8.455  0.00  0.00    +0.000 C 
ATOM     15  C   UNL     1      46.837   1.099   7.424  0.00  0.00    +0.000 C 
ATOM     16  C   UNL     1      47.193   2.113   6.340  0.00  0.00    +0.000 C 
ATOM     17  C   UNL     1      46.693   3.459   6.843  0.00  0.00    +0.000 C 
ENDBRANCH  10  13
ENDBRANCH   8   9
ENDBRANCH   5   8
ENDBRANCH   1   2
BRANCH   1  20
ATOM     18  O   UNL     1      48.238   3.447  16.232  0.00  0.00    +0.000 OA
ATOM     19  C   UNL     1      48.002   4.651  16.156  0.00  0.00    +0.000 C 
ATOM     20  N   UNL     1      47.007   5.169  15.360  0.00  0.00    +0.000 N 
ATOM     21  H   UNL     1      46.974   6.160  15.170  0.00  0.00    +0.000 HD
BRANCH  19  22
ATOM     22  C   UNL     1      48.746   5.635  16.926  0.00  0.00    +0.000 A 
ATOM     23  C   UNL     1      48.778   5.622  18.312  0.00  0.00    +0.000 A 
ATOM     24  S   UNL     1      49.763   6.864  18.960  0.00  0.00    +0.000 S 
ATOM     25  C   UNL     1      50.175   7.430  17.410  0.00  0.00    +0.000 A 
ATOM     26  N   UNL     1      51.007   8.486  17.229  0.00  0.00    +0.000 NA
ATOM     27  C   UNL     1      51.238   8.782  15.990  0.00  0.00    +0.000 A 
ATOM     28  N   UNL     1      50.708   8.115  14.914  0.00  0.00    +0.000 N 
ATOM     29  C   UNL     1      49.820   7.096  15.040  0.00  0.00    +0.000 A 
ATOM     30  O   UNL     1      49.252   6.629  14.038  0.00  0.00    +0.000 OA
ATOM     31  C   UNL     1      49.554   6.701  16.409  0.00  0.00    +0.000 A 
ATOM     32  H   UNL     1      50.901   8.430  13.973  0.00  0.00    +0.000 HD
ENDBRANCH  19  22
ENDBRANCH   1  20
TORSDOF 6
ENDMDL
MODEL 4
REMARK VINA RESULT:    -8.261      2.112      2.569
REMARK INTER + INTRA:         -12.034
REMARK INTER:                 -11.390
REMARK INTRA:                  -0.644
REMARK UNBOUND:                -0.875
REMARK  Name = 
REMARK  6 active torsions:
REMARK  status: ('A' for Active; 'I' for Inactive)
REMARK    1  A    between atoms: C_2  and  C_20
REMARK    2  A    between atoms: N_3  and  C_4
REMARK    3  A    between atoms: C_4  and  C_5
REMARK    4  A    between atoms: C_8  and  C_9
REMARK    5  A    between atoms: C_9  and  N_10
REMARK    6  A    between atoms: C_11  and  C_13
REMARK                            x       y       z     vdW  Elec       q    Type
REMARK                         _______ _______ _______ _____ _____    ______ ____
ROOT
ATOM      1  C   UNL     1      47.189   6.673  13.030  0.00  0.00    +0.000 C 
ENDROOT
BRANCH   1   2
ATOM      2  C   UNL     1      46.515   5.468  12.353  0.00  0.00    +0.000 C 
ATOM      3  C   UNL     1      45.311   4.944  13.166  0.00  0.00    +0.000 C 
ATOM      4  C   UNL     1      44.079   5.857  13.101  0.00  0.00    +0.000 C 
ATOM      5  C   UNL     1      43.679   6.237  11.663  0.00  0.00    +0.000 C 
ATOM      6  C   UNL     1      44.908   6.834  10.950  0.00  0.00    +0.000 C 
ATOM      7  C   UNL     1      46.080   5.850  10.929  0.00  0.00    +0.000 C 
BRANCH   5   8
ATOM      8  C   UNL     1      43.069   5.030  10.917  0.00  0.00    +0.000 C 
BRANCH   8   9
ATOM      9  N   UNL     1      43.839   4.621   9.753  0.00  0.00    +0.000 N 
ATOM     10  C   UNL     1      44.176   3.303   9.541  0.00  0.00    +0.000 C 
ATOM     11  O   UNL     1      43.881   2.404  10.329  0.00  0.00    +0.000 OA
ATOM     12  H   UNL     1      44.194   5.321   9.112  0.00  0.00    +0.000 HD
BRANCH  10  13
ATOM     13  C   UNL     1      44.981   3.069   8.274  0.00  0.00    +0.000 C 
ATOM     14  C   UNL     1      45.882   1.840   8.369  0.00  0.00    +0.000 C 
ATOM     15  C   UNL     1      46.985   2.073   7.342  0.00  0.00    +0.000 C 
ATOM     16  C   UNL     1      46.974   3.566   7.027  0.00  0.00    +0.000 C 
ATOM     17  C   UNL     1      45.975   4.192   7.990  0.00  0.00    +0.000 C 
ENDBRANCH  10  13
ENDBRANCH   8   9
ENDBRANCH   5   8
ENDBRANCH   1   2
BRANCH   1  20
ATOM     18  O   UNL     1      49.709   6.948  14.153  0.00  0.00    +0.000 OA
ATOM     19  C   UNL     1      48.775   6.614  14.878  0.00  0.00    +0.000 C 
ATOM     20  N   UNL     1      47.497   6.414  14.408  0.00  0.00    +0.000 N 
ATOM     21  H   UNL     1      46.726   6.338  15.054  0.00  0.00    +0.000 HD
BRANCH  19  22
ATOM     22  C   UNL     1      48.948   6.378  16.303  0.00  0.00    +0.000 A 
ATOM     23  C   UNL     1      49.429   7.354  17.162  0.00  0.00    +0.000 A 
ATOM     24  S   UNL     1      49.492   6.826  18.790  0.00  0.00    +0.000 S 
ATOM     25  C   UNL     1      48.868   5.297  18.382  0.00  0.00    +0.000 A 
ATOM     26  N   UNL     1      48.655   4.336  19.315  0.00  0.00    +0.000 NA
ATOM     27  C   UNL     1      48.158   3.236  18.849  0.00  0.00    +0.000 A 
ATOM     28  N   UNL     1      47.855   3.010  17.530  0.00  0.00    +0.000 N 
ATOM     29  C   UNL     1      48.110   3.912  16.549  0.00  0.00    +0.000 A 
ATOM     30  O   UNL     1      47.963   3.601  15.354  0.00  0.00    +0.000 OA
ATOM     31  C   UNL     1      48.635   5.178  17.022  0.00  0.00    +0.000 A 
ATOM     32  H   UNL     1      47.508   2.109  17.233  0.00  0.00    +0.000 HD
ENDBRANCH  19  22
ENDBRANCH   1  20
TORSDOF 6
ENDMDL
MODEL 5
REMARK VINA RESULT:    -8.218      1.964      2.771
REMARK INTER + INTRA:         -11.976
REMARK INTER:                 -10.975
REMARK INTRA:                  -1.001
REMARK UNBOUND:                -0.875
REMARK  Name = 
REMARK  6 active torsions:
REMARK  status: ('A' for Active; 'I' for Inactive)
REMARK    1  A    between atoms: C_2  and  C_20
REMARK    2  A    between atoms: N_3  and  C_4
REMARK    3  A    between atoms: C_4  and  C_5
REMARK    4  A    between atoms: C_8  and  C_9
REMARK    5  A    between atoms: C_9  and  N_10
REMARK    6  A    between atoms: C_11  and  C_13
REMARK                            x       y       z     vdW  Elec       q    Type
REMARK                         _______ _______ _______ _____ _____    ______ ____
ROOT
ATOM      1  C   UNL     1      46.316   4.348  14.661  0.00  0.00    +0.000 C 
ENDROOT
BRANCH   1   2
ATOM      2  C   UNL     1      46.376   4.819  13.198  0.00  0.00    +0.000 C 
ATOM      3  C   UNL     1      46.088   3.671  12.207  0.00  0.00    +0.000 C 
ATOM      4  C   UNL     1      44.613   3.249  12.164  0.00  0.00    +0.000 C 
ATOM      5  C   UNL     1      43.647   4.434  11.969  0.00  0.00    +0.000 C 
ATOM      6  C   UNL     1      43.939   5.492  13.049  0.00  0.00    +0.000 C 
ATOM      7  C   UNL     1      45.389   5.977  12.985  0.00  0.00    +0.000 C 
BRANCH   5   8
ATOM      8  C   UNL     1      43.734   4.991  10.531  0.00  0.00    +0.000 C 
BRANCH   8   9
ATOM      9  N   UNL     1      44.174   4.006   9.555  0.00  0.00    +0.000 N 
ATOM     10  C   UNL     1      45.257   4.239   8.737  0.00  0.00    +0.000 C 
ATOM     11  O   UNL     1      45.892   5.294   8.755  0.00  0.00    +0.000 OA
ATOM     12  H   UNL     1      43.641   3.156   9.422  0.00  0.00    +0.000 HD
BRANCH  10  13
ATOM     13  C   UNL     1      45.566   3.098   7.784  0.00  0.00    +0.000 C 
ATOM     14  C   UNL     1      45.945   1.810   8.510  0.00  0.00    +0.000 C 
ATOM     15  C   UNL     1      46.754   1.003   7.500  0.00  0.00    +0.000 C 
ATOM     16  C   UNL     1      47.211   1.989   6.428  0.00  0.00    +0.000 C 
ATOM     17  C   UNL     1      46.794   3.368   6.918  0.00  0.00    +0.000 C 
ENDBRANCH  10  13
ENDBRANCH   8   9
ENDBRANCH   5   8
ENDBRANCH   1   2
BRANCH   1  20
ATOM     18  O   UNL     1      48.372   3.359  16.236  0.00  0.00    +0.000 OA
ATOM     19  C   UNL     1      48.161   4.569  16.236  0.00  0.00    +0.000 C 
ATOM     20  N   UNL     1      47.141   5.151  15.519  0.00  0.00    +0.000 N 
ATOM     21  H   UNL     1      47.122   6.152  15.385  0.00  0.00    +0.000 HD
BRANCH  19  22
ATOM     22  C   UNL     1      48.965   5.495  17.020  0.00  0.00    +0.000 A 
ATOM     23  C   UNL     1      50.249   5.859  16.646  0.00  0.00    +0.000 A 
ATOM     24  S   UNL     1      50.952   6.993  17.721  0.00  0.00    +0.000 S 
ATOM     25  C   UNL     1      49.555   7.028  18.692  0.00  0.00    +0.000 A 
ATOM     26  N   UNL     1      49.469   7.811  19.796  0.00  0.00    +0.000 NA
ATOM     27  C   UNL     1      48.335   7.741  20.416  0.00  0.00    +0.000 A 
ATOM     28  N   UNL     1      47.278   6.957  20.030  0.00  0.00    +0.000 N 
ATOM     29  C   UNL     1      47.336   6.108  18.972  0.00  0.00    +0.000 A 
ATOM     30  O   UNL     1      46.409   5.307  18.757  0.00  0.00    +0.000 OA
ATOM     31  C   UNL     1      48.573   6.172  18.221  0.00  0.00    +0.000 A 
ATOM     32  H   UNL     1      46.436   6.922  20.588  0.00  0.00    +0.000 HD
ENDBRANCH  19  22
ENDBRANCH   1  20
TORSDOF 6
ENDMDL
MODEL 6
REMARK VINA RESULT:    -7.501      2.496      3.371
REMARK INTER + INTRA:         -11.007
REMARK INTER:                 -10.945
REMARK INTRA:                  -0.063
REMARK UNBOUND:                -0.875
REMARK  Name = 
REMARK  6 active torsions:
REMARK  status: ('A' for Active; 'I' for Inactive)
REMARK    1  A    between atoms: C_2  and  C_20
REMARK    2  A    between atoms: N_3  and  C_4
REMARK    3  A    between atoms: C_4  and  C_5
REMARK    4  A    between atoms: C_8  and  C_9
REMARK    5  A    between atoms: C_9  and  N_10
REMARK    6  A    between atoms: C_11  and  C_13
REMARK                            x       y       z     vdW  Elec       q    Type
REMARK                         _______ _______ _______ _____ _____    ______ ____
ROOT
ATOM      1  C   UNL     1      47.189   6.544  13.409  0.00  0.00    +0.000 C 
ENDROOT
BRANCH   1   2
ATOM      2  C   UNL     1      46.720   5.536  12.346  0.00  0.00    +0.000 C 
ATOM      3  C   UNL     1      45.604   4.611  12.877  0.00  0.00    +0.000 C 
ATOM      4  C   UNL     1      44.245   5.308  13.028  0.00  0.00    +0.000 C 
ATOM      5  C   UNL     1      43.808   6.068  11.761  0.00  0.00    +0.000 C 
ATOM      6  C   UNL     1      44.936   7.033  11.350  0.00  0.00    +0.000 C 
ATOM      7  C   UNL     1      46.248   6.288  11.092  0.00  0.00    +0.000 C 
BRANCH   5   8
ATOM      8  C   UNL     1      43.403   5.089  10.636  0.00  0.00    +0.000 C 
BRANCH   8   9
ATOM      9  N   UNL     1      44.527   4.642   9.828  0.00  0.00    +0.000 N 
ATOM     10  C   UNL     1      44.673   3.321   9.470  0.00  0.00    +0.000 C 
ATOM     11  O   UNL     1      43.892   2.441   9.833  0.00  0.00    +0.000 OA
ATOM     12  H   UNL     1      45.256   5.297   9.573  0.00  0.00    +0.000 HD
BRANCH  10  13
ATOM     13  C   UNL     1      45.905   3.044   8.627  0.00  0.00    +0.000 C 
ATOM     14  C   UNL     1      45.804   3.636   7.223  0.00  0.00    +0.000 C 
ATOM     15  C   UNL     1      46.768   2.817   6.372  0.00  0.00    +0.000 C 
ATOM     16  C   UNL     1      47.039   1.529   7.145  0.00  0.00    +0.000 C 
ATOM     17  C   UNL     1      46.108   1.557   8.348  0.00  0.00    +0.000 C 
ENDBRANCH  10  13
ENDBRANCH   8   9
ENDBRANCH   5   8
ENDBRANCH   1   2
BRANCH   1  20
ATOM     18  O   UNL     1      49.486   6.603  14.961  0.00  0.00    +0.000 OA
ATOM     19  C   UNL     1      48.483   6.057  15.414  0.00  0.00    +0.000 C 
ATOM     20  N   UNL     1      47.309   5.942  14.707  0.00  0.00    +0.000 N 
ATOM     21  H   UNL     1      46.457   5.671  15.178  0.00  0.00    +0.000 HD
BRANCH  19  22
ATOM     22  C   UNL     1      48.460   5.460  16.741  0.00  0.00    +0.000 A 
ATOM     23  C   UNL     1      48.513   4.088  16.937  0.00  0.00    +0.000 A 
ATOM     24  S   UNL     1      48.515   3.659  18.595  0.00  0.00    +0.000 S 
ATOM     25  C   UNL     1      48.460   5.288  19.079  0.00  0.00    +0.000 A 
ATOM     26  N   UNL     1      48.448   5.649  20.387  0.00  0.00    +0.000 NA
ATOM     27  C   UNL     1      48.425   6.927  20.592  0.00  0.00    +0.000 A 
ATOM     28  N   UNL     1      48.413   7.878  19.603  0.00  0.00    +0.000 N 
ATOM     29  C   UNL     1      48.358   7.571  18.282  0.00  0.00    +0.000 A 
ATOM     30  O   UNL     1      48.192   8.465  17.435  0.00  0.00    +0.000 OA
ATOM     31  C   UNL     1      48.417   6.151  17.996  0.00  0.00    +0.000 A 
ATOM     32  H   UNL     1      48.354   8.859  19.839  0.00  0.00    +0.000 HD
ENDBRANCH  19  22
ENDBRANCH   1  20
TORSDOF 6
ENDMDL
MODEL 7
REMARK VINA RESULT:    -7.479      2.180      2.582
REMARK INTER + INTRA:         -10.978
REMARK INTER:                 -10.697
REMARK INTRA:                  -0.282
REMARK UNBOUND:                -0.875
REMARK  Name = 
REMARK  6 active torsions:
REMARK  status: ('A' for Active; 'I' for Inactive)
REMARK    1  A    between atoms: C_2  and  C_20
REMARK    2  A    between atoms: N_3  and  C_4
REMARK    3  A    between atoms: C_4  and  C_5
REMARK    4  A    between atoms: C_8  and  C_9
REMARK    5  A    between atoms: C_9  and  N_10
REMARK    6  A    between atoms: C_11  and  C_13
REMARK                            x       y       z     vdW  Elec       q    Type
REMARK                         _______ _______ _______ _____ _____    ______ ____
ROOT
ATOM      1  C   UNL     1      46.351   4.656  14.362  0.00  0.00    +0.000 C 
ENDROOT
BRANCH   1   2
ATOM      2  C   UNL     1      46.240   5.089  12.890  0.00  0.00    +0.000 C 
ATOM      3  C   UNL     1      46.113   3.880  11.938  0.00  0.00    +0.000 C 
ATOM      4  C   UNL     1      44.741   3.194  11.993  0.00  0.00    +0.000 C 
ATOM      5  C   UNL     1      43.564   4.175  11.836  0.00  0.00    +0.000 C 
ATOM      6  C   UNL     1      43.716   5.299  12.879  0.00  0.00    +0.000 C 
ATOM      7  C   UNL     1      45.045   6.040  12.718  0.00  0.00    +0.000 C 
BRANCH   5   8
ATOM      8  C   UNL     1      43.465   4.699  10.386  0.00  0.00    +0.000 C 
BRANCH   8   9
ATOM      9  N   UNL     1      44.014   3.780   9.401  0.00  0.00    +0.000 N 
ATOM     10  C   UNL     1      45.109   4.117   8.637  0.00  0.00    +0.000 C 
ATOM     11  O   UNL     1      45.664   5.214   8.713  0.00  0.00    +0.000 OA
ATOM     12  H   UNL     1      43.551   2.898   9.221  0.00  0.00    +0.000 HD
BRANCH  10  13
ATOM     13  C   UNL     1      45.538   3.032   7.665  0.00  0.00    +0.000 C 
ATOM     14  C   UNL     1      46.017   1.766   8.369  0.00  0.00    +0.000 C 
ATOM     15  C   UNL     1      46.916   1.060   7.359  0.00  0.00    +0.000 C 
ATOM     16  C   UNL     1      47.304   2.110   6.320  0.00  0.00    +0.000 C 
ATOM     17  C   UNL     1      46.755   3.433   6.833  0.00  0.00    +0.000 C 
ENDBRANCH  10  13
ENDBRANCH   8   9
ENDBRANCH   5   8
ENDBRANCH   1   2
BRANCH   1  20
ATOM     18  O   UNL     1      48.667   5.855  13.421  0.00  0.00    +0.000 OA
ATOM     19  C   UNL     1      48.284   6.125  14.557  0.00  0.00    +0.000 C 
ATOM     20  N   UNL     1      47.170   5.553  15.127  0.00  0.00    +0.000 N 
ATOM     21  H   UNL     1      46.775   5.943  15.971  0.00  0.00    +0.000 HD
BRANCH  19  22
ATOM     22  C   UNL     1      48.995   7.065  15.410  0.00  0.00    +0.000 A 
ATOM     23  C   UNL     1      49.047   8.422  15.134  0.00  0.00    +0.000 A 
ATOM     24  S   UNL     1      49.911   9.304  16.322  0.00  0.00    +0.000 S 
ATOM     25  C   UNL     1      50.218   7.898  17.229  0.00  0.00    +0.000 A 
ATOM     26  N   UNL     1      50.914   7.932  18.392  0.00  0.00    +0.000 NA
ATOM     27  C   UNL     1      51.046   6.783  18.973  0.00  0.00    +0.000 A 
ATOM     28  N   UNL     1      50.543   5.600  18.493  0.00  0.00    +0.000 N 
ATOM     29  C   UNL     1      49.897   5.501  17.303  0.00  0.00    +0.000 A 
ATOM     30  O   UNL     1      49.598   4.386  16.840  0.00  0.00    +0.000 OA
ATOM     31  C   UNL     1      49.691   6.767  16.627  0.00  0.00    +0.000 A 
ATOM     32  H   UNL     1      50.721   4.733  18.981  0.00  0.00    +0.000 HD
ENDBRANCH  19  22
ENDBRANCH   1  20
TORSDOF 6
ENDMDL
MODEL 8
REMARK VINA RESULT:    -7.478      4.812      5.325
REMARK INTER + INTRA:         -10.976
REMARK INTER:                 -10.269
REMARK INTRA:                  -0.707
REMARK UNBOUND:                -0.875
REMARK  Name = 
REMARK  6 active torsions:
REMARK  status: ('A' for Active; 'I' for Inactive)
REMARK    1  A    between atoms: C_2  and  C_20
REMARK    2  A    between atoms: N_3  and  C_4
REMARK    3  A    between atoms: C_4  and  C_5
REMARK    4  A    between atoms: C_8  and  C_9
REMARK    5  A    between atoms: C_9  and  N_10
REMARK    6  A    between atoms: C_11  and  C_13
REMARK                            x       y       z     vdW  Elec       q    Type
REMARK                         _______ _______ _______ _____ _____    ______ ____
ROOT
ATOM      1  C   UNL     1      45.239   7.329  12.890  0.00  0.00    +0.000 C 
ENDROOT
BRANCH   1   2
ATOM      2  C   UNL     1      44.970   6.558  11.588  0.00  0.00    +0.000 C 
ATOM      3  C   UNL     1      45.870   5.311  11.456  0.00  0.00    +0.000 C 
ATOM      4  C   UNL     1      45.473   4.161  12.392  0.00  0.00    +0.000 C 
ATOM      5  C   UNL     1      43.977   3.801  12.311  0.00  0.00    +0.000 C 
ATOM      6  C   UNL     1      43.148   5.079  12.542  0.00  0.00    +0.000 C 
ATOM      7  C   UNL     1      43.486   6.163  11.516  0.00  0.00    +0.000 C 
BRANCH   5   8
ATOM      8  C   UNL     1      43.646   3.093  10.978  0.00  0.00    +0.000 C 
BRANCH   8   9
ATOM      9  N   UNL     1      44.823   2.784  10.180  0.00  0.00    +0.000 N 
ATOM     10  C   UNL     1      44.993   3.309   8.919  0.00  0.00    +0.000 C 
ATOM     11  O   UNL     1      44.157   4.035   8.380  0.00  0.00    +0.000 OA
ATOM     12  H   UNL     1      45.505   2.120  10.525  0.00  0.00    +0.000 HD
BRANCH  10  13
ATOM     13  C   UNL     1      46.280   2.875   8.240  0.00  0.00    +0.000 C 
ATOM     14  C   UNL     1      46.410   3.421   6.820  0.00  0.00    +0.000 C 
ATOM     15  C   UNL     1      47.375   2.476   6.113  0.00  0.00    +0.000 C 
ATOM     16  C   UNL     1      47.413   1.197   6.945  0.00  0.00    +0.000 C 
ATOM     17  C   UNL     1      46.354   1.365   8.025  0.00  0.00    +0.000 C 
ENDBRANCH  10  13
ENDBRANCH   8   9
ENDBRANCH   5   8
ENDBRANCH   1   2
BRANCH   1  20
ATOM     18  O   UNL     1      45.801   9.816  11.801  0.00  0.00    +0.000 OA
ATOM     19  C   UNL     1      46.706   9.199  12.358  0.00  0.00    +0.000 C 
ATOM     20  N   UNL     1      46.536   7.944  12.894  0.00  0.00    +0.000 N 
ATOM     21  H   UNL     1      47.235   7.558  13.512  0.00  0.00    +0.000 HD
BRANCH  19  22
ATOM     22  C   UNL     1      48.051   9.741  12.478  0.00  0.00    +0.000 A 
ATOM     23  C   UNL     1      48.302  10.982  13.043  0.00  0.00    +0.000 A 
ATOM     24  S   UNL     1      49.973  11.355  13.099  0.00  0.00    +0.000 S 
ATOM     25  C   UNL     1      50.390   9.868  12.386  0.00  0.00    +0.000 A 
ATOM     26  N   UNL     1      51.680   9.524  12.146  0.00  0.00    +0.000 NA
ATOM     27  C   UNL     1      51.834   8.352  11.618  0.00  0.00    +0.000 A 
ATOM     28  N   UNL     1      50.811   7.493  11.306  0.00  0.00    +0.000 N 
ATOM     29  C   UNL     1      49.502   7.815  11.464  0.00  0.00    +0.000 A 
ATOM     30  O   UNL     1      48.612   7.066  11.023  0.00  0.00    +0.000 OA
ATOM     31  C   UNL     1      49.274   9.104  12.086  0.00  0.00    +0.000 A 
ATOM     32  H   UNL     1      51.005   6.609  10.856  0.00  0.00    +0.000 HD
ENDBRANCH  19  22
ENDBRANCH   1  20
TORSDOF 6
ENDMDL
MODEL 9
REMARK VINA RESULT:    -7.350      3.981      4.765
REMARK INTER + INTRA:         -10.803
REMARK INTER:                 -10.427
REMARK INTRA:                  -0.376
REMARK UNBOUND:                -0.875
REMARK  Name = 
REMARK  6 active torsions:
REMARK  status: ('A' for Active; 'I' for Inactive)
REMARK    1  A    between atoms: C_2  and  C_20
REMARK    2  A    between atoms: N_3  and  C_4
REMARK    3  A    between atoms: C_4  and  C_5
REMARK    4  A    between atoms: C_8  and  C_9
REMARK    5  A    between atoms: C_9  and  N_10
REMARK    6  A    between atoms: C_11  and  C_13
REMARK                            x       y       z     vdW  Elec       q    Type
REMARK                         _______ _______ _______ _____ _____    ______ ____
ROOT
ATOM      1  C   UNL     1      45.011   7.185  12.893  0.00  0.00    +0.000 C 
ENDROOT
BRANCH   1   2
ATOM      2  C   UNL     1      44.748   6.416  11.588  0.00  0.00    +0.000 C 
ATOM      3  C   UNL     1      45.721   5.230  11.407  0.00  0.00    +0.000 C 
ATOM      4  C   UNL     1      45.428   4.045  12.338  0.00  0.00    +0.000 C 
ATOM      5  C   UNL     1      43.956   3.592  12.300  0.00  0.00    +0.000 C 
ATOM      6  C   UNL     1      43.057   4.811  12.578  0.00  0.00    +0.000 C 
ATOM      7  C   UNL     1      43.291   5.928  11.559  0.00  0.00    +0.000 C 
BRANCH   5   8
ATOM      8  C   UNL     1      43.626   2.882  10.968  0.00  0.00    +0.000 C 
BRANCH   8   9
ATOM      9  N   UNL     1      44.799   2.617  10.149  0.00  0.00    +0.000 N 
ATOM     10  C   UNL     1      44.974   3.226   8.927  0.00  0.00    +0.000 C 
ATOM     11  O   UNL     1      44.145   3.997   8.441  0.00  0.00    +0.000 OA
ATOM     12  H   UNL     1      45.474   1.923  10.445  0.00  0.00    +0.000 HD
BRANCH  10  13
ATOM     13  C   UNL     1      46.255   2.826   8.217  0.00  0.00    +0.000 C 
ATOM     14  C   UNL     1      46.332   3.367   6.791  0.00  0.00    +0.000 C 
ATOM     15  C   UNL     1      47.307   2.446   6.065  0.00  0.00    +0.000 C 
ATOM     16  C   UNL     1      47.405   1.174   6.904  0.00  0.00    +0.000 C 
ATOM     17  C   UNL     1      46.369   1.318   8.009  0.00  0.00    +0.000 C 
ENDBRANCH  10  13
ENDBRANCH   8   9
ENDBRANCH   5   8
ENDBRANCH   1   2
BRANCH   1  20
ATOM     18  O   UNL     1      46.598   9.431  13.245  0.00  0.00    +0.000 OA
ATOM     19  C   UNL     1      47.090   8.325  13.453  0.00  0.00    +0.000 C 
ATOM     20  N   UNL     1      46.397   7.151  13.268  0.00  0.00    +0.000 N 
ATOM     21  H   UNL     1      46.761   6.284  13.636  0.00  0.00    +0.000 HD
BRANCH  19  22
ATOM     22  C   UNL     1      48.467   8.160  13.893  0.00  0.00    +0.000 A 
ATOM     23  C   UNL     1      48.791   7.561  15.101  0.00  0.00    +0.000 A 
ATOM     24  S   UNL     1      50.483   7.458  15.351  0.00  0.00    +0.000 S 
ATOM     25  C   UNL     1      50.811   8.194  13.853  0.00  0.00    +0.000 A 
ATOM     26  N   UNL     1      52.079   8.411  13.422  0.00  0.00    +0.000 NA
ATOM     27  C   UNL     1      52.162   8.962  12.254  0.00  0.00    +0.000 A 
ATOM     28  N   UNL     1      51.088   9.317  11.477  0.00  0.00    +0.000 N 
ATOM     29  C   UNL     1      49.802   9.183  11.889  0.00  0.00    +0.000 A 
ATOM     30  O   UNL     1      48.872   9.662  11.217  0.00  0.00    +0.000 OA
ATOM     31  C   UNL     1      49.651   8.537  13.178  0.00  0.00    +0.000 A 
ATOM     32  H   UNL     1      51.230   9.783  10.592  0.00  0.00    +0.000 HD
ENDBRANCH  19  22
ENDBRANCH   1  20
TORSDOF 6
ENDMDL
