MODEL 1
REMARK VINA RESULT:    -9.173      0.000      0.000
REMARK INTER + INTRA:         -12.069
REMARK INTER:                 -11.318
REMARK INTRA:                  -0.751
REMARK UNBOUND:                -0.751
REMARK  Name = 
REMARK  8 active torsions:
REMARK  status: ('A' for Active; 'I' for Inactive)
REMARK    1  A    between atoms: C_1  and  C_2
REMARK    2  A    between atoms: C_7  and  C_8
REMARK    3  A    between atoms: C_8  and  C_9
REMARK    4  A    between atoms: C_8  and  C_10
REMARK    5  A    between atoms: C_8  and  C_11
REMARK    6  A    between atoms: C_11  and  N_12
REMARK    7  A    between atoms: C_16  and  C_17
REMARK    8  A    between atoms: C_27  and  C_28
REMARK                            x       y       z     vdW  Elec       q    Type
REMARK                         _______ _______ _______ _____ _____    ______ ____
ROOT
ATOM      1  C   UNL     1      43.752   5.398  12.021  0.00  0.00    +0.000 C 
ATOM      2  C   UNL     1      42.741   5.165  13.163  0.00  0.00    +0.000 C 
ATOM      3  C   UNL     1      43.524   6.802  11.410  0.00  0.00    +0.000 C 
ENDROOT
BRANCH   1  10
ATOM      4  C   UNL     1      47.971   9.573  14.722  0.00  0.00    +0.000 C 
ATOM      5  C   UNL     1      48.496   9.730  13.293  0.00  0.00    +0.000 C 
ATOM      6  C   UNL     1      47.787   8.792  12.299  0.00  0.00    +0.000 C 
ATOM      7  N   UNL     1      48.246   7.414  12.481  0.00  0.00    +0.000 N 
ATOM      8  C   UNL     1      47.403   6.368  12.763  0.00  0.00    +0.000 A 
ATOM      9  C   UNL     1      46.073   6.393  12.341  0.00  0.00    +0.000 A 
ATOM     10  C   UNL     1      45.199   5.326  12.562  0.00  0.00    +0.000 A 
ATOM     11  C   UNL     1      45.721   4.244  13.269  0.00  0.00    +0.000 A 
ATOM     12  C   UNL     1      47.043   4.287  13.680  0.00  0.00    +0.000 A 
ATOM     13  F   UNL     1      47.527   3.236  14.364  0.00  0.00    +0.000 F 
ATOM     14  N   UNL     1      47.887   5.306  13.436  0.00  0.00    +0.000 NA
ATOM     15  C   UNL     1      49.698   7.232  12.504  0.00  0.00    +0.000 C 
ATOM     16  C   UNL     1      50.351   8.223  13.484  0.00  0.00    +0.000 C 
ATOM     17  C   UNL     1      51.866   8.180  13.343  0.00  0.00    +0.000 C 
ATOM     18  O   UNL     1      49.927   9.579  13.235  0.00  0.00    +0.000 OA
ENDBRANCH   1  10
BRANCH   1  19
ATOM     19  C   UNL     1      43.509   4.310  10.923  0.00  0.00    +0.000 C 
BRANCH  19  20
ATOM     20  N   UNL     1      43.830   4.798   9.577  0.00  0.00    +0.000 N 
ATOM     21  C   UNL     1      44.696   3.973   8.872  0.00  0.00    +0.000 A 
ATOM     22  N   UNL     1      44.674   2.655   9.095  0.00  0.00    +0.000 NA
ATOM     23  C   UNL     1      45.594   1.903   8.452  0.00  0.00    +0.000 A 
ATOM     24  C   UNL     1      46.520   2.420   7.581  0.00  0.00    +0.000 A 
ATOM     25  C   UNL     1      46.451   3.781   7.399  0.00  0.00    +0.000 A 
ATOM     26  N   UNL     1      45.552   4.575   8.033  0.00  0.00    +0.000 NA
ATOM     27  H   UNL     1      44.227   5.726   9.512  0.00  0.00    +0.000 HD
BRANCH  24  28
ATOM     28  C   UNL     1      47.526   1.536   6.986  0.00  0.00    +0.000 C 
ATOM     29  N   UNL     1      48.659   2.101   6.466  0.00  0.00    +0.000 N 
ATOM     30  O   UNL     1      47.353   0.328   6.948  0.00  0.00    +0.000 OA
ATOM     31  H   UNL     1      48.832   3.091   6.383  0.00  0.00    +0.000 HD
ATOM     32  H   UNL     1      49.316   1.469   6.021  0.00  0.00    +0.000 HD
ENDBRANCH  24  28
ENDBRANCH  19  20
ENDBRANCH   1  19
TORSDOF 4
ENDMDL
MODEL 2
REMARK VINA RESULT:    -8.906      2.730      3.657
REMARK INTER + INTRA:         -11.739
REMARK INTER:                 -11.143
REMARK INTRA:                  -0.596
REMARK UNBOUND:                -0.751
REMARK  Name = 
REMARK  8 active torsions:
REMARK  status: ('A' for Active; 'I' for Inactive)
REMARK    1  A    between atoms: C_1  and  C_2
REMARK    2  A    between atoms: C_7  and  C_8
REMARK    3  A    between atoms: C_8  and  C_9
REMARK    4  A    between atoms: C_8  and  C_10
REMARK    5  A    between atoms: C_8  and  C_11
REMARK    6  A    between atoms: C_11  and  N_12
REMARK    7  A    between atoms: C_16  and  C_17
REMARK    8  A    between atoms: C_27  and  C_28
REMARK                            x       y       z     vdW  Elec       q    Type
REMARK                         _______ _______ _______ _____ _____    ______ ____
ROOT
ATOM      1  C   UNL     1      44.336   4.684  12.480  0.00  0.00    +0.000 C 
ATOM      2  C   UNL     1      43.516   4.045  13.620  0.00  0.00    +0.000 C 
ATOM      3  C   UNL     1      43.596   5.938  11.954  0.00  0.00    +0.000 C 
ENDROOT
BRANCH   1  10
ATOM      4  C   UNL     1      48.926   2.099  16.324  0.00  0.00    +0.000 C 
ATOM      5  C   UNL     1      48.249   2.918  17.425  0.00  0.00    +0.000 C 
ATOM      6  C   UNL     1      47.103   3.794  16.887  0.00  0.00    +0.000 C 
ATOM      7  N   UNL     1      47.639   4.941  16.153  0.00  0.00    +0.000 N 
ATOM      8  C   UNL     1      47.328   5.212  14.843  0.00  0.00    +0.000 A 
ATOM      9  C   UNL     1      46.105   4.811  14.306  0.00  0.00    +0.000 A 
ATOM     10  C   UNL     1      45.729   5.114  12.996  0.00  0.00    +0.000 A 
ATOM     11  C   UNL     1      46.668   5.809  12.235  0.00  0.00    +0.000 A 
ATOM     12  C   UNL     1      47.874   6.161  12.818  0.00  0.00    +0.000 A 
ATOM     13  F   UNL     1      48.769   6.827  12.068  0.00  0.00    +0.000 F 
ATOM     14  N   UNL     1      48.215   5.892  14.091  0.00  0.00    +0.000 NA
ATOM     15  C   UNL     1      48.670   5.710  16.851  0.00  0.00    +0.000 C 
ATOM     16  C   UNL     1      49.764   4.775  17.399  0.00  0.00    +0.000 C 
ATOM     17  C   UNL     1      50.710   5.549  18.306  0.00  0.00    +0.000 C 
ATOM     18  O   UNL     1      49.204   3.694  18.172  0.00  0.00    +0.000 OA
ENDBRANCH   1  10
BRANCH   1  19
ATOM     19  C   UNL     1      44.465   3.637  11.324  0.00  0.00    +0.000 C 
BRANCH  19  20
ATOM     20  N   UNL     1      44.274   4.242  10.001  0.00  0.00    +0.000 N 
ATOM     21  C   UNL     1      45.085   3.701   9.013  0.00  0.00    +0.000 A 
ATOM     22  N   UNL     1      45.444   2.416   9.091  0.00  0.00    +0.000 NA
ATOM     23  C   UNL     1      46.305   1.956   8.157  0.00  0.00    +0.000 A 
ATOM     24  C   UNL     1      46.801   2.731   7.138  0.00  0.00    +0.000 A 
ATOM     25  C   UNL     1      46.358   4.032   7.127  0.00  0.00    +0.000 A 
ATOM     26  N   UNL     1      45.504   4.538   8.052  0.00  0.00    +0.000 NA
ATOM     27  H   UNL     1      44.401   5.244   9.937  0.00  0.00    +0.000 HD
BRANCH  24  28
ATOM     28  C   UNL     1      47.786   2.164   6.212  0.00  0.00    +0.000 C 
ATOM     29  N   UNL     1      48.152   2.906   5.121  0.00  0.00    +0.000 N 
ATOM     30  O   UNL     1      48.262   1.057   6.407  0.00  0.00    +0.000 OA
ATOM     31  H   UNL     1      47.741   3.786   4.850  0.00  0.00    +0.000 HD
ATOM     32  H   UNL     1      48.802   2.470   4.476  0.00  0.00    +0.000 HD
ENDBRANCH  24  28
ENDBRANCH  19  20
ENDBRANCH   1  19
TORSDOF 4
ENDMDL
MODEL 3
REMARK VINA RESULT:    -8.696      1.803      2.691
REMARK INTER + INTRA:         -11.481
REMARK INTER:                 -11.409
REMARK INTRA:                  -0.071
REMARK UNBOUND:                -0.751
REMARK  Name = 
REMARK  8 active torsions:
REMARK  status: ('A' for Active; 'I' for Inactive)
REMARK    1  A    between atoms: C_1  and  C_2
REMARK    2  A    between atoms: C_7  and  C_8
REMARK    3  A    between atoms: C_8  and  C_9
REMARK    4  A    between atoms: C_8  and  C_10
REMARK    5  A    between atoms: C_8  and  C_11
REMARK    6  A    between atoms: C_11  and  N_12
REMARK    7  A    between atoms: C_16  and  C_17
REMARK    8  A    between atoms: C_27  and  C_28
REMARK                            x       y       z     vdW  Elec       q    Type
REMARK                         _______ _______ _______ _____ _____    ______ ____
ROOT
ATOM      1  C   UNL     1      44.234   4.515  12.185  0.00  0.00    +0.000 C 
ATOM      2  C   UNL     1      45.442   3.566  12.322  0.00  0.00    +0.000 C 
ATOM      3  C   UNL     1      43.325   4.373  13.430  0.00  0.00    +0.000 C 
ENDROOT
BRANCH   1  10
ATOM      4  C   UNL     1      49.955   7.555  11.449  0.00  0.00    +0.000 C 
ATOM      5  C   UNL     1      49.930   7.648  12.976  0.00  0.00    +0.000 C 
ATOM      6  C   UNL     1      48.626   7.092  13.578  0.00  0.00    +0.000 C 
ATOM      7  N   UNL     1      47.521   8.023  13.350  0.00  0.00    +0.000 N 
ATOM      8  C   UNL     1      46.367   7.679  12.690  0.00  0.00    +0.000 A 
ATOM      9  C   UNL     1      45.907   6.362  12.703  0.00  0.00    +0.000 A 
ATOM     10  C   UNL     1      44.711   5.983  12.089  0.00  0.00    +0.000 A 
ATOM     11  C   UNL     1      44.017   6.992  11.423  0.00  0.00    +0.000 A 
ATOM     12  C   UNL     1      44.535   8.276  11.429  0.00  0.00    +0.000 A 
ATOM     13  F   UNL     1      43.855   9.236  10.778  0.00  0.00    +0.000 F 
ATOM     14  N   UNL     1      45.673   8.640  12.049  0.00  0.00    +0.000 NA
ATOM     15  C   UNL     1      47.780   9.413  13.729  0.00  0.00    +0.000 C 
ATOM     16  C   UNL     1      49.113   9.896  13.131  0.00  0.00    +0.000 C 
ATOM     17  C   UNL     1      49.483  11.258  13.704  0.00  0.00    +0.000 C 
ATOM     18  O   UNL     1      50.193   8.988  13.430  0.00  0.00    +0.000 OA
ENDBRANCH   1  10
BRANCH   1  19
ATOM     19  C   UNL     1      43.429   4.102  10.908  0.00  0.00    +0.000 C 
BRANCH  19  20
ATOM     20  N   UNL     1      43.892   4.806   9.707  0.00  0.00    +0.000 N 
ATOM     21  C   UNL     1      44.764   4.065   8.922  0.00  0.00    +0.000 A 
ATOM     22  N   UNL     1      44.644   2.734   8.885  0.00  0.00    +0.000 NA
ATOM     23  C   UNL     1      45.568   2.048   8.178  0.00  0.00    +0.000 A 
ATOM     24  C   UNL     1      46.594   2.647   7.491  0.00  0.00    +0.000 A 
ATOM     25  C   UNL     1      46.624   4.020   7.569  0.00  0.00    +0.000 A 
ATOM     26  N   UNL     1      45.723   4.747   8.277  0.00  0.00    +0.000 NA
ATOM     27  H   UNL     1      44.349   5.698   9.851  0.00  0.00    +0.000 HD
BRANCH  24  28
ATOM     28  C   UNL     1      47.592   1.817   6.812  0.00  0.00    +0.000 C 
ATOM     29  N   UNL     1      48.683   2.434   6.260  0.00  0.00    +0.000 N 
ATOM     30  O   UNL     1      47.450   0.607   6.733  0.00  0.00    +0.000 OA
ATOM     31  H   UNL     1      48.825   3.432   6.210  0.00  0.00    +0.000 HD
ATOM     32  H   UNL     1      49.333   1.840   5.758  0.00  0.00    +0.000 HD
ENDBRANCH  24  28
ENDBRANCH  19  20
ENDBRANCH   1  19
TORSDOF 4
ENDMDL
MODEL 4
REMARK VINA RESULT:    -7.986      2.245      2.622
REMARK INTER + INTRA:         -10.604
REMARK INTER:                 -10.089
REMARK INTRA:                  -0.516
REMARK UNBOUND:                -0.751
REMARK  Name = 
REMARK  8 active torsions:
REMARK  status: ('A' for Active; 'I' for Inactive)
REMARK    1  A    between atoms: C_1  and  C_2
REMARK    2  A    between atoms: C_7  and  C_8
REMARK    3  A    between atoms: C_8  and  C_9
REMARK    4  A    between atoms: C_8  and  C_10
REMARK    5  A    between atoms: C_8  and  C_11
REMARK    6  A    between atoms: C_11  and  N_12
REMARK    7  A    between atoms: C_16  and  C_17
REMARK    8  A    between atoms: C_27  and  C_28
REMARK                            x       y       z     vdW  Elec       q    Type
REMARK                         _______ _______ _______ _____ _____    ______ ____
ROOT
ATOM      1  C   UNL     1      45.911   6.480  12.018  0.00  0.00    +0.000 C 
ATOM      2  C   UNL     1      44.933   7.602  12.424  0.00  0.00    +0.000 C 
ATOM      3  C   UNL     1      46.935   7.034  10.998  0.00  0.00    +0.000 C 
ENDROOT
BRANCH   1  10
ATOM      4  C   UNL     1      48.038   9.029  17.630  0.00  0.00    +0.000 C 
ATOM      5  C   UNL     1      49.353   9.213  16.872  0.00  0.00    +0.000 C 
ATOM      6  C   UNL     1      49.301   8.625  15.450  0.00  0.00    +0.000 C 
ATOM      7  N   UNL     1      49.356   7.163  15.500  0.00  0.00    +0.000 N 
ATOM      8  C   UNL     1      48.391   6.351  14.959  0.00  0.00    +0.000 A 
ATOM      9  C   UNL     1      47.633   6.778  13.868  0.00  0.00    +0.000 A 
ATOM     10  C   UNL     1      46.679   5.962  13.256  0.00  0.00    +0.000 A 
ATOM     11  C   UNL     1      46.495   4.703  13.825  0.00  0.00    +0.000 A 
ATOM     12  C   UNL     1      47.264   4.344  14.920  0.00  0.00    +0.000 A 
ATOM     13  F   UNL     1      47.070   3.127  15.458  0.00  0.00    +0.000 F 
ATOM     14  N   UNL     1      48.203   5.125  15.484  0.00  0.00    +0.000 NA
ATOM     15  C   UNL     1      50.436   6.602  16.313  0.00  0.00    +0.000 C 
ATOM     16  C   UNL     1      50.462   7.258  17.705  0.00  0.00    +0.000 C 
ATOM     17  C   UNL     1      51.712   6.833  18.463  0.00  0.00    +0.000 C 
ATOM     18  O   UNL     1      50.471   8.698  17.618  0.00  0.00    +0.000 OA
ENDBRANCH   1  10
BRANCH   1  19
ATOM     19  C   UNL     1      45.086   5.330  11.349  0.00  0.00    +0.000 C 
BRANCH  19  20
ATOM     20  N   UNL     1      44.989   5.488   9.894  0.00  0.00    +0.000 N 
ATOM     21  C   UNL     1      45.433   4.385   9.178  0.00  0.00    +0.000 A 
ATOM     22  N   UNL     1      45.300   3.164   9.706  0.00  0.00    +0.000 NA
ATOM     23  C   UNL     1      45.825   2.129   9.014  0.00  0.00    +0.000 A 
ATOM     24  C   UNL     1      46.458   2.271   7.804  0.00  0.00    +0.000 A 
ATOM     25  C   UNL     1      46.527   3.560   7.331  0.00  0.00    +0.000 A 
ATOM     26  N   UNL     1      46.024   4.630   7.999  0.00  0.00    +0.000 NA
ATOM     27  H   UNL     1      45.469   6.283   9.490  0.00  0.00    +0.000 HD
BRANCH  24  28
ATOM     28  C   UNL     1      47.060   1.100   7.161  0.00  0.00    +0.000 C 
ATOM     29  N   UNL     1      46.748  -0.140   7.650  0.00  0.00    +0.000 N 
ATOM     30  O   UNL     1      47.826   1.229   6.220  0.00  0.00    +0.000 OA
ATOM     31  H   UNL     1      46.195  -0.320   8.474  0.00  0.00    +0.000 HD
ATOM     32  H   UNL     1      47.214  -0.928   7.214  0.00  0.00    +0.000 HD
ENDBRANCH  24  28
ENDBRANCH  19  20
ENDBRANCH   1  19
TORSDOF 4
ENDMDL
MODEL 5
REMARK VINA RESULT:    -6.766      4.040      6.134
REMARK INTER + INTRA:          -9.099
REMARK INTER:                  -8.477
REMARK INTRA:                  -0.623
REMARK UNBOUND:                -0.751
REMARK  Name = 
REMARK  8 active torsions:
REMARK  status: ('A' for Active; 'I' for Inactive)
REMARK    1  A    between atoms: C_1  and  C_2
REMARK    2  A    between atoms: C_7  and  C_8
REMARK    3  A    between atoms: C_8  and  C_9
REMARK    4  A    between atoms: C_8  and  C_10
REMARK    5  A    between atoms: C_8  and  C_11
REMARK    6  A    between atoms: C_11  and  N_12
REMARK    7  A    between atoms: C_16  and  C_17
REMARK    8  A    between atoms: C_27  and  C_28
REMARK                            x       y       z     vdW  Elec       q    Type
REMARK                         _______ _______ _______ _____ _____    ______ ____
ROOT
ATOM      1  C   UNL     1      49.264   8.104  13.172  0.00  0.00    +0.000 C 
ATOM      2  C   UNL     1      48.450   9.379  12.870  0.00  0.00    +0.000 C 
ATOM      3  C   UNL     1      50.620   8.172  12.429  0.00  0.00    +0.000 C 
ENDROOT
BRANCH   1  10
ATOM      4  C   UNL     1      50.330   3.251  17.394  0.00  0.00    +0.000 C 
ATOM      5  C   UNL     1      48.827   3.355  17.659  0.00  0.00    +0.000 C 
ATOM      6  C   UNL     1      48.170   4.510  16.881  0.00  0.00    +0.000 C 
ATOM      7  N   UNL     1      48.521   5.796  17.483  0.00  0.00    +0.000 N 
ATOM      8  C   UNL     1      49.142   6.809  16.794  0.00  0.00    +0.000 A 
ATOM      9  C   UNL     1      48.968   6.941  15.417  0.00  0.00    +0.000 A 
ATOM     10  C   UNL     1      49.539   7.988  14.689  0.00  0.00    +0.000 A 
ATOM     11  C   UNL     1      50.330   8.877  15.414  0.00  0.00    +0.000 A 
ATOM     12  C   UNL     1      50.481   8.682  16.777  0.00  0.00    +0.000 A 
ATOM     13  F   UNL     1      51.251   9.546  17.459  0.00  0.00    +0.000 F 
ATOM     14  N   UNL     1      49.902   7.688  17.476  0.00  0.00    +0.000 NA
ATOM     15  C   UNL     1      48.316   5.891  18.930  0.00  0.00    +0.000 C 
ATOM     16  C   UNL     1      48.960   4.690  19.646  0.00  0.00    +0.000 C 
ATOM     17  C   UNL     1      48.558   4.678  21.115  0.00  0.00    +0.000 C 
ATOM     18  O   UNL     1      48.542   3.436  19.068  0.00  0.00    +0.000 OA
ENDBRANCH   1  10
BRANCH   1  19
ATOM     19  C   UNL     1      48.451   6.871  12.653  0.00  0.00    +0.000 C 
BRANCH  19  20
ATOM     20  N   UNL     1      47.135   7.253  12.127  0.00  0.00    +0.000 N 
ATOM     21  C   UNL     1      46.288   6.178  11.899  0.00  0.00    +0.000 A 
ATOM     22  N   UNL     1      46.386   5.090  12.670  0.00  0.00    +0.000 NA
ATOM     23  C   UNL     1      45.602   4.036  12.355  0.00  0.00    +0.000 A 
ATOM     24  C   UNL     1      44.712   4.039  11.311  0.00  0.00    +0.000 A 
ATOM     25  C   UNL     1      44.666   5.208  10.589  0.00  0.00    +0.000 A 
ATOM     26  N   UNL     1      45.443   6.286  10.862  0.00  0.00    +0.000 NA
ATOM     27  H   UNL     1      47.128   7.791  11.270  0.00  0.00    +0.000 HD
BRANCH  24  28
ATOM     28  C   UNL     1      43.956   2.822  11.001  0.00  0.00    +0.000 C 
ATOM     29  N   UNL     1      44.359   2.063   9.934  0.00  0.00    +0.000 N 
ATOM     30  O   UNL     1      42.989   2.499  11.671  0.00  0.00    +0.000 OA
ATOM     31  H   UNL     1      45.090   2.310   9.286  0.00  0.00    +0.000 HD
ATOM     32  H   UNL     1      43.790   1.252   9.717  0.00  0.00    +0.000 HD
ENDBRANCH  24  28
ENDBRANCH  19  20
ENDBRANCH   1  19
TORSDOF 4
ENDMDL
MODEL 6
REMARK VINA RESULT:    -6.651      4.670      6.583
REMARK INTER + INTRA:          -8.958
REMARK INTER:                  -8.474
REMARK INTRA:                  -0.484
REMARK UNBOUND:                -0.751
REMARK  Name = 
REMARK  8 active torsions:
REMARK  status: ('A' for Active; 'I' for Inactive)
REMARK    1  A    between atoms: C_1  and  C_2
REMARK    2  A    between atoms: C_7  and  C_8
REMARK    3  A    between atoms: C_8  and  C_9
REMARK    4  A    between atoms: C_8  and  C_10
REMARK    5  A    between atoms: C_8  and  C_11
REMARK    6  A    between atoms: C_11  and  N_12
REMARK    7  A    between atoms: C_16  and  C_17
REMARK    8  A    between atoms: C_27  and  C_28
REMARK                            x       y       z     vdW  Elec       q    Type
REMARK                         _______ _______ _______ _____ _____    ______ ____
ROOT
ATOM      1  C   UNL     1      48.192   3.404  16.834  0.00  0.00    +0.000 C 
ATOM      2  C   UNL     1      48.977   2.217  16.238  0.00  0.00    +0.000 C 
ATOM      3  C   UNL     1      47.098   2.869  17.790  0.00  0.00    +0.000 C 
ENDROOT
BRANCH   1  10
ATOM      4  C   UNL     1      47.492   8.258  21.132  0.00  0.00    +0.000 C 
ATOM      5  C   UNL     1      47.628   9.161  19.904  0.00  0.00    +0.000 C 
ATOM      6  C   UNL     1      47.914   8.365  18.617  0.00  0.00    +0.000 C 
ATOM      7  N   UNL     1      49.297   7.887  18.609  0.00  0.00    +0.000 N 
ATOM      8  C   UNL     1      49.637   6.561  18.495  0.00  0.00    +0.000 A 
ATOM      9  C   UNL     1      48.803   5.670  17.821  0.00  0.00    +0.000 A 
ATOM     10  C   UNL     1      49.139   4.326  17.637  0.00  0.00    +0.000 A 
ATOM     11  C   UNL     1      50.343   3.913  18.205  0.00  0.00    +0.000 A 
ATOM     12  C   UNL     1      51.118   4.841  18.880  0.00  0.00    +0.000 A 
ATOM     13  F   UNL     1      52.274   4.424  19.425  0.00  0.00    +0.000 F 
ATOM     14  N   UNL     1      50.802   6.141  19.026  0.00  0.00    +0.000 NA
ATOM     15  C   UNL     1      50.315   8.899  18.896  0.00  0.00    +0.000 C 
ATOM     16  C   UNL     1      49.953   9.685  20.168  0.00  0.00    +0.000 C 
ATOM     17  C   UNL     1      50.891  10.871  20.338  0.00  0.00    +0.000 C 
ATOM     18  O   UNL     1      48.605  10.197  20.115  0.00  0.00    +0.000 OA
ENDBRANCH   1  10
BRANCH   1  19
ATOM     19  C   UNL     1      47.515   4.183  15.658  0.00  0.00    +0.000 C 
BRANCH  19  20
ATOM     20  N   UNL     1      47.345   3.348  14.463  0.00  0.00    +0.000 N 
ATOM     21  C   UNL     1      46.390   3.825  13.576  0.00  0.00    +0.000 A 
ATOM     22  N   UNL     1      46.184   5.143  13.479  0.00  0.00    +0.000 NA
ATOM     23  C   UNL     1      45.186   5.556  12.669  0.00  0.00    +0.000 A 
ATOM     24  C   UNL     1      44.401   4.700  11.937  0.00  0.00    +0.000 A 
ATOM     25  C   UNL     1      44.701   3.366  12.084  0.00  0.00    +0.000 A 
ATOM     26  N   UNL     1      45.687   2.907  12.896  0.00  0.00    +0.000 NA
ATOM     27  H   UNL     1      47.109   2.376  14.617  0.00  0.00    +0.000 HD
BRANCH  24  28
ATOM     28  C   UNL     1      43.294   5.236  11.141  0.00  0.00    +0.000 C 
ATOM     29  N   UNL     1      42.313   5.941  11.786  0.00  0.00    +0.000 N 
ATOM     30  O   UNL     1      43.244   5.051   9.935  0.00  0.00    +0.000 OA
ATOM     31  H   UNL     1      42.241   6.059  12.785  0.00  0.00    +0.000 HD
ATOM     32  H   UNL     1      41.537   6.260  11.216  0.00  0.00    +0.000 HD
ENDBRANCH  24  28
ENDBRANCH  19  20
ENDBRANCH   1  19
TORSDOF 4
ENDMDL
MODEL 7
REMARK VINA RESULT:    -6.572      3.324      5.317
REMARK INTER + INTRA:          -8.860
REMARK INTER:                  -8.196
REMARK INTRA:                  -0.663
REMARK UNBOUND:                -0.751
REMARK  Name = 
REMARK  8 active torsions:
REMARK  status: ('A' for Active; 'I' for Inactive)
REMARK    1  A    between atoms: C_1  and  C_2
REMARK    2  A    between atoms: C_7  and  C_8
REMARK    3  A    between atoms: C_8  and  C_9
REMARK    4  A    between atoms: C_8  and  C_10
REMARK    5  A    between atoms: C_8  and  C_11
REMARK    6  A    between atoms: C_11  and  N_12
REMARK    7  A    between atoms: C_16  and  C_17
REMARK    8  A    between atoms: C_27  and  C_28
REMARK                            x       y       z     vdW  Elec       q    Type
REMARK                         _______ _______ _______ _____ _____    ______ ____
ROOT
ATOM      1  C   UNL     1      48.198   4.342  17.086  0.00  0.00    +0.000 C 
ATOM      2  C   UNL     1      48.636   2.863  17.063  0.00  0.00    +0.000 C 
ATOM      3  C   UNL     1      47.668   4.700  18.495  0.00  0.00    +0.000 C 
ENDROOT
BRANCH   1  10
ATOM      4  C   UNL     1      49.084  10.726  16.097  0.00  0.00    +0.000 C 
ATOM      5  C   UNL     1      48.946  10.362  14.618  0.00  0.00    +0.000 C 
ATOM      6  C   UNL     1      48.803   8.845  14.397  0.00  0.00    +0.000 C 
ATOM      7  N   UNL     1      50.090   8.177  14.599  0.00  0.00    +0.000 N 
ATOM      8  C   UNL     1      50.283   7.169  15.512  0.00  0.00    +0.000 A 
ATOM      9  C   UNL     1      49.229   6.332  15.878  0.00  0.00    +0.000 A 
ATOM     10  C   UNL     1      49.397   5.263  16.762  0.00  0.00    +0.000 A 
ATOM     11  C   UNL     1      50.676   5.104  17.293  0.00  0.00    +0.000 A 
ATOM     12  C   UNL     1      51.676   5.980  16.906  0.00  0.00    +0.000 A 
ATOM     13  F   UNL     1      52.902   5.814  17.432  0.00  0.00    +0.000 F 
ATOM     14  N   UNL     1      51.513   6.988  16.030  0.00  0.00    +0.000 NA
ATOM     15  C   UNL     1      51.222   8.758  13.876  0.00  0.00    +0.000 C 
ATOM     16  C   UNL     1      51.286  10.278  14.104  0.00  0.00    +0.000 C 
ATOM     17  C   UNL     1      52.323  10.905  13.183  0.00  0.00    +0.000 C 
ATOM     18  O   UNL     1      50.019  10.914  13.834  0.00  0.00    +0.000 OA
ENDBRANCH   1  10
BRANCH   1  19
ATOM     19  C   UNL     1      47.049   4.529  16.040  0.00  0.00    +0.000 C 
BRANCH  19  20
ATOM     20  N   UNL     1      47.213   3.656  14.871  0.00  0.00    +0.000 N 
ATOM     21  C   UNL     1      46.419   4.010  13.789  0.00  0.00    +0.000 A 
ATOM     22  N   UNL     1      46.107   5.296  13.598  0.00  0.00    +0.000 NA
ATOM     23  C   UNL     1      45.261   5.584  12.585  0.00  0.00    +0.000 A 
ATOM     24  C   UNL     1      44.733   4.634  11.746  0.00  0.00    +0.000 A 
ATOM     25  C   UNL     1      45.128   3.343  12.007  0.00  0.00    +0.000 A 
ATOM     26  N   UNL     1      45.966   3.008  13.021  0.00  0.00    +0.000 NA
ATOM     27  H   UNL     1      47.048   2.668  15.016  0.00  0.00    +0.000 HD
BRANCH  24  28
ATOM     28  C   UNL     1      43.766   5.032  10.720  0.00  0.00    +0.000 C 
ATOM     29  N   UNL     1      44.067   4.770   9.409  0.00  0.00    +0.000 N 
ATOM     30  O   UNL     1      42.724   5.590  11.025  0.00  0.00    +0.000 OA
ATOM     31  H   UNL     1      44.941   4.394   9.076  0.00  0.00    +0.000 HD
ATOM     32  H   UNL     1      43.400   5.097   8.719  0.00  0.00    +0.000 HD
ENDBRANCH  24  28
ENDBRANCH  19  20
ENDBRANCH   1  19
TORSDOF 4
ENDMDL
MODEL 8
REMARK VINA RESULT:    -6.519      3.487      5.302
REMARK INTER + INTRA:          -8.794
REMARK INTER:                  -8.354
REMARK INTRA:                  -0.441
REMARK UNBOUND:                -0.751
REMARK  Name = 
REMARK  8 active torsions:
REMARK  status: ('A' for Active; 'I' for Inactive)
REMARK    1  A    between atoms: C_1  and  C_2
REMARK    2  A    between atoms: C_7  and  C_8
REMARK    3  A    between atoms: C_8  and  C_9
REMARK    4  A    between atoms: C_8  and  C_10
REMARK    5  A    between atoms: C_8  and  C_11
REMARK    6  A    between atoms: C_11  and  N_12
REMARK    7  A    between atoms: C_16  and  C_17
REMARK    8  A    between atoms: C_27  and  C_28
REMARK                            x       y       z     vdW  Elec       q    Type
REMARK                         _______ _______ _______ _____ _____    ______ ____
ROOT
ATOM      1  C   UNL     1      48.023   3.424  16.825  0.00  0.00    +0.000 C 
ATOM      2  C   UNL     1      49.354   2.644  16.842  0.00  0.00    +0.000 C 
ATOM      3  C   UNL     1      47.001   2.718  17.749  0.00  0.00    +0.000 C 
ENDROOT
BRANCH   1  10
ATOM      4  C   UNL     1      49.041   9.272  14.127  0.00  0.00    +0.000 C 
ATOM      5  C   UNL     1      50.519   8.953  14.359  0.00  0.00    +0.000 C 
ATOM      6  C   UNL     1      50.724   7.619  15.101  0.00  0.00    +0.000 C 
ATOM      7  N   UNL     1      50.375   7.764  16.515  0.00  0.00    +0.000 N 
ATOM      8  C   UNL     1      49.427   6.993  17.142  0.00  0.00    +0.000 A 
ATOM      9  C   UNL     1      49.156   5.699  16.697  0.00  0.00    +0.000 A 
ATOM     10  C   UNL     1      48.238   4.866  17.340  0.00  0.00    +0.000 A 
ATOM     11  C   UNL     1      47.573   5.416  18.435  0.00  0.00    +0.000 A 
ATOM     12  C   UNL     1      47.871   6.714  18.816  0.00  0.00    +0.000 A 
ATOM     13  F   UNL     1      47.217   7.230  19.871  0.00  0.00    +0.000 F 
ATOM     14  N   UNL     1      48.780   7.500  18.209  0.00  0.00    +0.000 NA
ATOM     15  C   UNL     1      50.988   8.902  17.201  0.00  0.00    +0.000 C 
ATOM     16  C   UNL     1      50.784  10.195  16.392  0.00  0.00    +0.000 C 
ATOM     17  C   UNL     1      51.605  11.327  16.994  0.00  0.00    +0.000 C 
ATOM     18  O   UNL     1      51.198  10.037  15.019  0.00  0.00    +0.000 OA
ENDBRANCH   1  10
BRANCH   1  19
ATOM     19  C   UNL     1      47.477   3.428  15.359  0.00  0.00    +0.000 C 
BRANCH  19  20
ATOM     20  N   UNL     1      46.667   4.617  15.069  0.00  0.00    +0.000 N 
ATOM     21  C   UNL     1      46.185   4.665  13.768  0.00  0.00    +0.000 A 
ATOM     22  N   UNL     1      45.912   3.524  13.127  0.00  0.00    +0.000 NA
ATOM     23  C   UNL     1      45.529   3.617  11.835  0.00  0.00    +0.000 A 
ATOM     24  C   UNL     1      45.391   4.809  11.169  0.00  0.00    +0.000 A 
ATOM     25  C   UNL     1      45.673   5.928  11.916  0.00  0.00    +0.000 A 
ATOM     26  N   UNL     1      46.072   5.881  13.213  0.00  0.00    +0.000 NA
ATOM     27  H   UNL     1      47.106   5.515  15.229  0.00  0.00    +0.000 HD
BRANCH  24  28
ATOM     28  C   UNL     1      45.041   4.807   9.746  0.00  0.00    +0.000 C 
ATOM     29  N   UNL     1      43.774   4.428   9.391  0.00  0.00    +0.000 N 
ATOM     30  O   UNL     1      45.861   5.127   8.901  0.00  0.00    +0.000 OA
ATOM     31  H   UNL     1      43.074   4.070  10.022  0.00  0.00    +0.000 HD
ATOM     32  H   UNL     1      43.575   4.394   8.397  0.00  0.00    +0.000 HD
ENDBRANCH  24  28
ENDBRANCH  19  20
ENDBRANCH   1  19
TORSDOF 4
ENDMDL
