MODEL 1
REMARK VINA RESULT:    -9.193      0.000      0.000
REMARK INTER + INTRA:         -11.477
REMARK INTER:                 -11.612
REMARK INTRA:                   0.134
REMARK UNBOUND:                 0.134
REMARK  Name = 
REMARK  5 active torsions:
REMARK  status: ('A' for Active; 'I' for Inactive)
REMARK    1  A    between atoms: C_2  and  C_4
REMARK    2  A    between atoms: N_8  and  C_9
REMARK    3  A    between atoms: C_9  and  C_10
REMARK    4  A    between atoms: C_14  and  C_15
REMARK    5  A    between atoms: C_18  and  O_19
REMARK                            x       y       z     vdW  Elec       q    Type
REMARK                         _______ _______ _______ _____ _____    ______ ____
ROOT
ATOM      1  C   UNL     1      43.939   4.933  11.308  0.00  0.00    +0.000 C 
ATOM      2  C   UNL     1      43.027   3.806  11.783  0.00  0.00    +0.000 C 
ATOM      3  C   UNL     1      42.496   5.192  11.712  0.00  0.00    +0.000 C 
ENDROOT
BRANCH   1   8
ATOM      4  C   UNL     1      46.298   2.084   7.861  0.00  0.00    +0.000 A 
ATOM      5  C   UNL     1      46.350   3.388   7.372  0.00  0.00    +0.000 A 
ATOM      6  C   UNL     1      45.613   4.382   8.014  0.00  0.00    +0.000 A 
ATOM      7  C   UNL     1      44.883   4.064   9.160  0.00  0.00    +0.000 A 
ATOM      8  N   UNL     1      44.273   5.126   9.874  0.00  0.00    +0.000 N 
ATOM      9  N   UNL     1      44.752   2.782   9.570  0.00  0.00    +0.000 NA
ATOM     10  C   UNL     1      45.438   1.818   8.909  0.00  0.00    +0.000 A 
ATOM     11  H   UNL     1      44.815   5.974   9.736  0.00  0.00    +0.000 HD
BRANCH   4  13
ATOM     12  N   UNL     1      46.799  -0.268   7.677  0.00  0.00    +0.000 N 
ATOM     13  C   UNL     1      47.162   1.005   7.346  0.00  0.00    +0.000 C 
ATOM     14  O   UNL     1      48.104   1.234   6.606  0.00  0.00    +0.000 OA
ATOM     15  H   UNL     1      47.288  -1.015   7.199  0.00  0.00    +0.000 HD
ATOM     16  H   UNL     1      45.883  -0.484   8.051  0.00  0.00    +0.000 HD
ENDBRANCH   4  13
ENDBRANCH   1   8
BRANCH   1  17
ATOM     17  C   UNL     1      45.061   5.245  12.301  0.00  0.00    +0.000 A 
ATOM     18  C   UNL     1      45.584   4.286  13.174  0.00  0.00    +0.000 A 
ATOM     19  C   UNL     1      46.866   4.440  13.693  0.00  0.00    +0.000 A 
ATOM     20  C   UNL     1      47.630   5.565  13.360  0.00  0.00    +0.000 A 
ATOM     21  C   UNL     1      47.092   6.614  12.596  0.00  0.00    +0.000 A 
ATOM     22  C   UNL     1      45.772   6.448  12.157  0.00  0.00    +0.000 A 
BRANCH  21  23
ATOM     23  C   UNL     1      47.889   7.778  12.152  0.00  0.00    +0.000 A 
ATOM     24  C   UNL     1      49.242   7.664  11.766  0.00  0.00    +0.000 A 
ATOM     25  C   UNL     1      49.997   8.779  11.401  0.00  0.00    +0.000 A 
ATOM     26  C   UNL     1      49.381  10.013  11.442  0.00  0.00    +0.000 A 
ATOM     27  N   UNL     1      48.100  10.199  11.798  0.00  0.00    +0.000 NA
ATOM     28  C   UNL     1      47.396   9.089  12.141  0.00  0.00    +0.000 A 
BRANCH  26  29
ATOM     29  O   UNL     1      50.060  11.148  11.120  0.00  0.00    +0.000 OA
ATOM     30  H   UNL     1      49.636  11.538  10.344  0.00  0.00    +0.000 HD
ENDBRANCH  26  29
ENDBRANCH  21  23
ENDBRANCH   1  17
TORSDOF 5
ENDMDL
MODEL 2
REMARK VINA RESULT:    -9.082      3.261      4.343
REMARK INTER + INTRA:         -11.337
REMARK INTER:                 -11.385
REMARK INTRA:                   0.048
REMARK UNBOUND:                 0.134
REMARK  Name = 
REMARK  5 active torsions:
REMARK  status: ('A' for Active; 'I' for Inactive)
REMARK    1  A    between atoms: C_2  and  C_4
REMARK    2  A    between atoms: N_8  and  C_9
REMARK    3  A    between atoms: C_9  and  C_10
REMARK    4  A    between atoms: C_14  and  C_15
REMARK    5  A    between atoms: C_18  and  O_19
REMARK                            x       y       z     vdW  Elec       q    Type
REMARK                         _______ _______ _______ _____ _____    ______ ____
ROOT
ATOM      1  C   UNL     1      44.254   4.738  11.701  0.00  0.00    +0.000 C 
ATOM      2  C   UNL     1      43.611   3.688  12.602  0.00  0.00    +0.000 C 
ATOM      3  C   UNL     1      43.073   5.073  12.600  0.00  0.00    +0.000 C 
ENDROOT
BRANCH   1   8
ATOM      4  C   UNL     1      46.203   2.235   7.765  0.00  0.00    +0.000 A 
ATOM      5  C   UNL     1      45.624   3.384   7.232  0.00  0.00    +0.000 A 
ATOM      6  C   UNL     1      44.835   4.189   8.053  0.00  0.00    +0.000 A 
ATOM      7  C   UNL     1      44.685   3.858   9.400  0.00  0.00    +0.000 A 
ATOM      8  N   UNL     1      44.007   4.779  10.237  0.00  0.00    +0.000 N 
ATOM      9  N   UNL     1      45.162   2.690   9.888  0.00  0.00    +0.000 NA
ATOM     10  C   UNL     1      45.889   1.894   9.066  0.00  0.00    +0.000 A 
ATOM     11  H   UNL     1      44.134   5.717   9.871  0.00  0.00    +0.000 HD
BRANCH   4  13
ATOM     12  N   UNL     1      48.265   2.067   6.524  0.00  0.00    +0.000 N 
ATOM     13  C   UNL     1      47.175   1.412   7.019  0.00  0.00    +0.000 C 
ATOM     14  O   UNL     1      47.048   0.204   6.915  0.00  0.00    +0.000 OA
ATOM     15  H   UNL     1      49.008   1.489   6.153  0.00  0.00    +0.000 HD
ATOM     16  H   UNL     1      48.517   2.999   6.832  0.00  0.00    +0.000 HD
ENDBRANCH   4  13
ENDBRANCH   1   8
BRANCH   1  17
ATOM     17  C   UNL     1      45.666   5.119  12.150  0.00  0.00    +0.000 A 
ATOM     18  C   UNL     1      46.378   6.179  11.581  0.00  0.00    +0.000 A 
ATOM     19  C   UNL     1      47.403   6.794  12.294  0.00  0.00    +0.000 A 
ATOM     20  C   UNL     1      47.740   6.341  13.575  0.00  0.00    +0.000 A 
ATOM     21  C   UNL     1      47.141   5.196  14.126  0.00  0.00    +0.000 A 
ATOM     22  C   UNL     1      46.166   4.566  13.341  0.00  0.00    +0.000 A 
BRANCH  21  23
ATOM     23  C   UNL     1      47.406   4.733  15.506  0.00  0.00    +0.000 A 
ATOM     24  C   UNL     1      48.345   5.367  16.348  0.00  0.00    +0.000 A 
ATOM     25  C   UNL     1      48.623   4.887  17.628  0.00  0.00    +0.000 A 
ATOM     26  C   UNL     1      47.958   3.752  18.047  0.00  0.00    +0.000 A 
ATOM     27  N   UNL     1      47.054   3.098  17.303  0.00  0.00    +0.000 NA
ATOM     28  C   UNL     1      46.805   3.598  16.065  0.00  0.00    +0.000 A 
BRANCH  26  29
ATOM     29  O   UNL     1      48.194   3.214  19.275  0.00  0.00    +0.000 OA
ATOM     30  H   UNL     1      47.936   3.867  19.940  0.00  0.00    +0.000 HD
ENDBRANCH  26  29
ENDBRANCH  21  23
ENDBRANCH   1  17
TORSDOF 5
ENDMDL
MODEL 3
REMARK VINA RESULT:    -8.257      2.775      7.161
REMARK INTER + INTRA:         -10.295
REMARK INTER:                  -9.856
REMARK INTRA:                  -0.439
REMARK UNBOUND:                 0.134
REMARK  Name = 
REMARK  5 active torsions:
REMARK  status: ('A' for Active; 'I' for Inactive)
REMARK    1  A    between atoms: C_2  and  C_4
REMARK    2  A    between atoms: N_8  and  C_9
REMARK    3  A    between atoms: C_9  and  C_10
REMARK    4  A    between atoms: C_14  and  C_15
REMARK    5  A    between atoms: C_18  and  O_19
REMARK                            x       y       z     vdW  Elec       q    Type
REMARK                         _______ _______ _______ _____ _____    ______ ____
ROOT
ATOM      1  C   UNL     1      44.316   5.324  11.755  0.00  0.00    +0.000 C 
ATOM      2  C   UNL     1      43.009   5.986  11.328  0.00  0.00    +0.000 C 
ATOM      3  C   UNL     1      43.233   5.674  12.763  0.00  0.00    +0.000 C 
ENDROOT
BRANCH   1   8
ATOM      4  C   UNL     1      47.941   5.604  15.269  0.00  0.00    +0.000 A 
ATOM      5  C   UNL     1      48.081   6.751  14.490  0.00  0.00    +0.000 A 
ATOM      6  C   UNL     1      47.339   6.867  13.316  0.00  0.00    +0.000 A 
ATOM      7  C   UNL     1      46.435   5.861  12.971  0.00  0.00    +0.000 A 
ATOM      8  N   UNL     1      45.588   6.083  11.857  0.00  0.00    +0.000 N 
ATOM      9  N   UNL     1      46.377   4.706  13.672  0.00  0.00    +0.000 NA
ATOM     10  C   UNL     1      47.138   4.587  14.788  0.00  0.00    +0.000 A 
ATOM     11  H   UNL     1      45.428   7.081  11.756  0.00  0.00    +0.000 HD
BRANCH   4  13
ATOM     12  N   UNL     1      47.811   5.874  17.663  0.00  0.00    +0.000 N 
ATOM     13  C   UNL     1      48.562   5.463  16.600  0.00  0.00    +0.000 C 
ATOM     14  O   UNL     1      49.654   4.941  16.747  0.00  0.00    +0.000 OA
ATOM     15  H   UNL     1      48.162   5.635  18.582  0.00  0.00    +0.000 HD
ATOM     16  H   UNL     1      46.817   6.050  17.581  0.00  0.00    +0.000 HD
ENDBRANCH   4  13
ENDBRANCH   1   8
BRANCH   1  17
ATOM     17  C   UNL     1      44.439   3.882  11.259  0.00  0.00    +0.000 A 
ATOM     18  C   UNL     1      43.482   2.903  11.542  0.00  0.00    +0.000 A 
ATOM     19  C   UNL     1      43.359   1.787  10.718  0.00  0.00    +0.000 A 
ATOM     20  C   UNL     1      44.206   1.631   9.615  0.00  0.00    +0.000 A 
ATOM     21  C   UNL     1      45.266   2.521   9.375  0.00  0.00    +0.000 A 
ATOM     22  C   UNL     1      45.396   3.588  10.274  0.00  0.00    +0.000 A 
BRANCH  21  23
ATOM     23  C   UNL     1      46.130   2.440   8.177  0.00  0.00    +0.000 A 
ATOM     24  C   UNL     1      46.227   3.496   7.244  0.00  0.00    +0.000 A 
ATOM     25  C   UNL     1      47.004   3.385   6.091  0.00  0.00    +0.000 A 
ATOM     26  C   UNL     1      47.670   2.195   5.877  0.00  0.00    +0.000 A 
ATOM     27  N   UNL     1      47.624   1.150   6.717  0.00  0.00    +0.000 NA
ATOM     28  C   UNL     1      46.862   1.298   7.832  0.00  0.00    +0.000 A 
BRANCH  26  29
ATOM     29  O   UNL     1      48.429   2.007   4.762  0.00  0.00    +0.000 OA
ATOM     30  H   UNL     1      49.313   1.736   5.048  0.00  0.00    +0.000 HD
ENDBRANCH  26  29
ENDBRANCH  21  23
ENDBRANCH   1  17
TORSDOF 5
ENDMDL
MODEL 4
REMARK VINA RESULT:    -7.667      3.988      7.834
REMARK INTER + INTRA:          -9.549
REMARK INTER:                  -9.432
REMARK INTRA:                  -0.117
REMARK UNBOUND:                 0.134
REMARK  Name = 
REMARK  5 active torsions:
REMARK  status: ('A' for Active; 'I' for Inactive)
REMARK    1  A    between atoms: C_2  and  C_4
REMARK    2  A    between atoms: N_8  and  C_9
REMARK    3  A    between atoms: C_9  and  C_10
REMARK    4  A    between atoms: C_14  and  C_15
REMARK    5  A    between atoms: C_18  and  O_19
REMARK                            x       y       z     vdW  Elec       q    Type
REMARK                         _______ _______ _______ _____ _____    ______ ____
ROOT
ATOM      1  C   UNL     1      48.562   8.236  13.174  0.00  0.00    +0.000 C 
ATOM      2  C   UNL     1      49.326   7.448  12.114  0.00  0.00    +0.000 C 
ATOM      3  C   UNL     1      49.491   8.924  12.186  0.00  0.00    +0.000 C 
ENDROOT
BRANCH   1   8
ATOM      4  C   UNL     1      48.069   4.950  16.985  0.00  0.00    +0.000 A 
ATOM      5  C   UNL     1      48.318   6.185  17.581  0.00  0.00    +0.000 A 
ATOM      6  C   UNL     1      48.688   7.263  16.778  0.00  0.00    +0.000 A 
ATOM      7  C   UNL     1      48.751   7.099  15.394  0.00  0.00    +0.000 A 
ATOM      8  N   UNL     1      48.979   8.250  14.599  0.00  0.00    +0.000 N 
ATOM      9  N   UNL     1      48.612   5.878  14.830  0.00  0.00    +0.000 NA
ATOM     10  C   UNL     1      48.296   4.828  15.628  0.00  0.00    +0.000 A 
ATOM     11  H   UNL     1      48.609   9.064  15.081  0.00  0.00    +0.000 HD
BRANCH   4  13
ATOM     12  N   UNL     1      48.139   3.499  18.911  0.00  0.00    +0.000 N 
ATOM     13  C   UNL     1      47.523   3.801  17.731  0.00  0.00    +0.000 C 
ATOM     14  O   UNL     1      46.532   3.201  17.351  0.00  0.00    +0.000 OA
ATOM     15  H   UNL     1      47.675   2.820  19.501  0.00  0.00    +0.000 HD
ATOM     16  H   UNL     1      48.774   4.145  19.365  0.00  0.00    +0.000 HD
ENDBRANCH   4  13
ENDBRANCH   1   8
BRANCH   1  17
ATOM     17  C   UNL     1      47.053   8.259  12.922  0.00  0.00    +0.000 A 
ATOM     18  C   UNL     1      46.387   9.386  12.431  0.00  0.00    +0.000 A 
ATOM     19  C   UNL     1      45.168   9.246  11.773  0.00  0.00    +0.000 A 
ATOM     20  C   UNL     1      44.594   7.980  11.618  0.00  0.00    +0.000 A 
ATOM     21  C   UNL     1      45.162   6.841  12.213  0.00  0.00    +0.000 A 
ATOM     22  C   UNL     1      46.351   7.042  12.928  0.00  0.00    +0.000 A 
BRANCH  21  23
ATOM     23  C   UNL     1      44.636   5.474  12.004  0.00  0.00    +0.000 A 
ATOM     24  C   UNL     1      44.396   4.946  10.717  0.00  0.00    +0.000 A 
ATOM     25  C   UNL     1      43.849   3.676  10.537  0.00  0.00    +0.000 A 
ATOM     26  C   UNL     1      43.529   2.948  11.665  0.00  0.00    +0.000 A 
ATOM     27  N   UNL     1      43.728   3.384  12.918  0.00  0.00    +0.000 NA
ATOM     28  C   UNL     1      44.268   4.623  13.053  0.00  0.00    +0.000 A 
BRANCH  26  29
ATOM     29  O   UNL     1      42.972   1.709  11.567  0.00  0.00    +0.000 OA
ATOM     30  H   UNL     1      42.108   1.806  11.142  0.00  0.00    +0.000 HD
ENDBRANCH  26  29
ENDBRANCH  21  23
ENDBRANCH   1  17
TORSDOF 5
ENDMDL
MODEL 5
REMARK VINA RESULT:    -7.475      1.757      7.113
REMARK INTER + INTRA:          -9.307
REMARK INTER:                  -8.775
REMARK INTRA:                  -0.532
REMARK UNBOUND:                 0.134
REMARK  Name = 
REMARK  5 active torsions:
REMARK  status: ('A' for Active; 'I' for Inactive)
REMARK    1  A    between atoms: C_2  and  C_4
REMARK    2  A    between atoms: N_8  and  C_9
REMARK    3  A    between atoms: C_9  and  C_10
REMARK    4  A    between atoms: C_14  and  C_15
REMARK    5  A    between atoms: C_18  and  O_19
REMARK                            x       y       z     vdW  Elec       q    Type
REMARK                         _______ _______ _______ _____ _____    ______ ____
ROOT
ATOM      1  C   UNL     1      45.899   5.318  13.169  0.00  0.00    +0.000 C 
ATOM      2  C   UNL     1      46.039   4.394  14.376  0.00  0.00    +0.000 C 
ATOM      3  C   UNL     1      47.213   4.623  13.492  0.00  0.00    +0.000 C 
ENDROOT
BRANCH   1   8
ATOM      4  C   UNL     1      49.156   8.982  11.933  0.00  0.00    +0.000 A 
ATOM      5  C   UNL     1      48.309   9.537  12.889  0.00  0.00    +0.000 A 
ATOM      6  C   UNL     1      47.179   8.825  13.288  0.00  0.00    +0.000 A 
ATOM      7  C   UNL     1      46.948   7.553  12.765  0.00  0.00    +0.000 A 
ATOM      8  N   UNL     1      45.878   6.796  13.306  0.00  0.00    +0.000 N 
ATOM      9  N   UNL     1      47.713   7.062  11.764  0.00  0.00    +0.000 NA
ATOM     10  C   UNL     1      48.783   7.785  11.352  0.00  0.00    +0.000 A 
ATOM     11  H   UNL     1      45.733   7.072  14.273  0.00  0.00    +0.000 HD
BRANCH   4  13
ATOM     12  N   UNL     1      50.700  10.830  12.074  0.00  0.00    +0.000 N 
ATOM     13  C   UNL     1      50.451   9.588  11.567  0.00  0.00    +0.000 C 
ATOM     14  O   UNL     1      51.281   8.983  10.910  0.00  0.00    +0.000 OA
ATOM     15  H   UNL     1      51.642  11.183  11.960  0.00  0.00    +0.000 HD
ATOM     16  H   UNL     1      50.150  11.221  12.830  0.00  0.00    +0.000 HD
ENDBRANCH   4  13
ENDBRANCH   1   8
BRANCH   1  17
ATOM     17  C   UNL     1      44.994   4.737  12.081  0.00  0.00    +0.000 A 
ATOM     18  C   UNL     1      43.683   5.176  11.876  0.00  0.00    +0.000 A 
ATOM     19  C   UNL     1      43.073   5.001  10.637  0.00  0.00    +0.000 A 
ATOM     20  C   UNL     1      43.762   4.367   9.597  0.00  0.00    +0.000 A 
ATOM     21  C   UNL     1      45.027   3.792   9.801  0.00  0.00    +0.000 A 
ATOM     22  C   UNL     1      45.570   3.929  11.086  0.00  0.00    +0.000 A 
BRANCH  21  23
ATOM     23  C   UNL     1      45.824   3.189   8.711  0.00  0.00    +0.000 A 
ATOM     24  C   UNL     1      45.994   1.793   8.583  0.00  0.00    +0.000 A 
ATOM     25  C   UNL     1      46.793   1.241   7.582  0.00  0.00    +0.000 A 
ATOM     26  C   UNL     1      47.432   2.108   6.719  0.00  0.00    +0.000 A 
ATOM     27  N   UNL     1      47.319   3.443   6.779  0.00  0.00    +0.000 NA
ATOM     28  C   UNL     1      46.528   3.944   7.764  0.00  0.00    +0.000 A 
BRANCH  26  29
ATOM     29  O   UNL     1      48.245   1.642   5.731  0.00  0.00    +0.000 OA
ATOM     30  H   UNL     1      48.729   0.881   6.079  0.00  0.00    +0.000 HD
ENDBRANCH  26  29
ENDBRANCH  21  23
ENDBRANCH   1  17
TORSDOF 5
ENDMDL
MODEL 6
REMARK VINA RESULT:    -7.447      2.728      7.450
REMARK INTER + INTRA:          -9.272
REMARK INTER:                  -8.898
REMARK INTRA:                  -0.373
REMARK UNBOUND:                 0.134
REMARK  Name = 
REMARK  5 active torsions:
REMARK  status: ('A' for Active; 'I' for Inactive)
REMARK    1  A    between atoms: C_2  and  C_4
REMARK    2  A    between atoms: N_8  and  C_9
REMARK    3  A    between atoms: C_9  and  C_10
REMARK    4  A    between atoms: C_14  and  C_15
REMARK    5  A    between atoms: C_18  and  O_19
REMARK                            x       y       z     vdW  Elec       q    Type
REMARK                         _______ _______ _______ _____ _____    ______ ____
ROOT
ATOM      1  C   UNL     1      45.807   7.658  11.893  0.00  0.00    +0.000 C 
ATOM      2  C   UNL     1      45.027   8.884  11.429  0.00  0.00    +0.000 C 
ATOM      3  C   UNL     1      45.268   8.680  12.881  0.00  0.00    +0.000 C 
ENDROOT
BRANCH   1   8
ATOM      4  C   UNL     1      49.543   6.825  15.196  0.00  0.00    +0.000 A 
ATOM      5  C   UNL     1      50.143   7.428  14.092  0.00  0.00    +0.000 A 
ATOM      6  C   UNL     1      49.395   7.607  12.929  0.00  0.00    +0.000 A 
ATOM      7  C   UNL     1      48.052   7.231  12.911  0.00  0.00    +0.000 A 
ATOM      8  N   UNL     1      47.284   7.569  11.768  0.00  0.00    +0.000 N 
ATOM      9  N   UNL     1      47.504   6.554  13.945  0.00  0.00    +0.000 NA
ATOM     10  C   UNL     1      48.256   6.345  15.053  0.00  0.00    +0.000 A 
ATOM     11  H   UNL     1      47.667   8.410  11.348  0.00  0.00    +0.000 HD
BRANCH   4  13
ATOM     12  N   UNL     1      49.558   7.341  17.553  0.00  0.00    +0.000 N 
ATOM     13  C   UNL     1      50.203   6.737  16.513  0.00  0.00    +0.000 C 
ATOM     14  O   UNL     1      51.229   6.098  16.676  0.00  0.00    +0.000 OA
ATOM     15  H   UNL     1      49.919   7.150  18.479  0.00  0.00    +0.000 HD
ATOM     16  H   UNL     1      48.590   7.632  17.487  0.00  0.00    +0.000 HD
ENDBRANCH   4  13
ENDBRANCH   1   8
BRANCH   1  17
ATOM     17  C   UNL     1      45.040   6.351  11.676  0.00  0.00    +0.000 A 
ATOM     18  C   UNL     1      43.683   6.213  11.981  0.00  0.00    +0.000 A 
ATOM     19  C   UNL     1      42.922   5.232  11.353  0.00  0.00    +0.000 A 
ATOM     20  C   UNL     1      43.515   4.366  10.428  0.00  0.00    +0.000 A 
ATOM     21  C   UNL     1      44.900   4.384  10.194  0.00  0.00    +0.000 A 
ATOM     22  C   UNL     1      45.638   5.340  10.905  0.00  0.00    +0.000 A 
BRANCH  21  23
ATOM     23  C   UNL     1      45.555   3.546   9.165  0.00  0.00    +0.000 A 
ATOM     24  C   UNL     1      46.156   4.097   8.013  0.00  0.00    +0.000 A 
ATOM     25  C   UNL     1      46.722   3.291   7.025  0.00  0.00    +0.000 A 
ATOM     26  C   UNL     1      46.663   1.923   7.200  0.00  0.00    +0.000 A 
ATOM     27  N   UNL     1      46.109   1.329   8.267  0.00  0.00    +0.000 NA
ATOM     28  C   UNL     1      45.573   2.147   9.211  0.00  0.00    +0.000 A 
BRANCH  26  29
ATOM     29  O   UNL     1      47.175   1.074   6.267  0.00  0.00    +0.000 OA
ATOM     30  H   UNL     1      47.849   0.531   6.699  0.00  0.00    +0.000 HD
ENDBRANCH  26  29
ENDBRANCH  21  23
ENDBRANCH   1  17
TORSDOF 5
ENDMDL
MODEL 7
REMARK VINA RESULT:    -7.310      4.441      6.576
REMARK INTER + INTRA:          -9.099
REMARK INTER:                  -8.399
REMARK INTRA:                  -0.700
REMARK UNBOUND:                 0.134
REMARK  Name = 
REMARK  5 active torsions:
REMARK  status: ('A' for Active; 'I' for Inactive)
REMARK    1  A    between atoms: C_2  and  C_4
REMARK    2  A    between atoms: N_8  and  C_9
REMARK    3  A    between atoms: C_9  and  C_10
REMARK    4  A    between atoms: C_14  and  C_15
REMARK    5  A    between atoms: C_18  and  O_19
REMARK                            x       y       z     vdW  Elec       q    Type
REMARK                         _______ _______ _______ _____ _____    ______ ____
ROOT
ATOM      1  C   UNL     1      48.303   8.264  13.115  0.00  0.00    +0.000 C 
ATOM      2  C   UNL     1      49.351   8.904  12.209  0.00  0.00    +0.000 C 
ATOM      3  C   UNL     1      49.096   7.443  12.111  0.00  0.00    +0.000 C 
ENDROOT
BRANCH   1   8
ATOM      4  C   UNL     1      44.581   4.954  12.250  0.00  0.00    +0.000 A 
ATOM      5  C   UNL     1      44.116   6.177  11.771  0.00  0.00    +0.000 A 
ATOM      6  C   UNL     1      44.849   7.332  12.041  0.00  0.00    +0.000 A 
ATOM      7  C   UNL     1      46.055   7.235  12.736  0.00  0.00    +0.000 A 
ATOM      8  N   UNL     1      46.847   8.404  12.857  0.00  0.00    +0.000 N 
ATOM      9  N   UNL     1      46.449   6.064  13.287  0.00  0.00    +0.000 NA
ATOM     10  C   UNL     1      45.703   4.956  13.056  0.00  0.00    +0.000 A 
ATOM     11  H   UNL     1      46.674   9.006  12.058  0.00  0.00    +0.000 HD
BRANCH   4  13
ATOM     12  N   UNL     1      44.478   2.555  12.481  0.00  0.00    +0.000 N 
ATOM     13  C   UNL     1      43.960   3.667  11.883  0.00  0.00    +0.000 C 
ATOM     14  O   UNL     1      42.991   3.608  11.144  0.00  0.00    +0.000 OA
ATOM     15  H   UNL     1      43.959   1.694  12.359  0.00  0.00    +0.000 HD
ATOM     16  H   UNL     1      45.087   2.615  13.289  0.00  0.00    +0.000 HD
ENDBRANCH   4  13
ENDBRANCH   1   8
BRANCH   1  17
ATOM     17  C   UNL     1      48.721   8.252  14.587  0.00  0.00    +0.000 A 
ATOM     18  C   UNL     1      48.282   9.211  15.504  0.00  0.00    +0.000 A 
ATOM     19  C   UNL     1      48.268   8.921  16.865  0.00  0.00    +0.000 A 
ATOM     20  C   UNL     1      48.713   7.677  17.324  0.00  0.00    +0.000 A 
ATOM     21  C   UNL     1      49.286   6.737  16.451  0.00  0.00    +0.000 A 
ATOM     22  C   UNL     1      49.346   7.103  15.100  0.00  0.00    +0.000 A 
BRANCH  21  23
ATOM     23  C   UNL     1      49.690   5.380  16.880  0.00  0.00    +0.000 A 
ATOM     24  C   UNL     1      50.995   5.088  17.332  0.00  0.00    +0.000 A 
ATOM     25  C   UNL     1      51.376   3.793  17.682  0.00  0.00    +0.000 A 
ATOM     26  C   UNL     1      50.436   2.790  17.556  0.00  0.00    +0.000 A 
ATOM     27  N   UNL     1      49.179   2.992  17.133  0.00  0.00    +0.000 NA
ATOM     28  C   UNL     1      48.843   4.267  16.808  0.00  0.00    +0.000 A 
BRANCH  26  29
ATOM     29  O   UNL     1      50.743   1.498  17.858  0.00  0.00    +0.000 OA
ATOM     30  H   UNL     1      50.453   1.329  18.765  0.00  0.00    +0.000 HD
ENDBRANCH  26  29
ENDBRANCH  21  23
ENDBRANCH   1  17
TORSDOF 5
ENDMDL
MODEL 8
REMARK VINA RESULT:    -7.251      4.534      7.870
REMARK INTER + INTRA:          -9.024
REMARK INTER:                  -8.416
REMARK INTRA:                  -0.608
REMARK UNBOUND:                 0.134
REMARK  Name = 
REMARK  5 active torsions:
REMARK  status: ('A' for Active; 'I' for Inactive)
REMARK    1  A    between atoms: C_2  and  C_4
REMARK    2  A    between atoms: N_8  and  C_9
REMARK    3  A    between atoms: C_9  and  C_10
REMARK    4  A    between atoms: C_14  and  C_15
REMARK    5  A    between atoms: C_18  and  O_19
REMARK                            x       y       z     vdW  Elec       q    Type
REMARK                         _______ _______ _______ _____ _____    ______ ____
ROOT
ATOM      1  C   UNL     1      49.264   8.647  15.161  0.00  0.00    +0.000 C 
ATOM      2  C   UNL     1      49.321  10.109  15.593  0.00  0.00    +0.000 C 
ATOM      3  C   UNL     1      48.239   9.235  16.117  0.00  0.00    +0.000 C 
ENDROOT
BRANCH   1   8
ATOM      4  C   UNL     1      48.552   4.171  17.403  0.00  0.00    +0.000 A 
ATOM      5  C   UNL     1      49.837   4.573  17.763  0.00  0.00    +0.000 A 
ATOM      6  C   UNL     1      50.397   5.689  17.142  0.00  0.00    +0.000 A 
ATOM      7  C   UNL     1      49.643   6.409  16.214  0.00  0.00    +0.000 A 
ATOM      8  N   UNL     1      50.184   7.623  15.720  0.00  0.00    +0.000 N 
ATOM      9  N   UNL     1      48.440   5.958  15.792  0.00  0.00    +0.000 NA
ATOM     10  C   UNL     1      47.927   4.845  16.372  0.00  0.00    +0.000 A 
ATOM     11  H   UNL     1      50.795   8.025  16.424  0.00  0.00    +0.000 HD
BRANCH   4  13
ATOM     12  N   UNL     1      48.245   2.825  19.381  0.00  0.00    +0.000 N 
ATOM     13  C   UNL     1      47.823   3.104  18.113  0.00  0.00    +0.000 C 
ATOM     14  O   UNL     1      46.851   2.554  17.624  0.00  0.00    +0.000 OA
ATOM     15  H   UNL     1      47.654   2.213  19.929  0.00  0.00    +0.000 HD
ATOM     16  H   UNL     1      48.859   3.450  19.891  0.00  0.00    +0.000 HD
ENDBRANCH   4  13
ENDBRANCH   1   8
BRANCH   1  17
ATOM     17  C   UNL     1      48.900   8.479  13.684  0.00  0.00    +0.000 A 
ATOM     18  C   UNL     1      49.840   8.599  12.657  0.00  0.00    +0.000 A 
ATOM     19  C   UNL     1      49.612   7.990  11.426  0.00  0.00    +0.000 A 
ATOM     20  C   UNL     1      48.432   7.271  11.205  0.00  0.00    +0.000 A 
ATOM     21  C   UNL     1      47.404   7.239  12.163  0.00  0.00    +0.000 A 
ATOM     22  C   UNL     1      47.649   7.930  13.358  0.00  0.00    +0.000 A 
BRANCH  21  23
ATOM     23  C   UNL     1      46.180   6.425  12.005  0.00  0.00    +0.000 A 
ATOM     24  C   UNL     1      45.812   5.845  10.771  0.00  0.00    +0.000 A 
ATOM     25  C   UNL     1      44.627   5.125  10.624  0.00  0.00    +0.000 A 
ATOM     26  C   UNL     1      43.807   5.006  11.728  0.00  0.00    +0.000 A 
ATOM     27  N   UNL     1      44.090   5.528  12.930  0.00  0.00    +0.000 NA
ATOM     28  C   UNL     1      45.255   6.218  13.036  0.00  0.00    +0.000 A 
BRANCH  26  29
ATOM     29  O   UNL     1      42.624   4.335  11.654  0.00  0.00    +0.000 OA
ATOM     30  H   UNL     1      42.797   3.472  11.253  0.00  0.00    +0.000 HD
ENDBRANCH  26  29
ENDBRANCH  21  23
ENDBRANCH   1  17
TORSDOF 5
ENDMDL
MODEL 9
REMARK VINA RESULT:    -7.161      3.415      7.076
REMARK INTER + INTRA:          -8.910
REMARK INTER:                  -9.383
REMARK INTRA:                   0.472
REMARK UNBOUND:                 0.134
REMARK  Name = 
REMARK  5 active torsions:
REMARK  status: ('A' for Active; 'I' for Inactive)
REMARK    1  A    between atoms: C_2  and  C_4
REMARK    2  A    between atoms: N_8  and  C_9
REMARK    3  A    between atoms: C_9  and  C_10
REMARK    4  A    between atoms: C_14  and  C_15
REMARK    5  A    between atoms: C_18  and  O_19
REMARK                            x       y       z     vdW  Elec       q    Type
REMARK                         _______ _______ _______ _____ _____    ______ ____
ROOT
ATOM      1  C   UNL     1      45.937   7.523  12.421  0.00  0.00    +0.000 C 
ATOM      2  C   UNL     1      45.634   8.681  11.475  0.00  0.00    +0.000 C 
ATOM      3  C   UNL     1      45.183   8.758  12.889  0.00  0.00    +0.000 C 
ENDROOT
BRANCH   1   8
ATOM      4  C   UNL     1      47.732   4.534  16.082  0.00  0.00    +0.000 A 
ATOM      5  C   UNL     1      48.677   5.545  15.924  0.00  0.00    +0.000 A 
ATOM      6  C   UNL     1      48.555   6.424  14.849  0.00  0.00    +0.000 A 
ATOM      7  C   UNL     1      47.464   6.308  13.987  0.00  0.00    +0.000 A 
ATOM      8  N   UNL     1      47.288   7.311  13.000  0.00  0.00    +0.000 N 
ATOM      9  N   UNL     1      46.608   5.266  14.083  0.00  0.00    +0.000 NA
ATOM     10  C   UNL     1      46.765   4.391  15.106  0.00  0.00    +0.000 A 
ATOM     11  H   UNL     1      47.681   8.184  13.340  0.00  0.00    +0.000 HD
BRANCH   4  13
ATOM     12  N   UNL     1      48.695   3.831  18.179  0.00  0.00    +0.000 N 
ATOM     13  C   UNL     1      47.691   3.660  17.270  0.00  0.00    +0.000 C 
ATOM     14  O   UNL     1      46.773   2.882  17.465  0.00  0.00    +0.000 OA
ATOM     15  H   UNL     1      48.587   3.352  19.065  0.00  0.00    +0.000 HD
ATOM     16  H   UNL     1      49.297   4.646  18.167  0.00  0.00    +0.000 HD
ENDBRANCH   4  13
ENDBRANCH   1   8
BRANCH   1  17
ATOM     17  C   UNL     1      45.154   6.255  12.074  0.00  0.00    +0.000 A 
ATOM     18  C   UNL     1      43.829   6.054  12.473  0.00  0.00    +0.000 A 
ATOM     19  C   UNL     1      43.015   5.170  11.771  0.00  0.00    +0.000 A 
ATOM     20  C   UNL     1      43.524   4.463  10.675  0.00  0.00    +0.000 A 
ATOM     21  C   UNL     1      44.883   4.536  10.325  0.00  0.00    +0.000 A 
ATOM     22  C   UNL     1      45.681   5.382  11.108  0.00  0.00    +0.000 A 
BRANCH  21  23
ATOM     23  C   UNL     1      45.444   3.874   9.127  0.00  0.00    +0.000 A 
ATOM     24  C   UNL     1      45.496   2.469   8.995  0.00  0.00    +0.000 A 
ATOM     25  C   UNL     1      46.077   1.859   7.883  0.00  0.00    +0.000 A 
ATOM     26  C   UNL     1      46.618   2.676   6.912  0.00  0.00    +0.000 A 
ATOM     27  N   UNL     1      46.605   4.016   6.969  0.00  0.00    +0.000 NA
ATOM     28  C   UNL     1      46.026   4.574   8.064  0.00  0.00    +0.000 A 
BRANCH  26  29
ATOM     29  O   UNL     1      47.221   2.151   5.809  0.00  0.00    +0.000 OA
ATOM     30  H   UNL     1      46.618   2.263   5.061  0.00  0.00    +0.000 HD
ENDBRANCH  26  29
ENDBRANCH  21  23
ENDBRANCH   1  17
TORSDOF 5
ENDMDL
