MODEL 1
REMARK VINA RESULT:    -9.602      0.000      0.000
REMARK INTER + INTRA:         -14.290
REMARK INTER:                 -12.970
REMARK INTRA:                  -1.321
REMARK UNBOUND:                -1.321
REMARK  Name = 
REMARK  8 active torsions:
REMARK  status: ('A' for Active; 'I' for Inactive)
REMARK    1  A    between atoms: C_1  and  C_2
REMARK    2  A    between atoms: C_2  and  C_3
REMARK    3  A    between atoms: C_2  and  C_4
REMARK    4  A    between atoms: C_2  and  C_15
REMARK    5  A    between atoms: C_4  and  N_5
REMARK    6  A    between atoms: C_9  and  C_10
REMARK    7  A    between atoms: C_19  and  C_20
REMARK    8  A    between atoms: C_23  and  C_24
REMARK                            x       y       z     vdW  Elec       q    Type
REMARK                         _______ _______ _______ _____ _____    ______ ____
ROOT
ATOM      1  C   UNL     1      42.662   6.440  11.422  0.00  0.00    +0.000 C 
ATOM      2  C   UNL     1      43.542   5.270  11.920  0.00  0.00    +0.000 C 
ATOM      3  C   UNL     1      42.965   4.773  13.267  0.00  0.00    +0.000 C 
ENDROOT
BRANCH   2   4
ATOM      4  C   UNL     1      44.997   5.712  12.171  0.00  0.00    +0.000 A 
ATOM      5  C   UNL     1      45.678   6.538  11.267  0.00  0.00    +0.000 A 
ATOM      6  C   UNL     1      46.973   6.984  11.539  0.00  0.00    +0.000 A 
ATOM      7  C   UNL     1      47.623   6.595  12.712  0.00  0.00    +0.000 A 
ATOM      8  C   UNL     1      46.985   5.774  13.647  0.00  0.00    +0.000 A 
ATOM      9  C   UNL     1      45.674   5.366  13.354  0.00  0.00    +0.000 A 
BRANCH   8  10
ATOM     10  C   UNL     1      47.612   5.372  14.922  0.00  0.00    +0.000 A 
ATOM     11  C   UNL     1      48.575   6.181  15.562  0.00  0.00    +0.000 A 
ATOM     12  C   UNL     1      49.202   5.775  16.743  0.00  0.00    +0.000 A 
ATOM     13  C   UNL     1      48.869   4.551  17.329  0.00  0.00    +0.000 A 
ATOM     14  C   UNL     1      47.918   3.752  16.707  0.00  0.00    +0.000 A 
ATOM     15  F   UNL     1      47.576   2.574  17.244  0.00  0.00    +0.000 F 
ATOM     16  C   UNL     1      47.301   4.143  15.520  0.00  0.00    +0.000 A 
BRANCH  13  17
ATOM     17  C   UNL     1      49.503   4.078  18.600  0.00  0.00    +0.000 C 
ATOM     18  F   UNL     1      50.264   2.958  18.428  0.00  0.00    +0.000 F 
ATOM     19  F   UNL     1      50.335   5.003  19.151  0.00  0.00    +0.000 F 
ATOM     20  F   UNL     1      48.594   3.758  19.560  0.00  0.00    +0.000 F 
ENDBRANCH  13  17
ENDBRANCH   8  10
ENDBRANCH   2   4
BRANCH   2  21
ATOM     21  C   UNL     1      43.404   4.096  10.894  0.00  0.00    +0.000 C 
BRANCH  21  22
ATOM     22  N   UNL     1      43.775   4.494   9.536  0.00  0.00    +0.000 N 
ATOM     23  C   UNL     1      44.821   3.866   8.892  0.00  0.00    +0.000 A 
ATOM     24  C   UNL     1      45.090   2.514   9.054  0.00  0.00    +0.000 A 
ATOM     25  C   UNL     1      46.087   1.916   8.290  0.00  0.00    +0.000 A 
ATOM     26  C   UNL     1      46.798   2.674   7.360  0.00  0.00    +0.000 A 
ATOM     27  C   UNL     1      46.482   4.022   7.279  0.00  0.00    +0.000 A 
ATOM     28  N   UNL     1      45.521   4.629   8.028  0.00  0.00    +0.000 NA
ATOM     29  H   UNL     1      43.844   5.494   9.349  0.00  0.00    +0.000 HD
BRANCH  26  30
ATOM     30  C   UNL     1      47.809   1.998   6.526  0.00  0.00    +0.000 C 
ATOM     31  N   UNL     1      48.207   2.573   5.354  0.00  0.00    +0.000 N 
ATOM     32  O   UNL     1      48.298   0.921   6.870  0.00  0.00    +0.000 OA
ATOM     33  H   UNL     1      47.857   3.431   4.960  0.00  0.00    +0.000 HD
ATOM     34  H   UNL     1      48.888   2.054   4.809  0.00  0.00    +0.000 HD
ENDBRANCH  26  30
ENDBRANCH  21  22
ENDBRANCH   2  21
TORSDOF 6
ENDMDL
MODEL 2
REMARK VINA RESULT:    -8.551      3.919      5.014
REMARK INTER + INTRA:         -12.871
REMARK INTER:                 -11.698
REMARK INTRA:                  -1.172
REMARK UNBOUND:                -1.321
REMARK  Name = 
REMARK  8 active torsions:
REMARK  status: ('A' for Active; 'I' for Inactive)
REMARK    1  A    between atoms: C_1  and  C_2
REMARK    2  A    between atoms: C_2  and  C_3
REMARK    3  A    between atoms: C_2  and  C_4
REMARK    4  A    between atoms: C_2  and  C_15
REMARK    5  A    between atoms: C_4  and  N_5
REMARK    6  A    between atoms: C_9  and  C_10
REMARK    7  A    between atoms: C_19  and  C_20
REMARK    8  A    between atoms: C_23  and  C_24
REMARK                            x       y       z     vdW  Elec       q    Type
REMARK                         _______ _______ _______ _____ _____    ______ ____
ROOT
ATOM      1  C   UNL     1      43.366   7.033  11.303  0.00  0.00    +0.000 C 
ATOM      2  C   UNL     1      43.620   5.645  11.937  0.00  0.00    +0.000 C 
ATOM      3  C   UNL     1      42.653   5.480  13.134  0.00  0.00    +0.000 C 
ENDROOT
BRANCH   2   4
ATOM      4  C   UNL     1      45.057   5.513  12.475  0.00  0.00    +0.000 A 
ATOM      5  C   UNL     1      45.466   4.385  13.198  0.00  0.00    +0.000 A 
ATOM      6  C   UNL     1      46.790   4.248  13.625  0.00  0.00    +0.000 A 
ATOM      7  C   UNL     1      47.727   5.247  13.354  0.00  0.00    +0.000 A 
ATOM      8  C   UNL     1      47.367   6.391  12.634  0.00  0.00    +0.000 A 
ATOM      9  C   UNL     1      46.036   6.483  12.198  0.00  0.00    +0.000 A 
BRANCH   8  10
ATOM     10  C   UNL     1      48.330   7.454  12.282  0.00  0.00    +0.000 A 
ATOM     11  C   UNL     1      47.938   8.806  12.187  0.00  0.00    +0.000 A 
ATOM     12  C   UNL     1      48.841   9.804  11.806  0.00  0.00    +0.000 A 
ATOM     13  C   UNL     1      50.170   9.476  11.526  0.00  0.00    +0.000 A 
ATOM     14  C   UNL     1      50.563   8.147  11.623  0.00  0.00    +0.000 A 
ATOM     15  F   UNL     1      51.831   7.801  11.362  0.00  0.00    +0.000 F 
ATOM     16  C   UNL     1      49.664   7.146  11.985  0.00  0.00    +0.000 A 
BRANCH  13  17
ATOM     17  C   UNL     1      51.177  10.509  11.128  0.00  0.00    +0.000 C 
ATOM     18  F   UNL     1      52.434   9.997  10.985  0.00  0.00    +0.000 F 
ATOM     19  F   UNL     1      50.886  11.099   9.936  0.00  0.00    +0.000 F 
ATOM     20  F   UNL     1      51.295  11.515  12.036  0.00  0.00    +0.000 F 
ENDBRANCH  13  17
ENDBRANCH   8  10
ENDBRANCH   2   4
BRANCH   2  21
ATOM     21  C   UNL     1      43.236   4.558  10.877  0.00  0.00    +0.000 C 
BRANCH  21  22
ATOM     22  N   UNL     1      43.787   4.850   9.554  0.00  0.00    +0.000 N 
ATOM     23  C   UNL     1      44.726   4.008   8.994  0.00  0.00    +0.000 A 
ATOM     24  C   UNL     1      44.695   2.632   9.176  0.00  0.00    +0.000 A 
ATOM     25  C   UNL     1      45.603   1.830   8.493  0.00  0.00    +0.000 A 
ATOM     26  C   UNL     1      46.526   2.409   7.623  0.00  0.00    +0.000 A 
ATOM     27  C   UNL     1      46.505   3.792   7.519  0.00  0.00    +0.000 A 
ATOM     28  N   UNL     1      45.635   4.596   8.190  0.00  0.00    +0.000 NA
ATOM     29  H   UNL     1      44.076   5.810   9.374  0.00  0.00    +0.000 HD
BRANCH  26  30
ATOM     30  C   UNL     1      47.437   1.525   6.872  0.00  0.00    +0.000 C 
ATOM     31  N   UNL     1      48.551   2.051   6.286  0.00  0.00    +0.000 N 
ATOM     32  O   UNL     1      47.205   0.320   6.763  0.00  0.00    +0.000 OA
ATOM     33  H   UNL     1      48.825   3.020   6.284  0.00  0.00    +0.000 HD
ATOM     34  H   UNL     1      49.131   1.403   5.763  0.00  0.00    +0.000 HD
ENDBRANCH  26  30
ENDBRANCH  21  22
ENDBRANCH   2  21
TORSDOF 6
ENDMDL
MODEL 3
REMARK VINA RESULT:    -8.445      2.931      3.689
REMARK INTER + INTRA:         -12.728
REMARK INTER:                 -11.628
REMARK INTRA:                  -1.100
REMARK UNBOUND:                -1.321
REMARK  Name = 
REMARK  8 active torsions:
REMARK  status: ('A' for Active; 'I' for Inactive)
REMARK    1  A    between atoms: C_1  and  C_2
REMARK    2  A    between atoms: C_2  and  C_3
REMARK    3  A    between atoms: C_2  and  C_4
REMARK    4  A    between atoms: C_2  and  C_15
REMARK    5  A    between atoms: C_4  and  N_5
REMARK    6  A    between atoms: C_9  and  C_10
REMARK    7  A    between atoms: C_19  and  C_20
REMARK    8  A    between atoms: C_23  and  C_24
REMARK                            x       y       z     vdW  Elec       q    Type
REMARK                         _______ _______ _______ _____ _____    ______ ____
ROOT
ATOM      1  C   UNL     1      43.143   4.774  13.477  0.00  0.00    +0.000 C 
ATOM      2  C   UNL     1      44.068   4.815  12.238  0.00  0.00    +0.000 C 
ATOM      3  C   UNL     1      45.222   3.809  12.466  0.00  0.00    +0.000 C 
ENDROOT
BRANCH   2   4
ATOM      4  C   UNL     1      44.697   6.207  12.036  0.00  0.00    +0.000 A 
ATOM      5  C   UNL     1      43.954   7.278  11.522  0.00  0.00    +0.000 A 
ATOM      6  C   UNL     1      44.518   8.551  11.405  0.00  0.00    +0.000 A 
ATOM      7  C   UNL     1      45.844   8.775  11.782  0.00  0.00    +0.000 A 
ATOM      8  C   UNL     1      46.625   7.739  12.303  0.00  0.00    +0.000 A 
ATOM      9  C   UNL     1      46.019   6.479  12.431  0.00  0.00    +0.000 A 
BRANCH   8  10
ATOM     10  C   UNL     1      48.016   7.933  12.758  0.00  0.00    +0.000 A 
ATOM     11  C   UNL     1      49.093   7.987  11.847  0.00  0.00    +0.000 A 
ATOM     12  C   UNL     1      50.414   8.122  12.284  0.00  0.00    +0.000 A 
ATOM     13  C   UNL     1      50.694   8.224  13.650  0.00  0.00    +0.000 A 
ATOM     14  C   UNL     1      49.638   8.177  14.551  0.00  0.00    +0.000 A 
ATOM     15  F   UNL     1      49.873   8.274  15.866  0.00  0.00    +0.000 F 
ATOM     16  C   UNL     1      48.321   8.026  14.123  0.00  0.00    +0.000 A 
BRANCH  13  17
ATOM     17  C   UNL     1      52.089   8.383  14.166  0.00  0.00    +0.000 C 
ATOM     18  F   UNL     1      52.460   7.378  15.011  0.00  0.00    +0.000 F 
ATOM     19  F   UNL     1      53.022   8.388  13.175  0.00  0.00    +0.000 F 
ATOM     20  F   UNL     1      52.269   9.535  14.868  0.00  0.00    +0.000 F 
ENDBRANCH  13  17
ENDBRANCH   8  10
ENDBRANCH   2   4
BRANCH   2  21
ATOM     21  C   UNL     1      43.245   4.306  11.008  0.00  0.00    +0.000 C 
BRANCH  21  22
ATOM     22  N   UNL     1      43.804   4.764   9.735  0.00  0.00    +0.000 N 
ATOM     23  C   UNL     1      44.771   4.017   9.095  0.00  0.00    +0.000 A 
ATOM     24  C   UNL     1      44.774   2.629   9.115  0.00  0.00    +0.000 A 
ATOM     25  C   UNL     1      45.710   1.934   8.357  0.00  0.00    +0.000 A 
ATOM     26  C   UNL     1      46.627   2.633   7.574  0.00  0.00    +0.000 A 
ATOM     27  C   UNL     1      46.571   4.018   7.631  0.00  0.00    +0.000 A 
ATOM     28  N   UNL     1      45.673   4.717   8.378  0.00  0.00    +0.000 NA
ATOM     29  H   UNL     1      44.070   5.746   9.672  0.00  0.00    +0.000 HD
BRANCH  26  30
ATOM     30  C   UNL     1      47.570   1.866   6.739  0.00  0.00    +0.000 C 
ATOM     31  N   UNL     1      48.666   2.489   6.217  0.00  0.00    +0.000 N 
ATOM     32  O   UNL     1      47.381   0.672   6.502  0.00  0.00    +0.000 OA
ATOM     33  H   UNL     1      48.906   3.462   6.319  0.00  0.00    +0.000 HD
ATOM     34  H   UNL     1      49.269   1.920   5.632  0.00  0.00    +0.000 HD
ENDBRANCH  26  30
ENDBRANCH  21  22
ENDBRANCH   2  21
TORSDOF 6
ENDMDL
MODEL 4
REMARK VINA RESULT:    -7.591      5.450      8.516
REMARK INTER + INTRA:         -11.575
REMARK INTER:                  -9.974
REMARK INTRA:                  -1.601
REMARK UNBOUND:                -1.321
REMARK  Name = 
REMARK  8 active torsions:
REMARK  status: ('A' for Active; 'I' for Inactive)
REMARK    1  A    between atoms: C_1  and  C_2
REMARK    2  A    between atoms: C_2  and  C_3
REMARK    3  A    between atoms: C_2  and  C_4
REMARK    4  A    between atoms: C_2  and  C_15
REMARK    5  A    between atoms: C_4  and  N_5
REMARK    6  A    between atoms: C_9  and  C_10
REMARK    7  A    between atoms: C_19  and  C_20
REMARK    8  A    between atoms: C_23  and  C_24
REMARK                            x       y       z     vdW  Elec       q    Type
REMARK                         _______ _______ _______ _____ _____    ______ ____
ROOT
ATOM      1  C   UNL     1      49.879  10.168  12.095  0.00  0.00    +0.000 C 
ATOM      2  C   UNL     1      49.385   8.862  12.758  0.00  0.00    +0.000 C 
ATOM      3  C   UNL     1      50.173   7.681  12.141  0.00  0.00    +0.000 C 
ENDROOT
BRANCH   2   4
ATOM      4  C   UNL     1      47.888   8.612  12.492  0.00  0.00    +0.000 A 
ATOM      5  C   UNL     1      46.924   9.594  12.758  0.00  0.00    +0.000 A 
ATOM      6  C   UNL     1      45.578   9.379  12.451  0.00  0.00    +0.000 A 
ATOM      7  C   UNL     1      45.165   8.168  11.890  0.00  0.00    +0.000 A 
ATOM      8  C   UNL     1      46.090   7.159  11.604  0.00  0.00    +0.000 A 
ATOM      9  C   UNL     1      47.437   7.419  11.901  0.00  0.00    +0.000 A 
BRANCH   8  10
ATOM     10  C   UNL     1      45.711   5.880  10.970  0.00  0.00    +0.000 A 
ATOM     11  C   UNL     1      45.163   4.816  11.718  0.00  0.00    +0.000 A 
ATOM     12  C   UNL     1      44.851   3.590  11.124  0.00  0.00    +0.000 A 
ATOM     13  C   UNL     1      45.065   3.398   9.756  0.00  0.00    +0.000 A 
ATOM     14  C   UNL     1      45.600   4.444   9.014  0.00  0.00    +0.000 A 
ATOM     15  F   UNL     1      45.816   4.293   7.700  0.00  0.00    +0.000 F 
ATOM     16  C   UNL     1      45.928   5.663   9.603  0.00  0.00    +0.000 A 
BRANCH  13  17
ATOM     17  C   UNL     1      44.736   2.109   9.072  0.00  0.00    +0.000 C 
ATOM     18  F   UNL     1      44.095   2.290   7.880  0.00  0.00    +0.000 F 
ATOM     19  F   UNL     1      45.839   1.367   8.783  0.00  0.00    +0.000 F 
ATOM     20  F   UNL     1      43.916   1.310   9.808  0.00  0.00    +0.000 F 
ENDBRANCH  13  17
ENDBRANCH   8  10
ENDBRANCH   2   4
BRANCH   2  21
ATOM     21  C   UNL     1      49.757   8.924  14.278  0.00  0.00    +0.000 C 
BRANCH  21  22
ATOM     22  N   UNL     1      50.434   7.710  14.736  0.00  0.00    +0.000 N 
ATOM     23  C   UNL     1      49.752   6.783  15.497  0.00  0.00    +0.000 A 
ATOM     24  C   UNL     1      48.408   6.501  15.299  0.00  0.00    +0.000 A 
ATOM     25  C   UNL     1      47.808   5.477  16.022  0.00  0.00    +0.000 A 
ATOM     26  C   UNL     1      48.561   4.732  16.929  0.00  0.00    +0.000 A 
ATOM     27  C   UNL     1      49.892   5.095  17.083  0.00  0.00    +0.000 A 
ATOM     28  N   UNL     1      50.493   6.105  16.397  0.00  0.00    +0.000 NA
ATOM     29  H   UNL     1      51.366   7.821  15.133  0.00  0.00    +0.000 HD
BRANCH  26  30
ATOM     30  C   UNL     1      47.909   3.616  17.639  0.00  0.00    +0.000 C 
ATOM     31  N   UNL     1      48.591   2.951  18.616  0.00  0.00    +0.000 N 
ATOM     32  O   UNL     1      46.760   3.272  17.359  0.00  0.00    +0.000 OA
ATOM     33  H   UNL     1      49.539   3.124  18.907  0.00  0.00    +0.000 HD
ATOM     34  H   UNL     1      48.103   2.178  19.055  0.00  0.00    +0.000 HD
ENDBRANCH  26  30
ENDBRANCH  21  22
ENDBRANCH   2  21
TORSDOF 6
ENDMDL
MODEL 5
REMARK VINA RESULT:    -7.469      5.323      8.439
REMARK INTER + INTRA:         -11.410
REMARK INTER:                  -9.451
REMARK INTRA:                  -1.959
REMARK UNBOUND:                -1.321
REMARK  Name = 
REMARK  8 active torsions:
REMARK  status: ('A' for Active; 'I' for Inactive)
REMARK    1  A    between atoms: C_1  and  C_2
REMARK    2  A    between atoms: C_2  and  C_3
REMARK    3  A    between atoms: C_2  and  C_4
REMARK    4  A    between atoms: C_2  and  C_15
REMARK    5  A    between atoms: C_4  and  N_5
REMARK    6  A    between atoms: C_9  and  C_10
REMARK    7  A    between atoms: C_19  and  C_20
REMARK    8  A    between atoms: C_23  and  C_24
REMARK                            x       y       z     vdW  Elec       q    Type
REMARK                         _______ _______ _______ _____ _____    ______ ____
ROOT
ATOM      1  C   UNL     1      47.894   9.338  17.659  0.00  0.00    +0.000 C 
ATOM      2  C   UNL     1      49.384   9.293  17.248  0.00  0.00    +0.000 C 
ATOM      3  C   UNL     1      49.931  10.741  17.264  0.00  0.00    +0.000 C 
ENDROOT
BRANCH   2   4
ATOM      4  C   UNL     1      49.571   8.740  15.822  0.00  0.00    +0.000 A 
ATOM      5  C   UNL     1      50.737   8.991  15.086  0.00  0.00    +0.000 A 
ATOM      6  C   UNL     1      50.921   8.429  13.820  0.00  0.00    +0.000 A 
ATOM      7  C   UNL     1      49.932   7.620  13.256  0.00  0.00    +0.000 A 
ATOM      8  C   UNL     1      48.753   7.338  13.951  0.00  0.00    +0.000 A 
ATOM      9  C   UNL     1      48.612   7.897  15.231  0.00  0.00    +0.000 A 
BRANCH   8  10
ATOM     10  C   UNL     1      47.698   6.453  13.418  0.00  0.00    +0.000 A 
ATOM     11  C   UNL     1      47.208   5.355  14.157  0.00  0.00    +0.000 A 
ATOM     12  C   UNL     1      46.245   4.490  13.630  0.00  0.00    +0.000 A 
ATOM     13  C   UNL     1      45.731   4.710  12.348  0.00  0.00    +0.000 A 
ATOM     14  C   UNL     1      46.206   5.791  11.617  0.00  0.00    +0.000 A 
ATOM     15  F   UNL     1      45.734   6.030  10.387  0.00  0.00    +0.000 F 
ATOM     16  C   UNL     1      47.178   6.648  12.131  0.00  0.00    +0.000 A 
BRANCH  13  17
ATOM     17  C   UNL     1      44.691   3.821  11.745  0.00  0.00    +0.000 C 
ATOM     18  F   UNL     1      45.101   3.238  10.580  0.00  0.00    +0.000 F 
ATOM     19  F   UNL     1      44.336   2.791  12.562  0.00  0.00    +0.000 F 
ATOM     20  F   UNL     1      43.541   4.480  11.437  0.00  0.00    +0.000 F 
ENDBRANCH  13  17
ENDBRANCH   8  10
ENDBRANCH   2   4
BRANCH   2  21
ATOM     21  C   UNL     1      50.161   8.491  18.346  0.00  0.00    +0.000 C 
BRANCH  21  22
ATOM     22  N   UNL     1      49.409   7.333  18.828  0.00  0.00    +0.000 N 
ATOM     23  C   UNL     1      49.623   6.088  18.272  0.00  0.00    +0.000 A 
ATOM     24  C   UNL     1      50.877   5.668  17.850  0.00  0.00    +0.000 A 
ATOM     25  C   UNL     1      51.047   4.362  17.403  0.00  0.00    +0.000 A 
ATOM     26  C   UNL     1      49.965   3.483  17.395  0.00  0.00    +0.000 A 
ATOM     27  C   UNL     1      48.743   3.991  17.811  0.00  0.00    +0.000 A 
ATOM     28  N   UNL     1      48.552   5.270  18.236  0.00  0.00    +0.000 NA
ATOM     29  H   UNL     1      48.405   7.453  18.956  0.00  0.00    +0.000 HD
BRANCH  26  30
ATOM     30  C   UNL     1      50.192   2.089  16.969  0.00  0.00    +0.000 C 
ATOM     31  N   UNL     1      50.965   1.269  17.738  0.00  0.00    +0.000 N 
ATOM     32  O   UNL     1      49.696   1.656  15.928  0.00  0.00    +0.000 OA
ATOM     33  H   UNL     1      51.443   1.520  18.588  0.00  0.00    +0.000 HD
ATOM     34  H   UNL     1      51.106   0.327  17.386  0.00  0.00    +0.000 HD
ENDBRANCH  26  30
ENDBRANCH  21  22
ENDBRANCH   2  21
TORSDOF 6
ENDMDL
MODEL 6
REMARK VINA RESULT:    -7.269      5.603      9.040
REMARK INTER + INTRA:         -11.139
REMARK INTER:                  -9.904
REMARK INTRA:                  -1.235
REMARK UNBOUND:                -1.321
REMARK  Name = 
REMARK  8 active torsions:
REMARK  status: ('A' for Active; 'I' for Inactive)
REMARK    1  A    between atoms: C_1  and  C_2
REMARK    2  A    between atoms: C_2  and  C_3
REMARK    3  A    between atoms: C_2  and  C_4
REMARK    4  A    between atoms: C_2  and  C_15
REMARK    5  A    between atoms: C_4  and  N_5
REMARK    6  A    between atoms: C_9  and  C_10
REMARK    7  A    between atoms: C_19  and  C_20
REMARK    8  A    between atoms: C_23  and  C_24
REMARK                            x       y       z     vdW  Elec       q    Type
REMARK                         _______ _______ _______ _____ _____    ______ ____
ROOT
ATOM      1  C   UNL     1      48.483   6.216  17.635  0.00  0.00    +0.000 C 
ATOM      2  C   UNL     1      49.759   6.778  16.966  0.00  0.00    +0.000 C 
ATOM      3  C   UNL     1      50.125   8.106  17.671  0.00  0.00    +0.000 C 
ENDROOT
BRANCH   2   4
ATOM      4  C   UNL     1      49.537   7.088  15.473  0.00  0.00    +0.000 A 
ATOM      5  C   UNL     1      50.457   7.847  14.738  0.00  0.00    +0.000 A 
ATOM      6  C   UNL     1      50.276   8.065  13.370  0.00  0.00    +0.000 A 
ATOM      7  C   UNL     1      49.160   7.546  12.713  0.00  0.00    +0.000 A 
ATOM      8  C   UNL     1      48.214   6.780  13.402  0.00  0.00    +0.000 A 
ATOM      9  C   UNL     1      48.440   6.558  14.769  0.00  0.00    +0.000 A 
BRANCH   8  10
ATOM     10  C   UNL     1      47.041   6.170  12.744  0.00  0.00    +0.000 A 
ATOM     11  C   UNL     1      46.734   6.427  11.390  0.00  0.00    +0.000 A 
ATOM     12  C   UNL     1      45.596   5.888  10.784  0.00  0.00    +0.000 A 
ATOM     13  C   UNL     1      44.738   5.061  11.513  0.00  0.00    +0.000 A 
ATOM     14  C   UNL     1      45.037   4.800  12.844  0.00  0.00    +0.000 A 
ATOM     15  F   UNL     1      44.236   4.010  13.570  0.00  0.00    +0.000 F 
ATOM     16  C   UNL     1      46.161   5.348  13.459  0.00  0.00    +0.000 A 
BRANCH  13  17
ATOM     17  C   UNL     1      43.515   4.450  10.906  0.00  0.00    +0.000 C 
ATOM     18  F   UNL     1      43.441   4.641   9.556  0.00  0.00    +0.000 F 
ATOM     19  F   UNL     1      43.452   3.102  11.086  0.00  0.00    +0.000 F 
ATOM     20  F   UNL     1      42.359   4.960  11.410  0.00  0.00    +0.000 F 
ENDBRANCH  13  17
ENDBRANCH   8  10
ENDBRANCH   2   4
BRANCH   2  21
ATOM     21  C   UNL     1      50.926   5.771  17.238  0.00  0.00    +0.000 C 
BRANCH  21  22
ATOM     22  N   UNL     1      50.442   4.424  17.540  0.00  0.00    +0.000 N 
ATOM     23  C   UNL     1      51.329   3.370  17.615  0.00  0.00    +0.000 A 
ATOM     24  C   UNL     1      52.612   3.512  18.124  0.00  0.00    +0.000 A 
ATOM     25  C   UNL     1      53.418   2.388  18.277  0.00  0.00    +0.000 A 
ATOM     26  C   UNL     1      52.927   1.130  17.932  0.00  0.00    +0.000 A 
ATOM     27  C   UNL     1      51.644   1.080  17.409  0.00  0.00    +0.000 A 
ATOM     28  N   UNL     1      50.846   2.169  17.237  0.00  0.00    +0.000 NA
ATOM     29  H   UNL     1      49.614   4.105  17.038  0.00  0.00    +0.000 HD
BRANCH  26  30
ATOM     30  C   UNL     1      53.786  -0.048  18.159  0.00  0.00    +0.000 C 
ATOM     31  N   UNL     1      54.105  -0.860  17.110  0.00  0.00    +0.000 N 
ATOM     32  O   UNL     1      54.216  -0.311  19.284  0.00  0.00    +0.000 OA
ATOM     33  H   UNL     1      53.789  -0.760  16.159  0.00  0.00    +0.000 HD
ATOM     34  H   UNL     1      54.680  -1.667  17.327  0.00  0.00    +0.000 HD
ENDBRANCH  26  30
ENDBRANCH  21  22
ENDBRANCH   2  21
TORSDOF 6
ENDMDL
MODEL 7
REMARK VINA RESULT:    -7.261      5.277      8.657
REMARK INTER + INTRA:         -11.129
REMARK INTER:                  -9.873
REMARK INTRA:                  -1.256
REMARK UNBOUND:                -1.321
REMARK  Name = 
REMARK  8 active torsions:
REMARK  status: ('A' for Active; 'I' for Inactive)
REMARK    1  A    between atoms: C_1  and  C_2
REMARK    2  A    between atoms: C_2  and  C_3
REMARK    3  A    between atoms: C_2  and  C_4
REMARK    4  A    between atoms: C_2  and  C_15
REMARK    5  A    between atoms: C_4  and  N_5
REMARK    6  A    between atoms: C_9  and  C_10
REMARK    7  A    between atoms: C_19  and  C_20
REMARK    8  A    between atoms: C_23  and  C_24
REMARK                            x       y       z     vdW  Elec       q    Type
REMARK                         _______ _______ _______ _____ _____    ______ ____
ROOT
ATOM      1  C   UNL     1      45.860   9.526  12.114  0.00  0.00    +0.000 C 
ATOM      2  C   UNL     1      46.511   8.185  12.529  0.00  0.00    +0.000 C 
ATOM      3  C   UNL     1      47.868   8.064  11.797  0.00  0.00    +0.000 C 
ENDROOT
BRANCH   2   4
ATOM      4  C   UNL     1      45.649   6.976  12.119  0.00  0.00    +0.000 A 
ATOM      5  C   UNL     1      44.429   6.698  12.749  0.00  0.00    +0.000 A 
ATOM      6  C   UNL     1      43.627   5.636  12.323  0.00  0.00    +0.000 A 
ATOM      7  C   UNL     1      44.038   4.819  11.269  0.00  0.00    +0.000 A 
ATOM      8  C   UNL     1      45.246   5.057  10.606  0.00  0.00    +0.000 A 
ATOM      9  C   UNL     1      46.014   6.147  11.043  0.00  0.00    +0.000 A 
BRANCH   8  10
ATOM     10  C   UNL     1      45.704   4.250   9.457  0.00  0.00    +0.000 A 
ATOM     11  C   UNL     1      46.294   4.845   8.321  0.00  0.00    +0.000 A 
ATOM     12  C   UNL     1      46.682   4.083   7.215  0.00  0.00    +0.000 A 
ATOM     13  C   UNL     1      46.504   2.697   7.221  0.00  0.00    +0.000 A 
ATOM     14  C   UNL     1      45.929   2.105   8.338  0.00  0.00    +0.000 A 
ATOM     15  F   UNL     1      45.746   0.778   8.376  0.00  0.00    +0.000 F 
ATOM     16  C   UNL     1      45.525   2.860   9.437  0.00  0.00    +0.000 A 
BRANCH  13  17
ATOM     17  C   UNL     1      46.914   1.837   6.068  0.00  0.00    +0.000 C 
ATOM     18  F   UNL     1      46.694   0.509   6.292  0.00  0.00    +0.000 F 
ATOM     19  F   UNL     1      46.239   2.130   4.923  0.00  0.00    +0.000 F 
ATOM     20  F   UNL     1      48.238   1.942   5.771  0.00  0.00    +0.000 F 
ENDBRANCH  13  17
ENDBRANCH   8  10
ENDBRANCH   2   4
BRANCH   2  21
ATOM     21  C   UNL     1      46.815   8.255  14.064  0.00  0.00    +0.000 C 
BRANCH  21  22
ATOM     22  N   UNL     1      48.112   7.668  14.402  0.00  0.00    +0.000 N 
ATOM     23  C   UNL     1      48.175   6.528  15.176  0.00  0.00    +0.000 A 
ATOM     24  C   UNL     1      47.232   5.514  15.085  0.00  0.00    +0.000 A 
ATOM     25  C   UNL     1      47.414   4.341  15.810  0.00  0.00    +0.000 A 
ATOM     26  C   UNL     1      48.545   4.186  16.610  0.00  0.00    +0.000 A 
ATOM     27  C   UNL     1      49.426   5.258  16.662  0.00  0.00    +0.000 A 
ATOM     28  N   UNL     1      49.258   6.419  15.973  0.00  0.00    +0.000 NA
ATOM     29  H   UNL     1      48.841   8.306  14.719  0.00  0.00    +0.000 HD
BRANCH  26  30
ATOM     30  C   UNL     1      48.737   2.909  17.321  0.00  0.00    +0.000 C 
ATOM     31  N   UNL     1      48.363   2.806  18.629  0.00  0.00    +0.000 N 
ATOM     32  O   UNL     1      49.233   1.935  16.753  0.00  0.00    +0.000 OA
ATOM     33  H   UNL     1      47.977   3.539  19.201  0.00  0.00    +0.000 HD
ATOM     34  H   UNL     1      48.539   1.911  19.076  0.00  0.00    +0.000 HD
ENDBRANCH  26  30
ENDBRANCH  21  22
ENDBRANCH   2  21
TORSDOF 6
ENDMDL
MODEL 8
REMARK VINA RESULT:    -7.254      5.233      8.441
REMARK INTER + INTRA:         -11.119
REMARK INTER:                  -9.119
REMARK INTRA:                  -2.000
REMARK UNBOUND:                -1.321
REMARK  Name = 
REMARK  8 active torsions:
REMARK  status: ('A' for Active; 'I' for Inactive)
REMARK    1  A    between atoms: C_1  and  C_2
REMARK    2  A    between atoms: C_2  and  C_3
REMARK    3  A    between atoms: C_2  and  C_4
REMARK    4  A    between atoms: C_2  and  C_15
REMARK    5  A    between atoms: C_4  and  N_5
REMARK    6  A    between atoms: C_9  and  C_10
REMARK    7  A    between atoms: C_19  and  C_20
REMARK    8  A    between atoms: C_23  and  C_24
REMARK                            x       y       z     vdW  Elec       q    Type
REMARK                         _______ _______ _______ _____ _____    ______ ____
ROOT
ATOM      1  C   UNL     1      51.535  10.647  13.894  0.00  0.00    +0.000 C 
ATOM      2  C   UNL     1      50.767   9.306  13.956  0.00  0.00    +0.000 C 
ATOM      3  C   UNL     1      51.551   8.264  13.123  0.00  0.00    +0.000 C 
ENDROOT
BRANCH   2   4
ATOM      4  C   UNL     1      49.356   9.424  13.347  0.00  0.00    +0.000 A 
ATOM      5  C   UNL     1      48.825  10.662  12.963  0.00  0.00    +0.000 A 
ATOM      6  C   UNL     1      47.571  10.746  12.352  0.00  0.00    +0.000 A 
ATOM      7  C   UNL     1      46.814   9.594  12.131  0.00  0.00    +0.000 A 
ATOM      8  C   UNL     1      47.302   8.335  12.494  0.00  0.00    +0.000 A 
ATOM      9  C   UNL     1      48.576   8.284  13.081  0.00  0.00    +0.000 A 
BRANCH   8  10
ATOM     10  C   UNL     1      46.560   7.083  12.240  0.00  0.00    +0.000 A 
ATOM     11  C   UNL     1      46.183   6.220  13.291  0.00  0.00    +0.000 A 
ATOM     12  C   UNL     1      45.524   5.012  13.044  0.00  0.00    +0.000 A 
ATOM     13  C   UNL     1      45.209   4.640  11.734  0.00  0.00    +0.000 A 
ATOM     14  C   UNL     1      45.574   5.488  10.695  0.00  0.00    +0.000 A 
ATOM     15  F   UNL     1      45.285   5.162   9.429  0.00  0.00    +0.000 F 
ATOM     16  C   UNL     1      46.245   6.686  10.934  0.00  0.00    +0.000 A 
BRANCH  13  17
ATOM     17  C   UNL     1      44.494   3.365  11.419  0.00  0.00    +0.000 C 
ATOM     18  F   UNL     1      44.189   2.639  12.534  0.00  0.00    +0.000 F 
ATOM     19  F   UNL     1      43.309   3.567  10.780  0.00  0.00    +0.000 F 
ATOM     20  F   UNL     1      45.219   2.529  10.627  0.00  0.00    +0.000 F 
ENDBRANCH  13  17
ENDBRANCH   8  10
ENDBRANCH   2   4
BRANCH   2  21
ATOM     21  C   UNL     1      50.777   8.815  15.442  0.00  0.00    +0.000 C 
BRANCH  21  22
ATOM     22  N   UNL     1      51.121   7.398  15.559  0.00  0.00    +0.000 N 
ATOM     23  C   UNL     1      50.272   6.531  16.216  0.00  0.00    +0.000 A 
ATOM     24  C   UNL     1      48.891   6.657  16.160  0.00  0.00    +0.000 A 
ATOM     25  C   UNL     1      48.090   5.686  16.751  0.00  0.00    +0.000 A 
ATOM     26  C   UNL     1      48.676   4.590  17.382  0.00  0.00    +0.000 A 
ATOM     27  C   UNL     1      50.063   4.555  17.414  0.00  0.00    +0.000 A 
ATOM     28  N   UNL     1      50.865   5.502  16.855  0.00  0.00    +0.000 NA
ATOM     29  H   UNL     1      52.076   7.174  15.834  0.00  0.00    +0.000 HD
BRANCH  26  30
ATOM     30  C   UNL     1      47.798   3.549  17.950  0.00  0.00    +0.000 C 
ATOM     31  N   UNL     1      48.148   2.940  19.119  0.00  0.00    +0.000 N 
ATOM     32  O   UNL     1      46.756   3.220  17.381  0.00  0.00    +0.000 OA
ATOM     33  H   UNL     1      48.985   3.106  19.653  0.00  0.00    +0.000 HD
ATOM     34  H   UNL     1      47.519   2.216  19.452  0.00  0.00    +0.000 HD
ENDBRANCH  26  30
ENDBRANCH  21  22
ENDBRANCH   2  21
TORSDOF 6
ENDMDL
MODEL 9
REMARK VINA RESULT:    -7.150      5.180      8.208
REMARK INTER + INTRA:         -10.979
REMARK INTER:                  -8.973
REMARK INTRA:                  -2.007
REMARK UNBOUND:                -1.321
REMARK  Name = 
REMARK  8 active torsions:
REMARK  status: ('A' for Active; 'I' for Inactive)
REMARK    1  A    between atoms: C_1  and  C_2
REMARK    2  A    between atoms: C_2  and  C_3
REMARK    3  A    between atoms: C_2  and  C_4
REMARK    4  A    between atoms: C_2  and  C_15
REMARK    5  A    between atoms: C_4  and  N_5
REMARK    6  A    between atoms: C_9  and  C_10
REMARK    7  A    between atoms: C_19  and  C_20
REMARK    8  A    between atoms: C_23  and  C_24
REMARK                            x       y       z     vdW  Elec       q    Type
REMARK                         _______ _______ _______ _____ _____    ______ ____
ROOT
ATOM      1  C   UNL     1      49.091  11.285  15.310  0.00  0.00    +0.000 C 
ATOM      2  C   UNL     1      49.932   9.993  15.176  0.00  0.00    +0.000 C 
ATOM      3  C   UNL     1      51.426  10.394  15.147  0.00  0.00    +0.000 C 
ENDROOT
BRANCH   2   4
ATOM      4  C   UNL     1      49.625   9.241  13.868  0.00  0.00    +0.000 A 
ATOM      5  C   UNL     1      50.576   9.133  12.844  0.00  0.00    +0.000 A 
ATOM      6  C   UNL     1      50.308   8.393  11.691  0.00  0.00    +0.000 A 
ATOM      7  C   UNL     1      49.074   7.760  11.528  0.00  0.00    +0.000 A 
ATOM      8  C   UNL     1      48.093   7.836  12.521  0.00  0.00    +0.000 A 
ATOM      9  C   UNL     1      48.405   8.566  13.678  0.00  0.00    +0.000 A 
BRANCH   8  10
ATOM     10  C   UNL     1      46.790   7.148  12.417  0.00  0.00    +0.000 A 
ATOM     11  C   UNL     1      45.659   7.784  11.862  0.00  0.00    +0.000 A 
ATOM     12  C   UNL     1      44.415   7.149  11.809  0.00  0.00    +0.000 A 
ATOM     13  C   UNL     1      44.272   5.847  12.298  0.00  0.00    +0.000 A 
ATOM     14  C   UNL     1      45.383   5.213  12.840  0.00  0.00    +0.000 A 
ATOM     15  F   UNL     1      45.279   3.965  13.315  0.00  0.00    +0.000 F 
ATOM     16  C   UNL     1      46.621   5.848  12.911  0.00  0.00    +0.000 A 
BRANCH  13  17
ATOM     17  C   UNL     1      42.965   5.119  12.252  0.00  0.00    +0.000 C 
ATOM     18  F   UNL     1      42.561   4.678  13.478  0.00  0.00    +0.000 F 
ATOM     19  F   UNL     1      41.946   5.892  11.788  0.00  0.00    +0.000 F 
ATOM     20  F   UNL     1      43.000   4.013  11.460  0.00  0.00    +0.000 F 
ENDBRANCH  13  17
ENDBRANCH   8  10
ENDBRANCH   2   4
BRANCH   2  21
ATOM     21  C   UNL     1      49.706   9.138  16.468  0.00  0.00    +0.000 C 
BRANCH  21  22
ATOM     22  N   UNL     1      50.488   7.901  16.462  0.00  0.00    +0.000 N 
ATOM     23  C   UNL     1      49.864   6.687  16.660  0.00  0.00    +0.000 A 
ATOM     24  C   UNL     1      48.591   6.417  16.179  0.00  0.00    +0.000 A 
ATOM     25  C   UNL     1      48.063   5.137  16.315  0.00  0.00    +0.000 A 
ATOM     26  C   UNL     1      48.820   4.134  16.918  0.00  0.00    +0.000 A 
ATOM     27  C   UNL     1      50.073   4.495  17.392  0.00  0.00    +0.000 A 
ATOM     28  N   UNL     1      50.600   5.745  17.284  0.00  0.00    +0.000 NA
ATOM     29  H   UNL     1      51.358   7.900  16.993  0.00  0.00    +0.000 HD
BRANCH  26  30
ATOM     30  C   UNL     1      48.255   2.773  16.995  0.00  0.00    +0.000 C 
ATOM     31  N   UNL     1      47.095   2.566  17.683  0.00  0.00    +0.000 N 
ATOM     32  O   UNL     1      48.817   1.821  16.451  0.00  0.00    +0.000 OA
ATOM     33  H   UNL     1      46.567   3.259  18.188  0.00  0.00    +0.000 HD
ATOM     34  H   UNL     1      46.763   1.608  17.722  0.00  0.00    +0.000 HD
ENDBRANCH  26  30
ENDBRANCH  21  22
ENDBRANCH   2  21
TORSDOF 6
ENDMDL
