MODEL 1
REMARK VINA RESULT:    -9.460      0.000      0.000
REMARK INTER + INTRA:         -14.446
REMARK INTER:                 -13.332
REMARK INTRA:                  -1.114
REMARK UNBOUND:                -1.114
REMARK  Name = 
REMARK  7 active torsions:
REMARK  status: ('A' for Active; 'I' for Inactive)
REMARK    1  A    between atoms: C_2  and  C_4
REMARK    2  A    between atoms: C_7  and  N_8
REMARK    3  A    between atoms: N_8  and  C_9
REMARK    4  A    between atoms: C_9  and  C_10
REMARK    5  A    between atoms: C_10  and  C_13
REMARK    6  A    between atoms: C_15  and  C_16
REMARK    7  A    between atoms: C_20  and  C_21
REMARK                            x       y       z     vdW  Elec       q    Type
REMARK                         _______ _______ _______ _____ _____    ______ ____
ROOT
ATOM      1  C   UNL     1      43.321   5.201  12.463  0.00  0.00    +0.000 C 
ATOM      2  F   UNL     1      42.805   6.412  12.091  0.00  0.00    +0.000 F 
ATOM      3  F   UNL     1      42.529   4.788  13.508  0.00  0.00    +0.000 F 
ENDROOT
BRANCH   1   4
ATOM      4  C   UNL     1      44.785   5.319  12.867  0.00  0.00    +0.000 A 
ATOM      5  C   UNL     1      45.520   6.415  12.416  0.00  0.00    +0.000 A 
ATOM      6  C   UNL     1      46.889   6.520  12.702  0.00  0.00    +0.000 A 
ATOM      7  C   UNL     1      47.463   5.481  13.444  0.00  0.00    +0.000 A 
ATOM      8  C   UNL     1      46.669   4.430  13.873  0.00  0.00    +0.000 A 
ATOM      9  N   UNL     1      45.353   4.329  13.605  0.00  0.00    +0.000 NA
BRANCH   6  10
ATOM     10  C   UNL     1      47.678   7.690  12.252  0.00  0.00    +0.000 A 
ATOM     11  C   UNL     1      47.125   8.984  12.232  0.00  0.00    +0.000 A 
ATOM     12  C   UNL     1      47.878  10.094  11.842  0.00  0.00    +0.000 A 
ATOM     13  C   UNL     1      49.208   9.934  11.468  0.00  0.00    +0.000 A 
ATOM     14  C   UNL     1      49.791   8.665  11.487  0.00  0.00    +0.000 A 
ATOM     15  C   UNL     1      49.022   7.552  11.856  0.00  0.00    +0.000 A 
BRANCH  14  16
ATOM     16  C   UNL     1      51.226   8.543  11.117  0.00  0.00    +0.000 C 
ATOM     17  N   UNL     1      51.755   7.283  11.043  0.00  0.00    +0.000 N 
ATOM     18  O   UNL     1      51.925   9.527  10.935  0.00  0.00    +0.000 OA
ATOM     19  H   UNL     1      51.285   6.462  11.394  0.00  0.00    +0.000 HD
ATOM     20  H   UNL     1      52.759   7.233  10.926  0.00  0.00    +0.000 HD
ENDBRANCH  14  16
ENDBRANCH   6  10
ENDBRANCH   1   4
BRANCH   1  21
ATOM     21  C   UNL     1      43.136   4.189  11.313  0.00  0.00    +0.000 C 
BRANCH  21  22
ATOM     22  N   UNL     1      43.689   4.669  10.033  0.00  0.00    +0.000 N 
ATOM     23  H   UNL     1      43.031   5.175   9.441  0.00  0.00    +0.000 HD
BRANCH  22  27
ATOM     24  C   UNL     1      46.392   2.319   7.818  0.00  0.00    +0.000 A 
ATOM     25  C   UNL     1      46.410   3.709   7.671  0.00  0.00    +0.000 A 
ATOM     26  C   UNL     1      45.530   4.501   8.415  0.00  0.00    +0.000 A 
ATOM     27  C   UNL     1      44.644   3.935   9.339  0.00  0.00    +0.000 A 
ATOM     28  C   UNL     1      44.627   2.540   9.460  0.00  0.00    +0.000 A 
ATOM     29  C   UNL     1      45.486   1.735   8.706  0.00  0.00    +0.000 A 
BRANCH  24  31
ATOM     30  N   UNL     1      48.344   2.039   6.397  0.00  0.00    +0.000 N 
ATOM     31  C   UNL     1      47.283   1.442   7.021  0.00  0.00    +0.000 C 
ATOM     32  O   UNL     1      47.106   0.233   6.950  0.00  0.00    +0.000 OA
ATOM     33  H   UNL     1      49.004   1.417   5.947  0.00  0.00    +0.000 HD
ATOM     34  H   UNL     1      48.661   2.965   6.642  0.00  0.00    +0.000 HD
ENDBRANCH  24  31
ENDBRANCH  22  27
ENDBRANCH  21  22
ENDBRANCH   1  21
TORSDOF 7
ENDMDL
MODEL 2
REMARK VINA RESULT:    -9.407      2.937      4.278
REMARK INTER + INTRA:         -14.371
REMARK INTER:                 -13.188
REMARK INTRA:                  -1.182
REMARK UNBOUND:                -1.114
REMARK  Name = 
REMARK  7 active torsions:
REMARK  status: ('A' for Active; 'I' for Inactive)
REMARK    1  A    between atoms: C_2  and  C_4
REMARK    2  A    between atoms: C_7  and  N_8
REMARK    3  A    between atoms: N_8  and  C_9
REMARK    4  A    between atoms: C_9  and  C_10
REMARK    5  A    between atoms: C_10  and  C_13
REMARK    6  A    between atoms: C_15  and  C_16
REMARK    7  A    between atoms: C_20  and  C_21
REMARK                            x       y       z     vdW  Elec       q    Type
REMARK                         _______ _______ _______ _____ _____    ______ ____
ROOT
ATOM      1  C   UNL     1      43.614   5.571  12.128  0.00  0.00    +0.000 C 
ATOM      2  F   UNL     1      42.940   6.545  11.445  0.00  0.00    +0.000 F 
ATOM      3  F   UNL     1      43.002   5.518  13.358  0.00  0.00    +0.000 F 
ENDROOT
BRANCH   1   4
ATOM      4  C   UNL     1      45.098   5.894  12.241  0.00  0.00    +0.000 A 
ATOM      5  C   UNL     1      45.749   5.644  13.449  0.00  0.00    +0.000 A 
ATOM      6  C   UNL     1      47.095   5.998  13.618  0.00  0.00    +0.000 A 
ATOM      7  C   UNL     1      47.732   6.608  12.530  0.00  0.00    +0.000 A 
ATOM      8  C   UNL     1      47.027   6.812  11.354  0.00  0.00    +0.000 A 
ATOM      9  N   UNL     1      45.737   6.468  11.187  0.00  0.00    +0.000 NA
BRANCH   6  10
ATOM     10  C   UNL     1      47.809   5.717  14.885  0.00  0.00    +0.000 A 
ATOM     11  C   UNL     1      48.878   6.524  15.319  0.00  0.00    +0.000 A 
ATOM     12  C   UNL     1      49.529   6.282  16.531  0.00  0.00    +0.000 A 
ATOM     13  C   UNL     1      49.121   5.228  17.340  0.00  0.00    +0.000 A 
ATOM     14  C   UNL     1      48.058   4.414  16.944  0.00  0.00    +0.000 A 
ATOM     15  C   UNL     1      47.424   4.647  15.715  0.00  0.00    +0.000 A 
BRANCH  14  16
ATOM     16  C   UNL     1      47.627   3.321  17.856  0.00  0.00    +0.000 C 
ATOM     17  N   UNL     1      48.396   3.081  18.963  0.00  0.00    +0.000 N 
ATOM     18  O   UNL     1      46.655   2.626  17.606  0.00  0.00    +0.000 OA
ATOM     19  H   UNL     1      49.315   3.473  19.096  0.00  0.00    +0.000 HD
ATOM     20  H   UNL     1      48.161   2.249  19.489  0.00  0.00    +0.000 HD
ENDBRANCH  14  16
ENDBRANCH   6  10
ENDBRANCH   1   4
BRANCH   1  21
ATOM     21  C   UNL     1      43.386   4.210  11.438  0.00  0.00    +0.000 C 
BRANCH  21  22
ATOM     22  N   UNL     1      43.450   4.295   9.967  0.00  0.00    +0.000 N 
ATOM     23  H   UNL     1      42.549   4.254   9.493  0.00  0.00    +0.000 HD
BRANCH  22  27
ATOM     24  C   UNL     1      46.469   2.437   7.693  0.00  0.00    +0.000 A 
ATOM     25  C   UNL     1      46.304   3.822   7.614  0.00  0.00    +0.000 A 
ATOM     26  C   UNL     1      45.318   4.453   8.379  0.00  0.00    +0.000 A 
ATOM     27  C   UNL     1      44.503   3.729   9.257  0.00  0.00    +0.000 A 
ATOM     28  C   UNL     1      44.670   2.340   9.310  0.00  0.00    +0.000 A 
ATOM     29  C   UNL     1      45.638   1.694   8.534  0.00  0.00    +0.000 A 
BRANCH  24  31
ATOM     30  N   UNL     1      48.562   2.451   6.456  0.00  0.00    +0.000 N 
ATOM     31  C   UNL     1      47.479   1.726   6.872  0.00  0.00    +0.000 C 
ATOM     32  O   UNL     1      47.374   0.536   6.604  0.00  0.00    +0.000 OA
ATOM     33  H   UNL     1      49.295   1.931   5.991  0.00  0.00    +0.000 HD
ATOM     34  H   UNL     1      48.803   3.341   6.868  0.00  0.00    +0.000 HD
ENDBRANCH  24  31
ENDBRANCH  22  27
ENDBRANCH  21  22
ENDBRANCH   1  21
TORSDOF 7
ENDMDL
MODEL 3
REMARK VINA RESULT:    -8.940      2.882      4.278
REMARK INTER + INTRA:         -13.713
REMARK INTER:                 -12.544
REMARK INTRA:                  -1.169
REMARK UNBOUND:                -1.114
REMARK  Name = 
REMARK  7 active torsions:
REMARK  status: ('A' for Active; 'I' for Inactive)
REMARK    1  A    between atoms: C_2  and  C_4
REMARK    2  A    between atoms: C_7  and  N_8
REMARK    3  A    between atoms: N_8  and  C_9
REMARK    4  A    between atoms: C_9  and  C_10
REMARK    5  A    between atoms: C_10  and  C_13
REMARK    6  A    between atoms: C_15  and  C_16
REMARK    7  A    between atoms: C_20  and  C_21
REMARK                            x       y       z     vdW  Elec       q    Type
REMARK                         _______ _______ _______ _____ _____    ______ ____
ROOT
ATOM      1  C   UNL     1      43.384   4.881  12.607  0.00  0.00    +0.000 C 
ATOM      2  F   UNL     1      42.596   5.991  12.474  0.00  0.00    +0.000 F 
ATOM      3  F   UNL     1      42.869   4.214  13.694  0.00  0.00    +0.000 F 
ENDROOT
BRANCH   1   4
ATOM      4  C   UNL     1      44.847   5.255  12.807  0.00  0.00    +0.000 A 
ATOM      5  C   UNL     1      45.517   4.768  13.929  0.00  0.00    +0.000 A 
ATOM      6  C   UNL     1      46.841   5.151  14.189  0.00  0.00    +0.000 A 
ATOM      7  C   UNL     1      47.435   6.035  13.280  0.00  0.00    +0.000 A 
ATOM      8  C   UNL     1      46.714   6.466  12.178  0.00  0.00    +0.000 A 
ATOM      9  N   UNL     1      45.446   6.096  11.923  0.00  0.00    +0.000 NA
BRANCH   6  10
ATOM     10  C   UNL     1      47.576   4.624  15.362  0.00  0.00    +0.000 A 
ATOM     11  C   UNL     1      47.592   3.248  15.659  0.00  0.00    +0.000 A 
ATOM     12  C   UNL     1      48.314   2.744  16.744  0.00  0.00    +0.000 A 
ATOM     13  C   UNL     1      49.040   3.608  17.556  0.00  0.00    +0.000 A 
ATOM     14  C   UNL     1      49.052   4.978  17.284  0.00  0.00    +0.000 A 
ATOM     15  C   UNL     1      48.307   5.480  16.207  0.00  0.00    +0.000 A 
BRANCH  14  16
ATOM     16  C   UNL     1      49.873   5.863  18.153  0.00  0.00    +0.000 C 
ATOM     17  N   UNL     1      50.410   6.986  17.585  0.00  0.00    +0.000 N 
ATOM     18  O   UNL     1      50.105   5.577  19.317  0.00  0.00    +0.000 OA
ATOM     19  H   UNL     1      50.432   7.149  16.590  0.00  0.00    +0.000 HD
ATOM     20  H   UNL     1      51.072   7.494  18.158  0.00  0.00    +0.000 HD
ENDBRANCH  14  16
ENDBRANCH   6  10
ENDBRANCH   1   4
BRANCH   1  21
ATOM     21  C   UNL     1      43.200   3.970  11.376  0.00  0.00    +0.000 C 
BRANCH  21  22
ATOM     22  N   UNL     1      43.750   4.559  10.140  0.00  0.00    +0.000 N 
ATOM     23  H   UNL     1      43.133   5.215   9.664  0.00  0.00    +0.000 HD
BRANCH  22  27
ATOM     24  C   UNL     1      46.451   2.462   7.682  0.00  0.00    +0.000 A 
ATOM     25  C   UNL     1      45.648   1.753   8.580  0.00  0.00    +0.000 A 
ATOM     26  C   UNL     1      44.733   2.436   9.388  0.00  0.00    +0.000 A 
ATOM     27  C   UNL     1      44.576   3.825   9.297  0.00  0.00    +0.000 A 
ATOM     28  C   UNL     1      45.402   4.520   8.405  0.00  0.00    +0.000 A 
ATOM     29  C   UNL     1      46.336   3.851   7.607  0.00  0.00    +0.000 A 
BRANCH  24  31
ATOM     30  N   UNL     1      48.546   2.513   6.450  0.00  0.00    +0.000 N 
ATOM     31  C   UNL     1      47.458   1.778   6.835  0.00  0.00    +0.000 C 
ATOM     32  O   UNL     1      47.347   0.601   6.520  0.00  0.00    +0.000 OA
ATOM     33  H   UNL     1      49.277   2.007   5.965  0.00  0.00    +0.000 HD
ATOM     34  H   UNL     1      48.792   3.384   6.897  0.00  0.00    +0.000 HD
ENDBRANCH  24  31
ENDBRANCH  22  27
ENDBRANCH  21  22
ENDBRANCH   1  21
TORSDOF 7
ENDMDL
MODEL 4
REMARK VINA RESULT:    -8.846      2.481      3.127
REMARK INTER + INTRA:         -13.580
REMARK INTER:                 -12.294
REMARK INTRA:                  -1.286
REMARK UNBOUND:                -1.114
REMARK  Name = 
REMARK  7 active torsions:
REMARK  status: ('A' for Active; 'I' for Inactive)
REMARK    1  A    between atoms: C_2  and  C_4
REMARK    2  A    between atoms: C_7  and  N_8
REMARK    3  A    between atoms: N_8  and  C_9
REMARK    4  A    between atoms: C_9  and  C_10
REMARK    5  A    between atoms: C_10  and  C_13
REMARK    6  A    between atoms: C_15  and  C_16
REMARK    7  A    between atoms: C_20  and  C_21
REMARK                            x       y       z     vdW  Elec       q    Type
REMARK                         _______ _______ _______ _____ _____    ______ ____
ROOT
ATOM      1  C   UNL     1      44.200   4.572  12.436  0.00  0.00    +0.000 C 
ATOM      2  F   UNL     1      43.523   4.470  13.620  0.00  0.00    +0.000 F 
ATOM      3  F   UNL     1      45.078   3.514  12.443  0.00  0.00    +0.000 F 
ENDROOT
BRANCH   1   4
ATOM      4  C   UNL     1      44.919   5.910  12.317  0.00  0.00    +0.000 A 
ATOM      5  C   UNL     1      46.181   6.047  12.895  0.00  0.00    +0.000 A 
ATOM      6  C   UNL     1      46.842   7.284  12.873  0.00  0.00    +0.000 A 
ATOM      7  C   UNL     1      46.174   8.349  12.258  0.00  0.00    +0.000 A 
ATOM      8  C   UNL     1      44.927   8.137  11.692  0.00  0.00    +0.000 A 
ATOM      9  N   UNL     1      44.293   6.949  11.705  0.00  0.00    +0.000 NA
BRANCH   6  10
ATOM     10  C   UNL     1      48.194   7.441  13.459  0.00  0.00    +0.000 A 
ATOM     11  C   UNL     1      49.176   8.233  12.834  0.00  0.00    +0.000 A 
ATOM     12  C   UNL     1      50.440   8.412  13.402  0.00  0.00    +0.000 A 
ATOM     13  C   UNL     1      50.748   7.804  14.615  0.00  0.00    +0.000 A 
ATOM     14  C   UNL     1      49.793   7.020  15.266  0.00  0.00    +0.000 A 
ATOM     15  C   UNL     1      48.535   6.826  14.678  0.00  0.00    +0.000 A 
BRANCH  14  16
ATOM     16  C   UNL     1      50.149   6.420  16.579  0.00  0.00    +0.000 C 
ATOM     17  N   UNL     1      50.391   7.274  17.621  0.00  0.00    +0.000 N 
ATOM     18  O   UNL     1      50.274   5.213  16.717  0.00  0.00    +0.000 OA
ATOM     19  H   UNL     1      50.516   8.268  17.506  0.00  0.00    +0.000 HD
ATOM     20  H   UNL     1      50.763   6.850  18.460  0.00  0.00    +0.000 HD
ENDBRANCH  14  16
ENDBRANCH   6  10
ENDBRANCH   1   4
BRANCH   1  21
ATOM     21  C   UNL     1      43.221   4.354  11.264  0.00  0.00    +0.000 C 
BRANCH  21  22
ATOM     22  N   UNL     1      43.783   4.767   9.964  0.00  0.00    +0.000 N 
ATOM     23  H   UNL     1      43.193   5.393   9.418  0.00  0.00    +0.000 HD
BRANCH  22  27
ATOM     24  C   UNL     1      46.351   2.248   7.774  0.00  0.00    +0.000 A 
ATOM     25  C   UNL     1      45.420   1.685   8.651  0.00  0.00    +0.000 A 
ATOM     26  C   UNL     1      44.549   2.510   9.369  0.00  0.00    +0.000 A 
ATOM     27  C   UNL     1      44.563   3.900   9.207  0.00  0.00    +0.000 A 
ATOM     28  C   UNL     1      45.514   4.448   8.338  0.00  0.00    +0.000 A 
ATOM     29  C   UNL     1      46.406   3.636   7.630  0.00  0.00    +0.000 A 
BRANCH  24  31
ATOM     30  N   UNL     1      48.420   2.039   6.514  0.00  0.00    +0.000 N 
ATOM     31  C   UNL     1      47.316   1.410   7.022  0.00  0.00    +0.000 C 
ATOM     32  O   UNL     1      47.159   0.203   6.889  0.00  0.00    +0.000 OA
ATOM     33  H   UNL     1      49.123   1.441   6.099  0.00  0.00    +0.000 HD
ATOM     34  H   UNL     1      48.705   2.957   6.822  0.00  0.00    +0.000 HD
ENDBRANCH  24  31
ENDBRANCH  22  27
ENDBRANCH  21  22
ENDBRANCH   1  21
TORSDOF 7
ENDMDL
MODEL 5
REMARK VINA RESULT:    -8.814      1.257      1.891
REMARK INTER + INTRA:         -13.535
REMARK INTER:                 -12.225
REMARK INTRA:                  -1.310
REMARK UNBOUND:                -1.114
REMARK  Name = 
REMARK  7 active torsions:
REMARK  status: ('A' for Active; 'I' for Inactive)
REMARK    1  A    between atoms: C_2  and  C_4
REMARK    2  A    between atoms: C_7  and  N_8
REMARK    3  A    between atoms: N_8  and  C_9
REMARK    4  A    between atoms: C_9  and  C_10
REMARK    5  A    between atoms: C_10  and  C_13
REMARK    6  A    between atoms: C_15  and  C_16
REMARK    7  A    between atoms: C_20  and  C_21
REMARK                            x       y       z     vdW  Elec       q    Type
REMARK                         _______ _______ _______ _____ _____    ______ ____
ROOT
ATOM      1  C   UNL     1      43.713   4.808  12.563  0.00  0.00    +0.000 C 
ATOM      2  F   UNL     1      42.645   5.051  13.381  0.00  0.00    +0.000 F 
ATOM      3  F   UNL     1      44.503   3.932  13.268  0.00  0.00    +0.000 F 
ENDROOT
BRANCH   1   4
ATOM      4  C   UNL     1      44.454   6.094  12.215  0.00  0.00    +0.000 A 
ATOM      5  C   UNL     1      45.782   6.232  12.619  0.00  0.00    +0.000 A 
ATOM      6  C   UNL     1      46.475   7.430  12.386  0.00  0.00    +0.000 A 
ATOM      7  C   UNL     1      45.770   8.455  11.745  0.00  0.00    +0.000 A 
ATOM      8  C   UNL     1      44.456   8.242  11.359  0.00  0.00    +0.000 A 
ATOM      9  N   UNL     1      43.791   7.092  11.575  0.00  0.00    +0.000 NA
BRANCH   6  10
ATOM     10  C   UNL     1      47.893   7.585  12.786  0.00  0.00    +0.000 A 
ATOM     11  C   UNL     1      48.305   7.386  14.117  0.00  0.00    +0.000 A 
ATOM     12  C   UNL     1      49.647   7.498  14.489  0.00  0.00    +0.000 A 
ATOM     13  C   UNL     1      50.610   7.807  13.534  0.00  0.00    +0.000 A 
ATOM     14  C   UNL     1      50.235   8.001  12.202  0.00  0.00    +0.000 A 
ATOM     15  C   UNL     1      48.883   7.911  11.840  0.00  0.00    +0.000 A 
BRANCH  14  16
ATOM     16  C   UNL     1      51.299   8.292  11.205  0.00  0.00    +0.000 C 
ATOM     17  N   UNL     1      52.237   7.322  10.980  0.00  0.00    +0.000 N 
ATOM     18  O   UNL     1      51.369   9.374  10.643  0.00  0.00    +0.000 OA
ATOM     19  H   UNL     1      52.351   6.512  11.569  0.00  0.00    +0.000 HD
ATOM     20  H   UNL     1      53.023   7.595  10.403  0.00  0.00    +0.000 HD
ENDBRANCH  14  16
ENDBRANCH   6  10
ENDBRANCH   1   4
BRANCH   1  21
ATOM     21  C   UNL     1      43.232   4.077  11.292  0.00  0.00    +0.000 C 
BRANCH  21  22
ATOM     22  N   UNL     1      43.788   4.654  10.054  0.00  0.00    +0.000 N 
ATOM     23  H   UNL     1      43.127   5.189   9.492  0.00  0.00    +0.000 HD
BRANCH  22  27
ATOM     24  C   UNL     1      46.551   2.504   7.713  0.00  0.00    +0.000 A 
ATOM     25  C   UNL     1      46.533   3.900   7.645  0.00  0.00    +0.000 A 
ATOM     26  C   UNL     1      45.634   4.626   8.432  0.00  0.00    +0.000 A 
ATOM     27  C   UNL     1      44.762   3.986   9.321  0.00  0.00    +0.000 A 
ATOM     28  C   UNL     1      44.781   2.586   9.362  0.00  0.00    +0.000 A 
ATOM     29  C   UNL     1      45.660   1.847   8.564  0.00  0.00    +0.000 A 
BRANCH  24  31
ATOM     30  N   UNL     1      48.592   2.318   6.405  0.00  0.00    +0.000 N 
ATOM     31  C   UNL     1      47.464   1.697   6.868  0.00  0.00    +0.000 C 
ATOM     32  O   UNL     1      47.245   0.518   6.622  0.00  0.00    +0.000 OA
ATOM     33  H   UNL     1      49.259   1.729   5.922  0.00  0.00    +0.000 HD
ATOM     34  H   UNL     1      48.925   3.187   6.795  0.00  0.00    +0.000 HD
ENDBRANCH  24  31
ENDBRANCH  22  27
ENDBRANCH  21  22
ENDBRANCH   1  21
TORSDOF 7
ENDMDL
MODEL 6
REMARK VINA RESULT:    -8.197      2.037      2.368
REMARK INTER + INTRA:         -12.665
REMARK INTER:                 -11.478
REMARK INTRA:                  -1.187
REMARK UNBOUND:                -1.114
REMARK  Name = 
REMARK  7 active torsions:
REMARK  status: ('A' for Active; 'I' for Inactive)
REMARK    1  A    between atoms: C_2  and  C_4
REMARK    2  A    between atoms: C_7  and  N_8
REMARK    3  A    between atoms: N_8  and  C_9
REMARK    4  A    between atoms: C_9  and  C_10
REMARK    5  A    between atoms: C_10  and  C_13
REMARK    6  A    between atoms: C_15  and  C_16
REMARK    7  A    between atoms: C_20  and  C_21
REMARK                            x       y       z     vdW  Elec       q    Type
REMARK                         _______ _______ _______ _____ _____    ______ ____
ROOT
ATOM      1  C   UNL     1      43.430   5.104  12.368  0.00  0.00    +0.000 C 
ATOM      2  F   UNL     1      42.763   6.278  12.585  0.00  0.00    +0.000 F 
ATOM      3  F   UNL     1      42.676   4.149  13.007  0.00  0.00    +0.000 F 
ENDROOT
BRANCH   1   4
ATOM      4  C   UNL     1      44.854   5.163  12.906  0.00  0.00    +0.000 A 
ATOM      5  C   UNL     1      45.582   6.342  12.748  0.00  0.00    +0.000 A 
ATOM      6  C   UNL     1      46.921   6.411  13.160  0.00  0.00    +0.000 A 
ATOM      7  C   UNL     1      47.473   5.253  13.721  0.00  0.00    +0.000 A 
ATOM      8  C   UNL     1      46.685   4.121  13.861  0.00  0.00    +0.000 A 
ATOM      9  N   UNL     1      45.398   4.054  13.472  0.00  0.00    +0.000 NA
BRANCH   6  10
ATOM     10  C   UNL     1      47.702   7.663  13.023  0.00  0.00    +0.000 A 
ATOM     11  C   UNL     1      48.130   8.126  11.765  0.00  0.00    +0.000 A 
ATOM     12  C   UNL     1      48.836   9.324  11.629  0.00  0.00    +0.000 A 
ATOM     13  C   UNL     1      49.126  10.090  12.753  0.00  0.00    +0.000 A 
ATOM     14  C   UNL     1      48.707   9.664  14.016  0.00  0.00    +0.000 A 
ATOM     15  C   UNL     1      48.020   8.449  14.147  0.00  0.00    +0.000 A 
BRANCH  14  16
ATOM     16  C   UNL     1      49.004  10.530  15.187  0.00  0.00    +0.000 C 
ATOM     17  N   UNL     1      48.398  10.219  16.374  0.00  0.00    +0.000 N 
ATOM     18  O   UNL     1      49.718  11.516  15.088  0.00  0.00    +0.000 OA
ATOM     19  H   UNL     1      47.640   9.560  16.454  0.00  0.00    +0.000 HD
ATOM     20  H   UNL     1      48.507  10.899  17.115  0.00  0.00    +0.000 HD
ENDBRANCH  14  16
ENDBRANCH   6  10
ENDBRANCH   1   4
BRANCH   1  21
ATOM     21  C   UNL     1      43.413   4.775  10.860  0.00  0.00    +0.000 C 
BRANCH  21  22
ATOM     22  N   UNL     1      43.916   3.421  10.563  0.00  0.00    +0.000 N 
ATOM     23  H   UNL     1      44.150   2.860  11.381  0.00  0.00    +0.000 HD
BRANCH  22  27
ATOM     24  C   UNL     1      46.489   2.807   7.287  0.00  0.00    +0.000 A 
ATOM     25  C   UNL     1      46.003   1.704   7.994  0.00  0.00    +0.000 A 
ATOM     26  C   UNL     1      45.133   1.894   9.072  0.00  0.00    +0.000 A 
ATOM     27  C   UNL     1      44.704   3.173   9.446  0.00  0.00    +0.000 A 
ATOM     28  C   UNL     1      45.215   4.267   8.737  0.00  0.00    +0.000 A 
ATOM     29  C   UNL     1      46.103   4.092   7.671  0.00  0.00    +0.000 A 
BRANCH  24  31
ATOM     30  N   UNL     1      48.657   2.091   6.451  0.00  0.00    +0.000 N 
ATOM     31  C   UNL     1      47.442   2.649   6.161  0.00  0.00    +0.000 C 
ATOM     32  O   UNL     1      47.149   2.967   5.016  0.00  0.00    +0.000 OA
ATOM     33  H   UNL     1      49.255   1.889   5.660  0.00  0.00    +0.000 HD
ATOM     34  H   UNL     1      48.828   1.591   7.311  0.00  0.00    +0.000 HD
ENDBRANCH  24  31
ENDBRANCH  22  27
ENDBRANCH  21  22
ENDBRANCH   1  21
TORSDOF 7
ENDMDL
MODEL 7
REMARK VINA RESULT:    -7.792      3.499      4.505
REMARK INTER + INTRA:         -12.095
REMARK INTER:                 -11.135
REMARK INTRA:                  -0.960
REMARK UNBOUND:                -1.114
REMARK  Name = 
REMARK  7 active torsions:
REMARK  status: ('A' for Active; 'I' for Inactive)
REMARK    1  A    between atoms: C_2  and  C_4
REMARK    2  A    between atoms: C_7  and  N_8
REMARK    3  A    between atoms: N_8  and  C_9
REMARK    4  A    between atoms: C_9  and  C_10
REMARK    5  A    between atoms: C_10  and  C_13
REMARK    6  A    between atoms: C_15  and  C_16
REMARK    7  A    between atoms: C_20  and  C_21
REMARK                            x       y       z     vdW  Elec       q    Type
REMARK                         _______ _______ _______ _____ _____    ______ ____
ROOT
ATOM      1  C   UNL     1      45.516   5.880  12.283  0.00  0.00    +0.000 C 
ATOM      2  F   UNL     1      44.365   5.906  13.020  0.00  0.00    +0.000 F 
ATOM      3  F   UNL     1      45.937   4.573  12.333  0.00  0.00    +0.000 F 
ENDROOT
BRANCH   1   4
ATOM      4  C   UNL     1      46.560   6.838  12.843  0.00  0.00    +0.000 A 
ATOM      5  C   UNL     1      47.467   6.363  13.790  0.00  0.00    +0.000 A 
ATOM      6  C   UNL     1      48.393   7.231  14.386  0.00  0.00    +0.000 A 
ATOM      7  C   UNL     1      48.350   8.573  13.990  0.00  0.00    +0.000 A 
ATOM      8  C   UNL     1      47.431   8.972  13.033  0.00  0.00    +0.000 A 
ATOM      9  N   UNL     1      46.546   8.140  12.454  0.00  0.00    +0.000 NA
BRANCH   6  10
ATOM     10  C   UNL     1      49.381   6.738  15.374  0.00  0.00    +0.000 A 
ATOM     11  C   UNL     1      50.691   7.250  15.419  0.00  0.00    +0.000 A 
ATOM     12  C   UNL     1      51.614   6.813  16.373  0.00  0.00    +0.000 A 
ATOM     13  C   UNL     1      51.242   5.853  17.309  0.00  0.00    +0.000 A 
ATOM     14  C   UNL     1      49.947   5.332  17.298  0.00  0.00    +0.000 A 
ATOM     15  C   UNL     1      49.034   5.758  16.323  0.00  0.00    +0.000 A 
BRANCH  14  16
ATOM     16  C   UNL     1      49.578   4.336  18.339  0.00  0.00    +0.000 C 
ATOM     17  N   UNL     1      50.388   3.242  18.484  0.00  0.00    +0.000 N 
ATOM     18  O   UNL     1      48.564   4.458  19.008  0.00  0.00    +0.000 OA
ATOM     19  H   UNL     1      51.101   2.988  17.818  0.00  0.00    +0.000 HD
ATOM     20  H   UNL     1      50.042   2.518  19.100  0.00  0.00    +0.000 HD
ENDBRANCH  14  16
ENDBRANCH   6  10
ENDBRANCH   1   4
BRANCH   1  21
ATOM     21  C   UNL     1      45.190   6.205  10.810  0.00  0.00    +0.000 C 
BRANCH  21  22
ATOM     22  N   UNL     1      44.328   5.190  10.177  0.00  0.00    +0.000 N 
ATOM     23  H   UNL     1      43.489   4.947  10.703  0.00  0.00    +0.000 HD
BRANCH  22  27
ATOM     24  C   UNL     1      46.197   2.102   8.007  0.00  0.00    +0.000 A 
ATOM     25  C   UNL     1      45.272   1.778   9.004  0.00  0.00    +0.000 A 
ATOM     26  C   UNL     1      44.630   2.795   9.718  0.00  0.00    +0.000 A 
ATOM     27  C   UNL     1      44.868   4.146   9.436  0.00  0.00    +0.000 A 
ATOM     28  C   UNL     1      45.811   4.451   8.446  0.00  0.00    +0.000 A 
ATOM     29  C   UNL     1      46.476   3.444   7.740  0.00  0.00    +0.000 A 
BRANCH  24  31
ATOM     30  N   UNL     1      46.758  -0.239   7.670  0.00  0.00    +0.000 N 
ATOM     31  C   UNL     1      46.925   1.053   7.253  0.00  0.00    +0.000 C 
ATOM     32  O   UNL     1      47.615   1.319   6.278  0.00  0.00    +0.000 OA
ATOM     33  H   UNL     1      47.171  -0.954   7.084  0.00  0.00    +0.000 HD
ATOM     34  H   UNL     1      46.010  -0.512   8.290  0.00  0.00    +0.000 HD
ENDBRANCH  24  31
ENDBRANCH  22  27
ENDBRANCH  21  22
ENDBRANCH   1  21
TORSDOF 7
ENDMDL
MODEL 8
REMARK VINA RESULT:    -7.692      3.804      7.783
REMARK INTER + INTRA:         -11.954
REMARK INTER:                 -10.670
REMARK INTRA:                  -1.284
REMARK UNBOUND:                -1.114
REMARK  Name = 
REMARK  7 active torsions:
REMARK  status: ('A' for Active; 'I' for Inactive)
REMARK    1  A    between atoms: C_2  and  C_4
REMARK    2  A    between atoms: C_7  and  N_8
REMARK    3  A    between atoms: N_8  and  C_9
REMARK    4  A    between atoms: C_9  and  C_10
REMARK    5  A    between atoms: C_10  and  C_13
REMARK    6  A    between atoms: C_15  and  C_16
REMARK    7  A    between atoms: C_20  and  C_21
REMARK                            x       y       z     vdW  Elec       q    Type
REMARK                         _______ _______ _______ _____ _____    ______ ____
ROOT
ATOM      1  C   UNL     1      49.163   8.218  12.010  0.00  0.00    +0.000 C 
ATOM      2  F   UNL     1      49.575   9.492  11.731  0.00  0.00    +0.000 F 
ATOM      3  F   UNL     1      49.655   7.456  10.978  0.00  0.00    +0.000 F 
ENDROOT
BRANCH   1   4
ATOM      4  C   UNL     1      47.645   8.131  12.112  0.00  0.00    +0.000 A 
ATOM      5  C   UNL     1      47.030   6.895  11.922  0.00  0.00    +0.000 A 
ATOM      6  C   UNL     1      45.632   6.787  11.932  0.00  0.00    +0.000 A 
ATOM      7  C   UNL     1      44.907   7.968  12.132  0.00  0.00    +0.000 A 
ATOM      8  C   UNL     1      45.585   9.159  12.329  0.00  0.00    +0.000 A 
ATOM      9  N   UNL     1      46.927   9.265  12.327  0.00  0.00    +0.000 NA
BRANCH   6  10
ATOM     10  C   UNL     1      44.962   5.477  11.757  0.00  0.00    +0.000 A 
ATOM     11  C   UNL     1      44.149   4.929  12.767  0.00  0.00    +0.000 A 
ATOM     12  C   UNL     1      43.488   3.711  12.591  0.00  0.00    +0.000 A 
ATOM     13  C   UNL     1      43.623   3.015  11.394  0.00  0.00    +0.000 A 
ATOM     14  C   UNL     1      44.414   3.535  10.368  0.00  0.00    +0.000 A 
ATOM     15  C   UNL     1      45.094   4.746  10.561  0.00  0.00    +0.000 A 
BRANCH  14  16
ATOM     16  C   UNL     1      44.501   2.779   9.091  0.00  0.00    +0.000 C 
ATOM     17  N   UNL     1      44.400   3.490   7.926  0.00  0.00    +0.000 N 
ATOM     18  O   UNL     1      44.605   1.562   9.075  0.00  0.00    +0.000 OA
ATOM     19  H   UNL     1      44.096   4.451   7.887  0.00  0.00    +0.000 HD
ATOM     20  H   UNL     1      44.324   2.940   7.080  0.00  0.00    +0.000 HD
ENDBRANCH  14  16
ENDBRANCH   6  10
ENDBRANCH   1   4
BRANCH   1  21
ATOM     21  C   UNL     1      49.841   7.733  13.309  0.00  0.00    +0.000 C 
BRANCH  21  22
ATOM     22  N   UNL     1      48.947   7.792  14.480  0.00  0.00    +0.000 N 
ATOM     23  H   UNL     1      49.009   8.650  15.026  0.00  0.00    +0.000 HD
BRANCH  22  27
ATOM     24  C   UNL     1      47.940   4.494  16.896  0.00  0.00    +0.000 A 
ATOM     25  C   UNL     1      47.460   4.556  15.585  0.00  0.00    +0.000 A 
ATOM     26  C   UNL     1      47.803   5.637  14.767  0.00  0.00    +0.000 A 
ATOM     27  C   UNL     1      48.651   6.654  15.220  0.00  0.00    +0.000 A 
ATOM     28  C   UNL     1      49.108   6.584  16.542  0.00  0.00    +0.000 A 
ATOM     29  C   UNL     1      48.755   5.520  17.378  0.00  0.00    +0.000 A 
BRANCH  24  31
ATOM     30  N   UNL     1      48.351   3.204  18.915  0.00  0.00    +0.000 N 
ATOM     31  C   UNL     1      47.570   3.383  17.807  0.00  0.00    +0.000 C 
ATOM     32  O   UNL     1      46.590   2.679  17.603  0.00  0.00    +0.000 OA
ATOM     33  H   UNL     1      48.026   2.516  19.583  0.00  0.00    +0.000 HD
ATOM     34  H   UNL     1      48.992   3.912  19.242  0.00  0.00    +0.000 HD
ENDBRANCH  24  31
ENDBRANCH  22  27
ENDBRANCH  21  22
ENDBRANCH   1  21
TORSDOF 7
ENDMDL
MODEL 9
REMARK VINA RESULT:    -7.653      2.463      3.149
REMARK INTER + INTRA:         -11.899
REMARK INTER:                 -10.778
REMARK INTRA:                  -1.121
REMARK UNBOUND:                -1.114
REMARK  Name = 
REMARK  7 active torsions:
REMARK  status: ('A' for Active; 'I' for Inactive)
REMARK    1  A    between atoms: C_2  and  C_4
REMARK    2  A    between atoms: C_7  and  N_8
REMARK    3  A    between atoms: N_8  and  C_9
REMARK    4  A    between atoms: C_9  and  C_10
REMARK    5  A    between atoms: C_10  and  C_13
REMARK    6  A    between atoms: C_15  and  C_16
REMARK    7  A    between atoms: C_20  and  C_21
REMARK                            x       y       z     vdW  Elec       q    Type
REMARK                         _______ _______ _______ _____ _____    ______ ____
ROOT
ATOM      1  C   UNL     1      44.538   4.829  12.840  0.00  0.00    +0.000 C 
ATOM      2  F   UNL     1      43.433   5.588  12.571  0.00  0.00    +0.000 F 
ATOM      3  F   UNL     1      44.374   4.419  14.142  0.00  0.00    +0.000 F 
ENDROOT
BRANCH   1   4
ATOM      4  C   UNL     1      45.823   5.625  12.648  0.00  0.00    +0.000 A 
ATOM      5  C   UNL     1      46.714   5.727  13.716  0.00  0.00    +0.000 A 
ATOM      6  C   UNL     1      47.870   6.514  13.605  0.00  0.00    +0.000 A 
ATOM      7  C   UNL     1      48.069   7.181  12.391  0.00  0.00    +0.000 A 
ATOM      8  C   UNL     1      47.149   7.021  11.367  0.00  0.00    +0.000 A 
ATOM      9  N   UNL     1      46.042   6.262  11.468  0.00  0.00    +0.000 NA
BRANCH   6  10
ATOM     10  C   UNL     1      48.840   6.613  14.721  0.00  0.00    +0.000 A 
ATOM     11  C   UNL     1      48.584   6.017  15.970  0.00  0.00    +0.000 A 
ATOM     12  C   UNL     1      49.513   6.078  17.012  0.00  0.00    +0.000 A 
ATOM     13  C   UNL     1      50.724   6.735  16.824  0.00  0.00    +0.000 A 
ATOM     14  C   UNL     1      51.014   7.329  15.594  0.00  0.00    +0.000 A 
ATOM     15  C   UNL     1      50.067   7.284  14.560  0.00  0.00    +0.000 A 
BRANCH  14  16
ATOM     16  C   UNL     1      52.335   7.988  15.422  0.00  0.00    +0.000 C 
ATOM     17  N   UNL     1      53.108   7.591  14.364  0.00  0.00    +0.000 N 
ATOM     18  O   UNL     1      52.745   8.816  16.220  0.00  0.00    +0.000 OA
ATOM     19  H   UNL     1      52.915   6.769  13.814  0.00  0.00    +0.000 HD
ATOM     20  H   UNL     1      54.053   7.953  14.349  0.00  0.00    +0.000 HD
ENDBRANCH  14  16
ENDBRANCH   6  10
ENDBRANCH   1   4
BRANCH   1  21
ATOM     21  C   UNL     1      44.523   3.567  11.952  0.00  0.00    +0.000 C 
BRANCH  21  22
ATOM     22  N   UNL     1      44.103   3.846  10.566  0.00  0.00    +0.000 N 
ATOM     23  H   UNL     1      43.096   3.828  10.409  0.00  0.00    +0.000 HD
BRANCH  22  27
ATOM     24  C   UNL     1      46.609   2.700   7.382  0.00  0.00    +0.000 A 
ATOM     25  C   UNL     1      46.023   1.716   8.183  0.00  0.00    +0.000 A 
ATOM     26  C   UNL     1      45.174   2.083   9.231  0.00  0.00    +0.000 A 
ATOM     27  C   UNL     1      44.865   3.426   9.483  0.00  0.00    +0.000 A 
ATOM     28  C   UNL     1      45.476   4.398   8.682  0.00  0.00    +0.000 A 
ATOM     29  C   UNL     1      46.344   4.046   7.644  0.00  0.00    +0.000 A 
BRANCH  24  31
ATOM     30  N   UNL     1      47.353   2.983   5.085  0.00  0.00    +0.000 N 
ATOM     31  C   UNL     1      47.544   2.353   6.284  0.00  0.00    +0.000 C 
ATOM     32  O   UNL     1      48.470   1.568   6.447  0.00  0.00    +0.000 OA
ATOM     33  H   UNL     1      48.060   2.821   4.379  0.00  0.00    +0.000 HD
ATOM     34  H   UNL     1      46.778   3.808   4.996  0.00  0.00    +0.000 HD
ENDBRANCH  24  31
ENDBRANCH  22  27
ENDBRANCH  21  22
ENDBRANCH   1  21
TORSDOF 7
ENDMDL
