MODEL 1
REMARK VINA RESULT:    -9.062      0.000      0.000
REMARK INTER + INTRA:         -12.274
REMARK INTER:                 -11.181
REMARK INTRA:                  -1.093
REMARK UNBOUND:                -1.093
REMARK  Name = 
REMARK  4 active torsions:
REMARK  status: ('A' for Active; 'I' for Inactive)
REMARK    1  A    between atoms: C_2  and  C_4
REMARK    2  A    between atoms: N_8  and  C_9
REMARK    3  A    between atoms: C_9  and  C_10
REMARK    4  A    between atoms: C_14  and  C_15
REMARK                            x       y       z     vdW  Elec       q    Type
REMARK                         _______ _______ _______ _____ _____    ______ ____
ROOT
ATOM      1  C   UNL     1      43.854   4.943  11.388  0.00  0.00    +0.000 C 
ATOM      2  C   UNL     1      42.510   5.178  12.077  0.00  0.00    +0.000 C 
ATOM      3  C   UNL     1      42.995   6.152  11.060  0.00  0.00    +0.000 C 
ENDROOT
BRANCH   1   8
ATOM      4  C   UNL     1      46.554   2.766   7.499  0.00  0.00    +0.000 A 
ATOM      5  C   UNL     1      46.246   4.107   7.707  0.00  0.00    +0.000 A 
ATOM      6  C   UNL     1      45.385   4.457   8.749  0.00  0.00    +0.000 A 
ATOM      7  C   UNL     1      44.839   3.470   9.559  0.00  0.00    +0.000 A 
ATOM      8  N   UNL     1      43.907   3.726  10.563  0.00  0.00    +0.000 N 
ATOM      9  N   UNL     1      45.122   2.165   9.353  0.00  0.00    +0.000 NA
ATOM     10  C   UNL     1      45.962   1.836   8.336  0.00  0.00    +0.000 A 
ATOM     11  H   UNL     1      43.737   2.840  11.036  0.00  0.00    +0.000 HD
BRANCH   4  13
ATOM     12  N   UNL     1      47.395   2.993   5.230  0.00  0.00    +0.000 N 
ATOM     13  C   UNL     1      47.445   2.306   6.412  0.00  0.00    +0.000 C 
ATOM     14  O   UNL     1      48.216   1.370   6.570  0.00  0.00    +0.000 OA
ATOM     15  H   UNL     1      48.067   2.723   4.523  0.00  0.00    +0.000 HD
ATOM     16  H   UNL     1      46.957   3.898   5.137  0.00  0.00    +0.000 HD
ENDBRANCH   4  13
ENDBRANCH   1   8
BRANCH   1  17
ATOM     17  C   UNL     1      45.121   5.211  12.202  0.00  0.00    +0.000 A 
ATOM     18  C   UNL     1      45.561   4.320  13.189  0.00  0.00    +0.000 A 
ATOM     19  C   UNL     1      46.770   4.520  13.855  0.00  0.00    +0.000 A 
ATOM     20  C   UNL     1      47.570   5.619  13.537  0.00  0.00    +0.000 A 
ATOM     21  C   UNL     1      47.179   6.546  12.558  0.00  0.00    +0.000 A 
ATOM     22  C   UNL     1      45.933   6.332  11.934  0.00  0.00    +0.000 A 
BRANCH  21  23
ATOM     23  C   UNL     1      48.061   7.657  12.129  0.00  0.00    +0.000 A 
ATOM     24  C   UNL     1      47.597   8.980  12.093  0.00  0.00    +0.000 A 
ATOM     25  C   UNL     1      48.472  10.003  11.755  0.00  0.00    +0.000 A 
ATOM     26  N   UNL     1      49.772   9.811  11.456  0.00  0.00    +0.000 NA
ATOM     27  C   UNL     1      50.211   8.538  11.488  0.00  0.00    +0.000 A 
ATOM     28  C   UNL     1      49.409   7.450  11.804  0.00  0.00    +0.000 A 
ENDBRANCH  21  23
ENDBRANCH   1  17
TORSDOF 4
ENDMDL
MODEL 2
REMARK VINA RESULT:    -8.845      2.135      3.437
REMARK INTER + INTRA:         -12.006
REMARK INTER:                 -11.313
REMARK INTRA:                  -0.693
REMARK UNBOUND:                -1.093
REMARK  Name = 
REMARK  4 active torsions:
REMARK  status: ('A' for Active; 'I' for Inactive)
REMARK    1  A    between atoms: C_2  and  C_4
REMARK    2  A    between atoms: N_8  and  C_9
REMARK    3  A    between atoms: C_9  and  C_10
REMARK    4  A    between atoms: C_14  and  C_15
REMARK                            x       y       z     vdW  Elec       q    Type
REMARK                         _______ _______ _______ _____ _____    ______ ____
ROOT
ATOM      1  C   UNL     1      43.996   4.894  11.533  0.00  0.00    +0.000 C 
ATOM      2  C   UNL     1      42.807   4.984  12.488  0.00  0.00    +0.000 C 
ATOM      3  C   UNL     1      42.920   5.951  11.362  0.00  0.00    +0.000 C 
ENDROOT
BRANCH   1   8
ATOM      4  C   UNL     1      46.470   2.718   7.495  0.00  0.00    +0.000 A 
ATOM      5  C   UNL     1      46.097   4.045   7.681  0.00  0.00    +0.000 A 
ATOM      6  C   UNL     1      45.311   4.388   8.784  0.00  0.00    +0.000 A 
ATOM      7  C   UNL     1      44.906   3.405   9.677  0.00  0.00    +0.000 A 
ATOM      8  N   UNL     1      44.053   3.647  10.753  0.00  0.00    +0.000 N 
ATOM      9  N   UNL     1      45.252   2.112   9.496  0.00  0.00    +0.000 NA
ATOM     10  C   UNL     1      46.017   1.791   8.418  0.00  0.00    +0.000 A 
ATOM     11  H   UNL     1      43.984   2.774  11.273  0.00  0.00    +0.000 HD
BRANCH   4  13
ATOM     12  N   UNL     1      47.208   3.000   5.197  0.00  0.00    +0.000 N 
ATOM     13  C   UNL     1      47.288   2.267   6.349  0.00  0.00    +0.000 C 
ATOM     14  O   UNL     1      48.027   1.296   6.434  0.00  0.00    +0.000 OA
ATOM     15  H   UNL     1      47.832   2.732   4.447  0.00  0.00    +0.000 HD
ATOM     16  H   UNL     1      46.802   3.924   5.160  0.00  0.00    +0.000 HD
ENDBRANCH   4  13
ENDBRANCH   1   8
BRANCH   1  17
ATOM     17  C   UNL     1      45.352   5.381  12.046  0.00  0.00    +0.000 A 
ATOM     18  C   UNL     1      46.053   6.409  11.401  0.00  0.00    +0.000 A 
ATOM     19  C   UNL     1      47.238   6.917  11.933  0.00  0.00    +0.000 A 
ATOM     20  C   UNL     1      47.742   6.408  13.131  0.00  0.00    +0.000 A 
ATOM     21  C   UNL     1      47.084   5.378  13.819  0.00  0.00    +0.000 A 
ATOM     22  C   UNL     1      45.910   4.863  13.232  0.00  0.00    +0.000 A 
BRANCH  21  23
ATOM     23  C   UNL     1      47.542   4.898  15.144  0.00  0.00    +0.000 A 
ATOM     24  C   UNL     1      48.309   5.714  15.987  0.00  0.00    +0.000 A 
ATOM     25  C   UNL     1      48.659   5.257  17.250  0.00  0.00    +0.000 A 
ATOM     26  N   UNL     1      48.300   4.054  17.739  0.00  0.00    +0.000 NA
ATOM     27  C   UNL     1      47.567   3.272  16.924  0.00  0.00    +0.000 A 
ATOM     28  C   UNL     1      47.179   3.638  15.643  0.00  0.00    +0.000 A 
ENDBRANCH  21  23
ENDBRANCH   1  17
TORSDOF 4
ENDMDL
MODEL 3
REMARK VINA RESULT:    -6.602      3.608      7.488
REMARK INTER + INTRA:          -9.238
REMARK INTER:                  -9.229
REMARK INTRA:                  -0.009
REMARK UNBOUND:                -1.093
REMARK  Name = 
REMARK  4 active torsions:
REMARK  status: ('A' for Active; 'I' for Inactive)
REMARK    1  A    between atoms: C_2  and  C_4
REMARK    2  A    between atoms: N_8  and  C_9
REMARK    3  A    between atoms: C_9  and  C_10
REMARK    4  A    between atoms: C_14  and  C_15
REMARK                            x       y       z     vdW  Elec       q    Type
REMARK                         _______ _______ _______ _____ _____    ______ ____
ROOT
ATOM      1  C   UNL     1      48.635   7.885  12.782  0.00  0.00    +0.000 C 
ATOM      2  C   UNL     1      49.762   7.325  11.916  0.00  0.00    +0.000 C 
ATOM      3  C   UNL     1      49.493   8.789  11.914  0.00  0.00    +0.000 C 
ENDROOT
BRANCH   1   8
ATOM      4  C   UNL     1      48.020   4.371  16.581  0.00  0.00    +0.000 A 
ATOM      5  C   UNL     1      47.226   4.598  15.461  0.00  0.00    +0.000 A 
ATOM      6  C   UNL     1      47.499   5.693  14.639  0.00  0.00    +0.000 A 
ATOM      7  C   UNL     1      48.550   6.546  14.947  0.00  0.00    +0.000 A 
ATOM      8  N   UNL     1      48.836   7.706  14.229  0.00  0.00    +0.000 N 
ATOM      9  N   UNL     1      49.316   6.341  16.040  0.00  0.00    +0.000 NA
ATOM     10  C   UNL     1      49.041   5.271  16.834  0.00  0.00    +0.000 A 
ATOM     11  H   UNL     1      49.690   8.092  14.627  0.00  0.00    +0.000 HD
BRANCH   4  13
ATOM     12  N   UNL     1      48.844   2.868  18.303  0.00  0.00    +0.000 N 
ATOM     13  C   UNL     1      47.794   3.245  17.512  0.00  0.00    +0.000 C 
ATOM     14  O   UNL     1      46.706   2.692  17.594  0.00  0.00    +0.000 OA
ATOM     15  H   UNL     1      48.654   2.153  18.994  0.00  0.00    +0.000 HD
ATOM     16  H   UNL     1      49.667   3.438  18.434  0.00  0.00    +0.000 HD
ENDBRANCH   4  13
ENDBRANCH   1   8
BRANCH   1  17
ATOM     17  C   UNL     1      47.199   7.654  12.310  0.00  0.00    +0.000 A 
ATOM     18  C   UNL     1      46.216   8.644  12.435  0.00  0.00    +0.000 A 
ATOM     19  C   UNL     1      44.938   8.463  11.910  0.00  0.00    +0.000 A 
ATOM     20  C   UNL     1      44.619   7.281  11.238  0.00  0.00    +0.000 A 
ATOM     21  C   UNL     1      45.562   6.254  11.083  0.00  0.00    +0.000 A 
ATOM     22  C   UNL     1      46.831   6.457  11.661  0.00  0.00    +0.000 A 
BRANCH  21  23
ATOM     23  C   UNL     1      45.279   5.040  10.282  0.00  0.00    +0.000 A 
ATOM     24  C   UNL     1      44.531   3.978  10.810  0.00  0.00    +0.000 A 
ATOM     25  C   UNL     1      44.226   2.889  10.006  0.00  0.00    +0.000 A 
ATOM     26  N   UNL     1      44.603   2.778   8.718  0.00  0.00    +0.000 NA
ATOM     27  C   UNL     1      45.325   3.798   8.216  0.00  0.00    +0.000 A 
ATOM     28  C   UNL     1      45.687   4.922   8.946  0.00  0.00    +0.000 A 
ENDBRANCH  21  23
ENDBRANCH   1  17
TORSDOF 4
ENDMDL
MODEL 4
REMARK VINA RESULT:    -6.589      4.407      8.303
REMARK INTER + INTRA:          -9.222
REMARK INTER:                  -8.247
REMARK INTRA:                  -0.975
REMARK UNBOUND:                -1.093
REMARK  Name = 
REMARK  4 active torsions:
REMARK  status: ('A' for Active; 'I' for Inactive)
REMARK    1  A    between atoms: C_2  and  C_4
REMARK    2  A    between atoms: N_8  and  C_9
REMARK    3  A    between atoms: C_9  and  C_10
REMARK    4  A    between atoms: C_14  and  C_15
REMARK                            x       y       z     vdW  Elec       q    Type
REMARK                         _______ _______ _______ _____ _____    ______ ____
ROOT
ATOM      1  C   UNL     1      49.053   7.895  12.738  0.00  0.00    +0.000 C 
ATOM      2  C   UNL     1      50.011   8.078  11.562  0.00  0.00    +0.000 C 
ATOM      3  C   UNL     1      49.675   9.244  12.424  0.00  0.00    +0.000 C 
ENDROOT
BRANCH   1   8
ATOM      4  C   UNL     1      48.493   6.830  17.809  0.00  0.00    +0.000 A 
ATOM      5  C   UNL     1      48.441   8.060  17.162  0.00  0.00    +0.000 A 
ATOM      6  C   UNL     1      48.760   8.134  15.804  0.00  0.00    +0.000 A 
ATOM      7  C   UNL     1      49.132   6.987  15.116  0.00  0.00    +0.000 A 
ATOM      8  N   UNL     1      49.548   6.987  13.786  0.00  0.00    +0.000 N 
ATOM      9  N   UNL     1      49.200   5.791  15.741  0.00  0.00    +0.000 NA
ATOM     10  C   UNL     1      48.887   5.731  17.063  0.00  0.00    +0.000 A 
ATOM     11  H   UNL     1      49.688   6.013  13.523  0.00  0.00    +0.000 HD
BRANCH   4  13
ATOM     12  N   UNL     1      47.267   5.706  19.580  0.00  0.00    +0.000 N 
ATOM     13  C   UNL     1      48.185   6.663  19.245  0.00  0.00    +0.000 C 
ATOM     14  O   UNL     1      48.747   7.331  20.101  0.00  0.00    +0.000 OA
ATOM     15  H   UNL     1      47.126   5.543  20.569  0.00  0.00    +0.000 HD
ATOM     16  H   UNL     1      46.963   4.986  18.940  0.00  0.00    +0.000 HD
ENDBRANCH   4  13
ENDBRANCH   1   8
BRANCH   1  17
ATOM     17  C   UNL     1      47.565   7.743  12.420  0.00  0.00    +0.000 A 
ATOM     18  C   UNL     1      46.649   8.768  12.689  0.00  0.00    +0.000 A 
ATOM     19  C   UNL     1      45.313   8.662  12.303  0.00  0.00    +0.000 A 
ATOM     20  C   UNL     1      44.868   7.523  11.629  0.00  0.00    +0.000 A 
ATOM     21  C   UNL     1      45.741   6.464  11.334  0.00  0.00    +0.000 A 
ATOM     22  C   UNL     1      47.073   6.590  11.774  0.00  0.00    +0.000 A 
BRANCH  21  23
ATOM     23  C   UNL     1      45.316   5.296  10.527  0.00  0.00    +0.000 A 
ATOM     24  C   UNL     1      45.717   5.151   9.191  0.00  0.00    +0.000 A 
ATOM     25  C   UNL     1      45.359   4.010   8.488  0.00  0.00    +0.000 A 
ATOM     26  N   UNL     1      44.638   3.000   9.014  0.00  0.00    +0.000 NA
ATOM     27  C   UNL     1      44.250   3.146  10.295  0.00  0.00    +0.000 A 
ATOM     28  C   UNL     1      44.551   4.255  11.073  0.00  0.00    +0.000 A 
ENDBRANCH  21  23
ENDBRANCH   1  17
TORSDOF 4
ENDMDL
MODEL 5
REMARK VINA RESULT:    -6.481      2.662      6.891
REMARK INTER + INTRA:          -9.089
REMARK INTER:                  -8.120
REMARK INTRA:                  -0.969
REMARK UNBOUND:                -1.093
REMARK  Name = 
REMARK  4 active torsions:
REMARK  status: ('A' for Active; 'I' for Inactive)
REMARK    1  A    between atoms: C_2  and  C_4
REMARK    2  A    between atoms: N_8  and  C_9
REMARK    3  A    between atoms: C_9  and  C_10
REMARK    4  A    between atoms: C_14  and  C_15
REMARK                            x       y       z     vdW  Elec       q    Type
REMARK                         _______ _______ _______ _____ _____    ______ ____
ROOT
ATOM      1  C   UNL     1      46.141   5.287  13.351  0.00  0.00    +0.000 C 
ATOM      2  C   UNL     1      46.069   4.408  14.600  0.00  0.00    +0.000 C 
ATOM      3  C   UNL     1      47.243   4.298  13.690  0.00  0.00    +0.000 C 
ENDROOT
BRANCH   1   8
ATOM      4  C   UNL     1      48.377   9.662  11.613  0.00  0.00    +0.000 A 
ATOM      5  C   UNL     1      48.888   8.368  11.638  0.00  0.00    +0.000 A 
ATOM      6  C   UNL     1      48.167   7.360  12.282  0.00  0.00    +0.000 A 
ATOM      7  C   UNL     1      46.957   7.656  12.895  0.00  0.00    +0.000 A 
ATOM      8  N   UNL     1      46.219   6.730  13.630  0.00  0.00    +0.000 N 
ATOM      9  N   UNL     1      46.462   8.913  12.888  0.00  0.00    +0.000 NA
ATOM     10  C   UNL     1      47.172   9.887  12.258  0.00  0.00    +0.000 A 
ATOM     11  H   UNL     1      45.353   7.195  13.900  0.00  0.00    +0.000 HD
BRANCH   4  13
ATOM     12  N   UNL     1      50.396  10.973  11.290  0.00  0.00    +0.000 N 
ATOM     13  C   UNL     1      49.079  10.790  10.967  0.00  0.00    +0.000 C 
ATOM     14  O   UNL     1      48.518  11.514  10.157  0.00  0.00    +0.000 OA
ATOM     15  H   UNL     1      50.889  11.696  10.780  0.00  0.00    +0.000 HD
ATOM     16  H   UNL     1      50.950  10.273  11.761  0.00  0.00    +0.000 HD
ENDBRANCH   4  13
ENDBRANCH   1   8
BRANCH   1  17
ATOM     17  C   UNL     1      45.236   4.918  12.175  0.00  0.00    +0.000 A 
ATOM     18  C   UNL     1      43.925   5.402  12.077  0.00  0.00    +0.000 A 
ATOM     19  C   UNL     1      43.143   5.144  10.952  0.00  0.00    +0.000 A 
ATOM     20  C   UNL     1      43.664   4.397   9.893  0.00  0.00    +0.000 A 
ATOM     21  C   UNL     1      44.970   3.885   9.937  0.00  0.00    +0.000 A 
ATOM     22  C   UNL     1      45.717   4.134  11.106  0.00  0.00    +0.000 A 
BRANCH  21  23
ATOM     23  C   UNL     1      45.579   3.185   8.782  0.00  0.00    +0.000 A 
ATOM     24  C   UNL     1      46.043   3.893   7.664  0.00  0.00    +0.000 A 
ATOM     25  C   UNL     1      46.672   3.209   6.634  0.00  0.00    +0.000 A 
ATOM     26  N   UNL     1      46.880   1.878   6.633  0.00  0.00    +0.000 NA
ATOM     27  C   UNL     1      46.428   1.201   7.706  0.00  0.00    +0.000 A 
ATOM     28  C   UNL     1      45.778   1.796   8.778  0.00  0.00    +0.000 A 
ENDBRANCH  21  23
ENDBRANCH   1  17
TORSDOF 4
ENDMDL
MODEL 6
REMARK VINA RESULT:    -6.228      3.686      5.855
REMARK INTER + INTRA:          -8.777
REMARK INTER:                  -8.359
REMARK INTRA:                  -0.418
REMARK UNBOUND:                -1.093
REMARK  Name = 
REMARK  4 active torsions:
REMARK  status: ('A' for Active; 'I' for Inactive)
REMARK    1  A    between atoms: C_2  and  C_4
REMARK    2  A    between atoms: N_8  and  C_9
REMARK    3  A    between atoms: C_9  and  C_10
REMARK    4  A    between atoms: C_14  and  C_15
REMARK                            x       y       z     vdW  Elec       q    Type
REMARK                         _______ _______ _______ _____ _____    ______ ____
ROOT
ATOM      1  C   UNL     1      47.209   8.334  13.147  0.00  0.00    +0.000 C 
ATOM      2  C   UNL     1      47.346   9.684  12.445  0.00  0.00    +0.000 C 
ATOM      3  C   UNL     1      48.046   8.493  11.890  0.00  0.00    +0.000 C 
ENDROOT
BRANCH   1   8
ATOM      4  C   UNL     1      44.446   4.196  11.598  0.00  0.00    +0.000 A 
ATOM      5  C   UNL     1      45.529   4.807  10.976  0.00  0.00    +0.000 A 
ATOM      6  C   UNL     1      46.035   5.999  11.498  0.00  0.00    +0.000 A 
ATOM      7  C   UNL     1      45.452   6.565  12.625  0.00  0.00    +0.000 A 
ATOM      8  N   UNL     1      45.840   7.793  13.158  0.00  0.00    +0.000 N 
ATOM      9  N   UNL     1      44.390   5.986  13.225  0.00  0.00    +0.000 NA
ATOM     10  C   UNL     1      43.906   4.825  12.708  0.00  0.00    +0.000 A 
ATOM     11  H   UNL     1      45.299   7.925  14.011  0.00  0.00    +0.000 HD
BRANCH   4  13
ATOM     12  N   UNL     1      44.401   2.369   9.997  0.00  0.00    +0.000 N 
ATOM     13  C   UNL     1      43.839   2.941  11.105  0.00  0.00    +0.000 C 
ATOM     14  O   UNL     1      42.892   2.420  11.677  0.00  0.00    +0.000 OA
ATOM     15  H   UNL     1      44.031   1.469   9.717  0.00  0.00    +0.000 HD
ATOM     16  H   UNL     1      45.309   2.632   9.642  0.00  0.00    +0.000 HD
ENDBRANCH   4  13
ENDBRANCH   1   8
BRANCH   1  17
ATOM     17  C   UNL     1      47.977   8.136  14.454  0.00  0.00    +0.000 A 
ATOM     18  C   UNL     1      48.335   9.221  15.266  0.00  0.00    +0.000 A 
ATOM     19  C   UNL     1      48.945   9.024  16.505  0.00  0.00    +0.000 A 
ATOM     20  C   UNL     1      49.202   7.730  16.960  0.00  0.00    +0.000 A 
ATOM     21  C   UNL     1      48.868   6.606  16.189  0.00  0.00    +0.000 A 
ATOM     22  C   UNL     1      48.289   6.845  14.927  0.00  0.00    +0.000 A 
BRANCH  21  23
ATOM     23  C   UNL     1      49.033   5.225  16.699  0.00  0.00    +0.000 A 
ATOM     24  C   UNL     1      48.039   4.255  16.507  0.00  0.00    +0.000 A 
ATOM     25  C   UNL     1      48.260   2.954  16.935  0.00  0.00    +0.000 A 
ATOM     26  N   UNL     1      49.394   2.543  17.534  0.00  0.00    +0.000 NA
ATOM     27  C   UNL     1      50.345   3.479  17.721  0.00  0.00    +0.000 A 
ATOM     28  C   UNL     1      50.210   4.805  17.336  0.00  0.00    +0.000 A 
ENDBRANCH  21  23
ENDBRANCH   1  17
TORSDOF 4
ENDMDL
MODEL 7
REMARK VINA RESULT:    -6.172      5.686      8.433
REMARK INTER + INTRA:          -8.707
REMARK INTER:                  -7.990
REMARK INTRA:                  -0.718
REMARK UNBOUND:                -1.093
REMARK  Name = 
REMARK  4 active torsions:
REMARK  status: ('A' for Active; 'I' for Inactive)
REMARK    1  A    between atoms: C_2  and  C_4
REMARK    2  A    between atoms: N_8  and  C_9
REMARK    3  A    between atoms: C_9  and  C_10
REMARK    4  A    between atoms: C_14  and  C_15
REMARK                            x       y       z     vdW  Elec       q    Type
REMARK                         _______ _______ _______ _____ _____    ______ ____
ROOT
ATOM      1  C   UNL     1      48.298   4.862  17.264  0.00  0.00    +0.000 C 
ATOM      2  C   UNL     1      47.143   5.129  18.229  0.00  0.00    +0.000 C 
ATOM      3  C   UNL     1      47.176   3.856  17.457  0.00  0.00    +0.000 C 
ENDROOT
BRANCH   1   8
ATOM      4  C   UNL     1      52.436   1.712  17.601  0.00  0.00    +0.000 A 
ATOM      5  C   UNL     1      51.091   1.380  17.471  0.00  0.00    +0.000 A 
ATOM      6  C   UNL     1      50.127   2.388  17.541  0.00  0.00    +0.000 A 
ATOM      7  C   UNL     1      50.515   3.706  17.745  0.00  0.00    +0.000 A 
ATOM      8  N   UNL     1      49.615   4.757  17.912  0.00  0.00    +0.000 N 
ATOM      9  N   UNL     1      51.818   4.034  17.887  0.00  0.00    +0.000 NA
ATOM     10  C   UNL     1      52.748   3.044  17.817  0.00  0.00    +0.000 A 
ATOM     11  H   UNL     1      50.169   5.609  17.971  0.00  0.00    +0.000 HD
BRANCH   4  13
ATOM     12  N   UNL     1      53.339  -0.441  18.273  0.00  0.00    +0.000 N 
ATOM     13  C   UNL     1      53.519   0.708  17.553  0.00  0.00    +0.000 C 
ATOM     14  O   UNL     1      54.524   0.882  16.877  0.00  0.00    +0.000 OA
ATOM     15  H   UNL     1      54.048  -1.156  18.168  0.00  0.00    +0.000 HD
ATOM     16  H   UNL     1      52.443  -0.722  18.646  0.00  0.00    +0.000 HD
ENDBRANCH   4  13
ENDBRANCH   1   8
BRANCH   1  17
ATOM     17  C   UNL     1      48.303   5.627  15.941  0.00  0.00    +0.000 A 
ATOM     18  C   UNL     1      49.265   6.607  15.663  0.00  0.00    +0.000 A 
ATOM     19  C   UNL     1      49.324   7.227  14.415  0.00  0.00    +0.000 A 
ATOM     20  C   UNL     1      48.421   6.869  13.413  0.00  0.00    +0.000 A 
ATOM     21  C   UNL     1      47.435   5.896  13.634  0.00  0.00    +0.000 A 
ATOM     22  C   UNL     1      47.381   5.319  14.919  0.00  0.00    +0.000 A 
BRANCH  21  23
ATOM     23  C   UNL     1      46.538   5.424  12.553  0.00  0.00    +0.000 A 
ATOM     24  C   UNL     1      45.768   4.262  12.702  0.00  0.00    +0.000 A 
ATOM     25  C   UNL     1      44.886   3.891  11.697  0.00  0.00    +0.000 A 
ATOM     26  N   UNL     1      44.708   4.590  10.560  0.00  0.00    +0.000 NA
ATOM     27  C   UNL     1      45.453   5.703  10.418  0.00  0.00    +0.000 A 
ATOM     28  C   UNL     1      46.367   6.147  11.363  0.00  0.00    +0.000 A 
ENDBRANCH  21  23
ENDBRANCH   1  17
TORSDOF 4
ENDMDL
MODEL 8
REMARK VINA RESULT:    -6.123      3.657      6.510
REMARK INTER + INTRA:          -8.648
REMARK INTER:                  -7.589
REMARK INTRA:                  -1.059
REMARK UNBOUND:                -1.093
REMARK  Name = 
REMARK  4 active torsions:
REMARK  status: ('A' for Active; 'I' for Inactive)
REMARK    1  A    between atoms: C_2  and  C_4
REMARK    2  A    between atoms: N_8  and  C_9
REMARK    3  A    between atoms: C_9  and  C_10
REMARK    4  A    between atoms: C_14  and  C_15
REMARK                            x       y       z     vdW  Elec       q    Type
REMARK                         _______ _______ _______ _____ _____    ______ ____
ROOT
ATOM      1  C   UNL     1      49.023   8.423  12.596  0.00  0.00    +0.000 C 
ATOM      2  C   UNL     1      50.193   9.209  12.005  0.00  0.00    +0.000 C 
ATOM      3  C   UNL     1      50.181   7.723  11.907  0.00  0.00    +0.000 C 
ENDROOT
BRANCH   1   8
ATOM      4  C   UNL     1      44.434   6.175  11.576  0.00  0.00    +0.000 A 
ATOM      5  C   UNL     1      45.700   5.601  11.613  0.00  0.00    +0.000 A 
ATOM      6  C   UNL     1      46.819   6.421  11.770  0.00  0.00    +0.000 A 
ATOM      7  C   UNL     1      46.660   7.797  11.880  0.00  0.00    +0.000 A 
ATOM      8  N   UNL     1      47.727   8.692  11.953  0.00  0.00    +0.000 N 
ATOM      9  N   UNL     1      45.435   8.363  11.829  0.00  0.00    +0.000 NA
ATOM     10  C   UNL     1      44.353   7.554  11.676  0.00  0.00    +0.000 A 
ATOM     11  H   UNL     1      47.323   9.615  12.098  0.00  0.00    +0.000 HD
BRANCH   4  13
ATOM     12  N   UNL     1      42.015   5.992  11.720  0.00  0.00    +0.000 N 
ATOM     13  C   UNL     1      43.198   5.384  11.398  0.00  0.00    +0.000 C 
ATOM     14  O   UNL     1      43.225   4.244  10.956  0.00  0.00    +0.000 OA
ATOM     15  H   UNL     1      41.170   5.472  11.517  0.00  0.00    +0.000 HD
ATOM     16  H   UNL     1      41.928   6.988  11.859  0.00  0.00    +0.000 HD
ENDBRANCH   4  13
ENDBRANCH   1   8
BRANCH   1  17
ATOM     17  C   UNL     1      48.959   8.291  14.118  0.00  0.00    +0.000 A 
ATOM     18  C   UNL     1      48.635   9.380  14.936  0.00  0.00    +0.000 A 
ATOM     19  C   UNL     1      48.479   9.227  16.314  0.00  0.00    +0.000 A 
ATOM     20  C   UNL     1      48.638   7.970  16.900  0.00  0.00    +0.000 A 
ATOM     21  C   UNL     1      48.965   6.843  16.131  0.00  0.00    +0.000 A 
ATOM     22  C   UNL     1      49.152   7.044  14.749  0.00  0.00    +0.000 A 
BRANCH  21  23
ATOM     23  C   UNL     1      49.032   5.484  16.716  0.00  0.00    +0.000 A 
ATOM     24  C   UNL     1      47.973   4.577  16.570  0.00  0.00    +0.000 A 
ATOM     25  C   UNL     1      48.101   3.288  17.070  0.00  0.00    +0.000 A 
ATOM     26  N   UNL     1      49.203   2.833  17.698  0.00  0.00    +0.000 NA
ATOM     27  C   UNL     1      50.216   3.709  17.840  0.00  0.00    +0.000 A 
ATOM     28  C   UNL     1      50.175   5.019  17.383  0.00  0.00    +0.000 A 
ENDBRANCH  21  23
ENDBRANCH   1  17
TORSDOF 4
ENDMDL
MODEL 9
REMARK VINA RESULT:    -6.098      1.271      2.131
REMARK INTER + INTRA:          -8.617
REMARK INTER:                  -8.557
REMARK INTRA:                  -0.060
REMARK UNBOUND:                -1.093
REMARK  Name = 
REMARK  4 active torsions:
REMARK  status: ('A' for Active; 'I' for Inactive)
REMARK    1  A    between atoms: C_2  and  C_4
REMARK    2  A    between atoms: N_8  and  C_9
REMARK    3  A    between atoms: C_9  and  C_10
REMARK    4  A    between atoms: C_14  and  C_15
REMARK                            x       y       z     vdW  Elec       q    Type
REMARK                         _______ _______ _______ _____ _____    ______ ____
ROOT
ATOM      1  C   UNL     1      44.023   4.335  11.807  0.00  0.00    +0.000 C 
ATOM      2  C   UNL     1      44.835   3.665  12.915  0.00  0.00    +0.000 C 
ATOM      3  C   UNL     1      43.403   3.996  13.151  0.00  0.00    +0.000 C 
ENDROOT
BRANCH   1   8
ATOM      4  C   UNL     1      46.414   3.136   7.334  0.00  0.00    +0.000 A 
ATOM      5  C   UNL     1      46.395   4.347   8.020  0.00  0.00    +0.000 A 
ATOM      6  C   UNL     1      45.569   4.488   9.136  0.00  0.00    +0.000 A 
ATOM      7  C   UNL     1      44.772   3.428   9.548  0.00  0.00    +0.000 A 
ATOM      8  N   UNL     1      43.858   3.514  10.597  0.00  0.00    +0.000 N 
ATOM      9  N   UNL     1      44.773   2.255   8.879  0.00  0.00    +0.000 NA
ATOM     10  C   UNL     1      45.581   2.128   7.792  0.00  0.00    +0.000 A 
ATOM     11  H   UNL     1      43.469   2.581  10.722  0.00  0.00    +0.000 HD
BRANCH   4  13
ATOM     12  N   UNL     1      48.570   2.621   6.339  0.00  0.00    +0.000 N 
ATOM     13  C   UNL     1      47.247   2.904   6.136  0.00  0.00    +0.000 C 
ATOM     14  O   UNL     1      46.771   2.935   5.010  0.00  0.00    +0.000 OA
ATOM     15  H   UNL     1      49.112   2.382   5.518  0.00  0.00    +0.000 HD
ATOM     16  H   UNL     1      48.944   2.357   7.239  0.00  0.00    +0.000 HD
ENDBRANCH   4  13
ENDBRANCH   1   8
BRANCH   1  17
ATOM     17  C   UNL     1      44.287   5.816  11.535  0.00  0.00    +0.000 A 
ATOM     18  C   UNL     1      43.265   6.679  11.119  0.00  0.00    +0.000 A 
ATOM     19  C   UNL     1      43.491   8.048  10.973  0.00  0.00    +0.000 A 
ATOM     20  C   UNL     1      44.751   8.582  11.249  0.00  0.00    +0.000 A 
ATOM     21  C   UNL     1      45.812   7.766  11.668  0.00  0.00    +0.000 A 
ATOM     22  C   UNL     1      45.557   6.383  11.767  0.00  0.00    +0.000 A 
BRANCH  21  23
ATOM     23  C   UNL     1      47.124   8.325  12.070  0.00  0.00    +0.000 A 
ATOM     24  C   UNL     1      47.235   9.631  12.570  0.00  0.00    +0.000 A 
ATOM     25  C   UNL     1      48.469  10.096  13.003  0.00  0.00    +0.000 A 
ATOM     26  N   UNL     1      49.597   9.360  12.982  0.00  0.00    +0.000 NA
ATOM     27  C   UNL     1      49.487   8.109  12.497  0.00  0.00    +0.000 A 
ATOM     28  C   UNL     1      48.300   7.562  12.031  0.00  0.00    +0.000 A 
ENDBRANCH  21  23
ENDBRANCH   1  17
TORSDOF 4
ENDMDL
