MODEL 1
REMARK VINA RESULT:    -9.264      0.000      0.000
REMARK INTER + INTRA:         -13.838
REMARK INTER:                 -12.784
REMARK INTRA:                  -1.054
REMARK UNBOUND:                -1.054
REMARK  Name = 
REMARK  8 active torsions:
REMARK  status: ('A' for Active; 'I' for Inactive)
REMARK    1  A    between atoms: C_1  and  C_2
REMARK    2  A    between atoms: C_2  and  O_3
REMARK    3  A    between atoms: C_5  and  O_6
REMARK    4  A    between atoms: O_6  and  C_7
REMARK    5  A    between atoms: C_9  and  C_10
REMARK    6  A    between atoms: C_10  and  C_13
REMARK    7  A    between atoms: C_13  and  N_14
REMARK    8  A    between atoms: C_18  and  C_19
REMARK                            x       y       z     vdW  Elec       q    Type
REMARK                         _______ _______ _______ _____ _____    ______ ____
ROOT
ATOM      1  C   UNL     1      43.401   4.631  12.555  0.00  0.00    +0.000 C 
ATOM      2  F   UNL     1      43.008   3.661  13.434  0.00  0.00    +0.000 F 
ATOM      3  F   UNL     1      42.457   5.618  12.673  0.00  0.00    +0.000 F 
ENDROOT
BRANCH   1   6
ATOM      4  C   UNL     1      46.969   4.689  13.904  0.00  0.00    +0.000 A 
ATOM      5  C   UNL     1      45.688   4.275  13.527  0.00  0.00    +0.000 A 
ATOM      6  C   UNL     1      44.784   5.161  12.918  0.00  0.00    +0.000 A 
ATOM      7  C   UNL     1      45.207   6.479  12.678  0.00  0.00    +0.000 A 
ATOM      8  C   UNL     1      46.496   6.890  13.030  0.00  0.00    +0.000 A 
ATOM      9 CL   UNL     1      46.961   8.519  12.712  0.00  0.00    +0.000 Cl
ATOM     10  C   UNL     1      47.376   6.000  13.636  0.00  0.00    +0.000 A 
ATOM     11  F   UNL     1      48.607   6.403  13.983  0.00  0.00    +0.000 F 
BRANCH   4  12
ATOM     12  O   UNL     1      47.864   3.861  14.541  0.00  0.00    +0.000 OA
BRANCH  12  16
ATOM     13  C   UNL     1      48.955   4.046  18.915  0.00  0.00    +0.000 C 
ATOM     14  C   UNL     1      48.768   4.087  17.407  0.00  0.00    +0.000 C 
ATOM     15  C   UNL     1      47.310   4.386  16.978  0.00  0.00    +0.000 C 
ATOM     16  C   UNL     1      47.486   3.345  15.841  0.00  0.00    +0.000 C 
ATOM     17  C   UNL     1      48.617   2.719  16.690  0.00  0.00    +0.000 C 
BRANCH  14  18
ATOM     18  O   UNL     1      49.783   4.940  16.835  0.00  0.00    +0.000 OA
ATOM     19  H   UNL     1      50.079   5.523  17.554  0.00  0.00    +0.000 HD
ENDBRANCH  14  18
ENDBRANCH  12  16
ENDBRANCH   4  12
ENDBRANCH   1   6
BRANCH   1  20
ATOM     20  C   UNL     1      43.309   4.070  11.119  0.00  0.00    +0.000 C 
BRANCH  20  21
ATOM     21  N   UNL     1      44.036   4.852  10.100  0.00  0.00    +0.000 N 
ATOM     22  C   UNL     1      44.878   4.040   9.318  0.00  0.00    +0.000 A 
ATOM     23  C   UNL     1      45.648   4.604   8.294  0.00  0.00    +0.000 A 
ATOM     24  N   UNL     1      46.494   3.899   7.498  0.00  0.00    +0.000 NA
ATOM     25  C   UNL     1      46.525   2.562   7.757  0.00  0.00    +0.000 A 
ATOM     26  C   UNL     1      45.751   1.979   8.744  0.00  0.00    +0.000 A 
ATOM     27  N   UNL     1      44.918   2.704   9.534  0.00  0.00    +0.000 NA
ATOM     28  H   UNL     1      44.567   5.617  10.513  0.00  0.00    +0.000 HD
BRANCH  25  29
ATOM     29  C   UNL     1      47.450   1.714   6.959  0.00  0.00    +0.000 C 
ATOM     30  N   UNL     1      48.462   2.378   6.320  0.00  0.00    +0.000 N 
ATOM     31  O   UNL     1      47.324   0.501   6.885  0.00  0.00    +0.000 OA
ATOM     32  H   UNL     1      48.543   3.386   6.402  0.00  0.00    +0.000 HD
ATOM     33  H   UNL     1      49.128   1.856   5.771  0.00  0.00    +0.000 HD
ENDBRANCH  25  29
ENDBRANCH  20  21
ENDBRANCH   1  20
TORSDOF 7
ENDMDL
MODEL 2
REMARK VINA RESULT:    -7.894      2.582      3.889
REMARK INTER + INTRA:         -11.947
REMARK INTER:                 -10.983
REMARK INTRA:                  -0.964
REMARK UNBOUND:                -1.054
REMARK  Name = 
REMARK  8 active torsions:
REMARK  status: ('A' for Active; 'I' for Inactive)
REMARK    1  A    between atoms: C_1  and  C_2
REMARK    2  A    between atoms: C_2  and  O_3
REMARK    3  A    between atoms: C_5  and  O_6
REMARK    4  A    between atoms: O_6  and  C_7
REMARK    5  A    between atoms: C_9  and  C_10
REMARK    6  A    between atoms: C_10  and  C_13
REMARK    7  A    between atoms: C_13  and  N_14
REMARK    8  A    between atoms: C_18  and  C_19
REMARK                            x       y       z     vdW  Elec       q    Type
REMARK                         _______ _______ _______ _____ _____    ______ ____
ROOT
ATOM      1  C   UNL     1      43.320   5.279  12.258  0.00  0.00    +0.000 C 
ATOM      2  F   UNL     1      42.554   4.761  13.264  0.00  0.00    +0.000 F 
ATOM      3  F   UNL     1      42.731   6.479  11.950  0.00  0.00    +0.000 F 
ENDROOT
BRANCH   1   6
ATOM      4  C   UNL     1      46.793   6.826  12.561  0.00  0.00    +0.000 A 
ATOM      5  C   UNL     1      45.467   6.578  12.196  0.00  0.00    +0.000 A 
ATOM      6  C   UNL     1      44.756   5.487  12.724  0.00  0.00    +0.000 A 
ATOM      7  C   UNL     1      45.409   4.655  13.650  0.00  0.00    +0.000 A 
ATOM      8  C   UNL     1      46.727   4.916  14.036  0.00  0.00    +0.000 A 
ATOM      9 CL   UNL     1      47.479   3.861  15.174  0.00  0.00    +0.000 Cl
ATOM     10  C   UNL     1      47.416   5.998  13.499  0.00  0.00    +0.000 A 
ATOM     11  F   UNL     1      48.685   6.235  13.865  0.00  0.00    +0.000 F 
BRANCH   4  12
ATOM     12  O   UNL     1      47.532   7.859  12.031  0.00  0.00    +0.000 OA
BRANCH  12  16
ATOM     13  C   UNL     1      49.863  11.514  13.284  0.00  0.00    +0.000 C 
ATOM     14  C   UNL     1      49.266  10.191  12.833  0.00  0.00    +0.000 C 
ATOM     15  C   UNL     1      48.043  10.357  11.896  0.00  0.00    +0.000 C 
ATOM     16  C   UNL     1      47.379   9.166  12.636  0.00  0.00    +0.000 C 
ATOM     17  C   UNL     1      48.307   9.488  13.830  0.00  0.00    +0.000 C 
BRANCH  14  18
ATOM     18  O   UNL     1      50.327   9.343  12.342  0.00  0.00    +0.000 OA
ATOM     19  H   UNL     1      50.810   9.872  11.685  0.00  0.00    +0.000 HD
ENDBRANCH  14  18
ENDBRANCH  12  16
ENDBRANCH   4  12
ENDBRANCH   1   6
BRANCH   1  20
ATOM     20  C   UNL     1      43.194   4.370  11.017  0.00  0.00    +0.000 C 
BRANCH  20  21
ATOM     21  N   UNL     1      43.862   4.881   9.803  0.00  0.00    +0.000 N 
ATOM     22  C   UNL     1      44.656   3.895   9.186  0.00  0.00    +0.000 A 
ATOM     23  C   UNL     1      45.365   4.194   8.017  0.00  0.00    +0.000 A 
ATOM     24  N   UNL     1      46.162   3.309   7.361  0.00  0.00    +0.000 NA
ATOM     25  C   UNL     1      46.205   2.069   7.923  0.00  0.00    +0.000 A 
ATOM     26  C   UNL     1      45.489   1.745   9.062  0.00  0.00    +0.000 A 
ATOM     27  N   UNL     1      44.705   2.647   9.706  0.00  0.00    +0.000 NA
ATOM     28  H   UNL     1      44.419   5.713   9.995  0.00  0.00    +0.000 HD
BRANCH  25  29
ATOM     29  C   UNL     1      47.080   1.044   7.294  0.00  0.00    +0.000 C 
ATOM     30  N   UNL     1      46.853  -0.248   7.681  0.00  0.00    +0.000 N 
ATOM     31  O   UNL     1      47.941   1.334   6.477  0.00  0.00    +0.000 OA
ATOM     32  H   UNL     1      46.129  -0.458   8.359  0.00  0.00    +0.000 HD
ATOM     33  H   UNL     1      47.409  -0.990   7.282  0.00  0.00    +0.000 HD
ENDBRANCH  25  29
ENDBRANCH  20  21
ENDBRANCH   1  20
TORSDOF 7
ENDMDL
MODEL 3
REMARK VINA RESULT:    -7.866      3.065      3.802
REMARK INTER + INTRA:         -11.908
REMARK INTER:                 -10.742
REMARK INTRA:                  -1.166
REMARK UNBOUND:                -1.054
REMARK  Name = 
REMARK  8 active torsions:
REMARK  status: ('A' for Active; 'I' for Inactive)
REMARK    1  A    between atoms: C_1  and  C_2
REMARK    2  A    between atoms: C_2  and  O_3
REMARK    3  A    between atoms: C_5  and  O_6
REMARK    4  A    between atoms: O_6  and  C_7
REMARK    5  A    between atoms: C_9  and  C_10
REMARK    6  A    between atoms: C_10  and  C_13
REMARK    7  A    between atoms: C_13  and  N_14
REMARK    8  A    between atoms: C_18  and  C_19
REMARK                            x       y       z     vdW  Elec       q    Type
REMARK                         _______ _______ _______ _____ _____    ______ ____
ROOT
ATOM      1  C   UNL     1      43.841   5.242  12.191  0.00  0.00    +0.000 C 
ATOM      2  F   UNL     1      44.623   4.319  12.825  0.00  0.00    +0.000 F 
ATOM      3  F   UNL     1      42.692   5.303  12.937  0.00  0.00    +0.000 F 
ENDROOT
BRANCH   1   6
ATOM      4  C   UNL     1      46.393   7.978  12.927  0.00  0.00    +0.000 A 
ATOM      5  C   UNL     1      45.710   6.759  12.899  0.00  0.00    +0.000 A 
ATOM      6  C   UNL     1      44.531   6.600  12.151  0.00  0.00    +0.000 A 
ATOM      7  C   UNL     1      44.062   7.699  11.411  0.00  0.00    +0.000 A 
ATOM      8  C   UNL     1      44.757   8.911  11.417  0.00  0.00    +0.000 A 
ATOM      9 CL   UNL     1      44.134  10.226  10.491  0.00  0.00    +0.000 Cl
ATOM     10  C   UNL     1      45.920   9.052  12.166  0.00  0.00    +0.000 A 
ATOM     11  F   UNL     1      46.576  10.222  12.178  0.00  0.00    +0.000 F 
BRANCH   4  12
ATOM     12  O   UNL     1      47.526   8.182  13.682  0.00  0.00    +0.000 OA
BRANCH  12  16
ATOM     13  C   UNL     1      51.459   8.234  11.471  0.00  0.00    +0.000 C 
ATOM     14  C   UNL     1      50.092   8.398  12.116  0.00  0.00    +0.000 C 
ATOM     15  C   UNL     1      50.073   8.014  13.617  0.00  0.00    +0.000 C 
ATOM     16  C   UNL     1      48.684   7.366  13.380  0.00  0.00    +0.000 C 
ATOM     17  C   UNL     1      49.076   7.248  11.889  0.00  0.00    +0.000 C 
BRANCH  14  18
ATOM     18  O   UNL     1      49.579   9.708  11.793  0.00  0.00    +0.000 OA
ATOM     19  H   UNL     1      50.128  10.341  12.285  0.00  0.00    +0.000 HD
ENDBRANCH  14  18
ENDBRANCH  12  16
ENDBRANCH   4  12
ENDBRANCH   1   6
BRANCH   1  20
ATOM     20  C   UNL     1      43.459   4.699  10.797  0.00  0.00    +0.000 C 
BRANCH  20  21
ATOM     21  N   UNL     1      43.769   3.272  10.580  0.00  0.00    +0.000 N 
ATOM     22  C   UNL     1      44.697   3.089   9.537  0.00  0.00    +0.000 A 
ATOM     23  C   UNL     1      45.117   1.800   9.187  0.00  0.00    +0.000 A 
ATOM     24  N   UNL     1      45.999   1.530   8.190  0.00  0.00    +0.000 NA
ATOM     25  C   UNL     1      46.479   2.633   7.550  0.00  0.00    +0.000 A 
ATOM     26  C   UNL     1      46.099   3.917   7.899  0.00  0.00    +0.000 A 
ATOM     27  N   UNL     1      45.209   4.164   8.894  0.00  0.00    +0.000 NA
ATOM     28  H   UNL     1      42.930   2.721  10.407  0.00  0.00    +0.000 HD
BRANCH  25  29
ATOM     29  C   UNL     1      47.423   2.432   6.419  0.00  0.00    +0.000 C 
ATOM     30  N   UNL     1      47.266   3.281   5.357  0.00  0.00    +0.000 N 
ATOM     31  O   UNL     1      48.291   1.573   6.438  0.00  0.00    +0.000 OA
ATOM     32  H   UNL     1      46.538   3.987   5.372  0.00  0.00    +0.000 HD
ATOM     33  H   UNL     1      47.883   3.201   4.563  0.00  0.00    +0.000 HD
ENDBRANCH  25  29
ENDBRANCH  20  21
ENDBRANCH   1  20
TORSDOF 7
ENDMDL
MODEL 4
REMARK VINA RESULT:    -7.702      2.076      2.413
REMARK INTER + INTRA:         -11.683
REMARK INTER:                 -10.908
REMARK INTRA:                  -0.775
REMARK UNBOUND:                -1.054
REMARK  Name = 
REMARK  8 active torsions:
REMARK  status: ('A' for Active; 'I' for Inactive)
REMARK    1  A    between atoms: C_1  and  C_2
REMARK    2  A    between atoms: C_2  and  O_3
REMARK    3  A    between atoms: C_5  and  O_6
REMARK    4  A    between atoms: O_6  and  C_7
REMARK    5  A    between atoms: C_9  and  C_10
REMARK    6  A    between atoms: C_10  and  C_13
REMARK    7  A    between atoms: C_13  and  N_14
REMARK    8  A    between atoms: C_18  and  C_19
REMARK                            x       y       z     vdW  Elec       q    Type
REMARK                         _______ _______ _______ _____ _____    ______ ____
ROOT
ATOM      1  C   UNL     1      43.792   5.007  12.413  0.00  0.00    +0.000 C 
ATOM      2  F   UNL     1      44.329   3.916  13.035  0.00  0.00    +0.000 F 
ATOM      3  F   UNL     1      42.651   5.290  13.119  0.00  0.00    +0.000 F 
ENDROOT
BRANCH   1   6
ATOM      4  C   UNL     1      46.948   7.018  13.146  0.00  0.00    +0.000 A 
ATOM      5  C   UNL     1      46.013   5.984  13.054  0.00  0.00    +0.000 A 
ATOM      6  C   UNL     1      44.758   6.185  12.455  0.00  0.00    +0.000 A 
ATOM      7  C   UNL     1      44.471   7.456  11.929  0.00  0.00    +0.000 A 
ATOM      8  C   UNL     1      45.414   8.486  11.996  0.00  0.00    +0.000 A 
ATOM      9 CL   UNL     1      45.006  10.025  11.335  0.00  0.00    +0.000 Cl
ATOM     10  C   UNL     1      46.649   8.269  12.597  0.00  0.00    +0.000 A 
ATOM     11  F   UNL     1      47.545   9.265  12.670  0.00  0.00    +0.000 F 
BRANCH   4  12
ATOM     12  O   UNL     1      48.169   6.869  13.764  0.00  0.00    +0.000 OA
BRANCH  12  16
ATOM     13  C   UNL     1      51.120   7.695  17.075  0.00  0.00    +0.000 C 
ATOM     14  C   UNL     1      50.293   7.351  15.848  0.00  0.00    +0.000 C 
ATOM     15  C   UNL     1      49.187   8.393  15.542  0.00  0.00    +0.000 C 
ATOM     16  C   UNL     1      48.251   7.213  15.169  0.00  0.00    +0.000 C 
ATOM     17  C   UNL     1      49.153   6.317  16.048  0.00  0.00    +0.000 C 
BRANCH  14  18
ATOM     18  O   UNL     1      51.185   7.038  14.757  0.00  0.00    +0.000 OA
ATOM     19  H   UNL     1      51.322   6.077  14.791  0.00  0.00    +0.000 HD
ENDBRANCH  14  18
ENDBRANCH  12  16
ENDBRANCH   4  12
ENDBRANCH   1   6
BRANCH   1  20
ATOM     20  C   UNL     1      43.365   4.606  10.984  0.00  0.00    +0.000 C 
BRANCH  20  21
ATOM     21  N   UNL     1      44.238   5.116   9.908  0.00  0.00    +0.000 N 
ATOM     22  C   UNL     1      44.931   4.077   9.258  0.00  0.00    +0.000 A 
ATOM     23  C   UNL     1      45.807   4.367   8.206  0.00  0.00    +0.000 A 
ATOM     24  N   UNL     1      46.523   3.431   7.529  0.00  0.00    +0.000 NA
ATOM     25  C   UNL     1      46.307   2.152   7.943  0.00  0.00    +0.000 A 
ATOM     26  C   UNL     1      45.424   1.840   8.962  0.00  0.00    +0.000 A 
ATOM     27  N   UNL     1      44.724   2.792   9.630  0.00  0.00    +0.000 NA
ATOM     28  H   UNL     1      44.893   5.818  10.249  0.00  0.00    +0.000 HD
BRANCH  25  29
ATOM     29  C   UNL     1      47.075   1.062   7.284  0.00  0.00    +0.000 C 
ATOM     30  N   UNL     1      46.748  -0.210   7.667  0.00  0.00    +0.000 N 
ATOM     31  O   UNL     1      47.937   1.285   6.447  0.00  0.00    +0.000 OA
ATOM     32  H   UNL     1      46.026  -0.364   8.362  0.00  0.00    +0.000 HD
ATOM     33  H   UNL     1      47.229  -0.993   7.248  0.00  0.00    +0.000 HD
ENDBRANCH  25  29
ENDBRANCH  20  21
ENDBRANCH   1  20
TORSDOF 7
ENDMDL
MODEL 5
REMARK VINA RESULT:    -7.198      3.895      8.337
REMARK INTER + INTRA:         -10.986
REMARK INTER:                 -10.031
REMARK INTRA:                  -0.955
REMARK UNBOUND:                -1.054
REMARK  Name = 
REMARK  8 active torsions:
REMARK  status: ('A' for Active; 'I' for Inactive)
REMARK    1  A    between atoms: C_1  and  C_2
REMARK    2  A    between atoms: C_2  and  O_3
REMARK    3  A    between atoms: C_5  and  O_6
REMARK    4  A    between atoms: O_6  and  C_7
REMARK    5  A    between atoms: C_9  and  C_10
REMARK    6  A    between atoms: C_10  and  C_13
REMARK    7  A    between atoms: C_13  and  N_14
REMARK    8  A    between atoms: C_18  and  C_19
REMARK                            x       y       z     vdW  Elec       q    Type
REMARK                         _______ _______ _______ _____ _____    ______ ____
ROOT
ATOM      1  C   UNL     1      47.308   6.940  12.204  0.00  0.00    +0.000 C 
ATOM      2  F   UNL     1      48.007   7.191  11.057  0.00  0.00    +0.000 F 
ATOM      3  F   UNL     1      46.932   8.175  12.666  0.00  0.00    +0.000 F 
ENDROOT
BRANCH   1   6
ATOM      4  C   UNL     1      44.723   4.950  10.227  0.00  0.00    +0.000 A 
ATOM      5  C   UNL     1      45.833   5.724  10.577  0.00  0.00    +0.000 A 
ATOM      6  C   UNL     1      46.084   6.078  11.913  0.00  0.00    +0.000 A 
ATOM      7  C   UNL     1      45.197   5.615  12.900  0.00  0.00    +0.000 A 
ATOM      8  C   UNL     1      44.101   4.819  12.557  0.00  0.00    +0.000 A 
ATOM      9 CL   UNL     1      43.045   4.281  13.809  0.00  0.00    +0.000 Cl
ATOM     10  C   UNL     1      43.865   4.482  11.228  0.00  0.00    +0.000 A 
ATOM     11  F   UNL     1      42.804   3.729  10.903  0.00  0.00    +0.000 F 
BRANCH   4  12
ATOM     12  O   UNL     1      44.423   4.620   8.925  0.00  0.00    +0.000 OA
BRANCH  12  16
ATOM     13  C   UNL     1      47.415   2.032   6.756  0.00  0.00    +0.000 C 
ATOM     14  C   UNL     1      46.519   3.068   7.416  0.00  0.00    +0.000 C 
ATOM     15  C   UNL     1      46.068   2.669   8.843  0.00  0.00    +0.000 C 
ATOM     16  C   UNL     1      44.670   3.255   8.509  0.00  0.00    +0.000 C 
ATOM     17  C   UNL     1      45.019   3.040   7.018  0.00  0.00    +0.000 C 
BRANCH  14  18
ATOM     18  O   UNL     1      47.136   4.366   7.288  0.00  0.00    +0.000 OA
ATOM     19  H   UNL     1      48.008   4.211   6.887  0.00  0.00    +0.000 HD
ENDBRANCH  14  18
ENDBRANCH  12  16
ENDBRANCH   4  12
ENDBRANCH   1   6
BRANCH   1  20
ATOM     20  C   UNL     1      48.266   6.326  13.248  0.00  0.00    +0.000 C 
BRANCH  20  21
ATOM     21  N   UNL     1      48.584   7.205  14.391  0.00  0.00    +0.000 N 
ATOM     22  C   UNL     1      48.588   6.500  15.609  0.00  0.00    +0.000 A 
ATOM     23  C   UNL     1      48.873   7.167  16.806  0.00  0.00    +0.000 A 
ATOM     24  N   UNL     1      48.890   6.571  18.027  0.00  0.00    +0.000 NA
ATOM     25  C   UNL     1      48.624   5.235  18.003  0.00  0.00    +0.000 A 
ATOM     26  C   UNL     1      48.368   4.550  16.828  0.00  0.00    +0.000 A 
ATOM     27  N   UNL     1      48.349   5.168  15.619  0.00  0.00    +0.000 NA
ATOM     28  H   UNL     1      47.953   8.003  14.446  0.00  0.00    +0.000 HD
BRANCH  25  29
ATOM     29  C   UNL     1      48.584   4.504  19.297  0.00  0.00    +0.000 C 
ATOM     30  N   UNL     1      48.319   3.164  19.214  0.00  0.00    +0.000 N 
ATOM     31  O   UNL     1      48.784   5.059  20.367  0.00  0.00    +0.000 OA
ATOM     32  H   UNL     1      48.161   2.730  18.311  0.00  0.00    +0.000 HD
ATOM     33  H   UNL     1      48.289   2.612  20.058  0.00  0.00    +0.000 HD
ENDBRANCH  25  29
ENDBRANCH  20  21
ENDBRANCH   1  20
TORSDOF 7
ENDMDL
MODEL 6
REMARK VINA RESULT:    -7.061      4.131      7.843
REMARK INTER + INTRA:         -10.798
REMARK INTER:                  -9.617
REMARK INTRA:                  -1.181
REMARK UNBOUND:                -1.054
REMARK  Name = 
REMARK  8 active torsions:
REMARK  status: ('A' for Active; 'I' for Inactive)
REMARK    1  A    between atoms: C_1  and  C_2
REMARK    2  A    between atoms: C_2  and  O_3
REMARK    3  A    between atoms: C_5  and  O_6
REMARK    4  A    between atoms: O_6  and  C_7
REMARK    5  A    between atoms: C_9  and  C_10
REMARK    6  A    between atoms: C_10  and  C_13
REMARK    7  A    between atoms: C_13  and  N_14
REMARK    8  A    between atoms: C_18  and  C_19
REMARK                            x       y       z     vdW  Elec       q    Type
REMARK                         _______ _______ _______ _____ _____    ______ ____
ROOT
ATOM      1  C   UNL     1      48.400   9.151  12.987  0.00  0.00    +0.000 C 
ATOM      2  F   UNL     1      49.205   9.823  12.111  0.00  0.00    +0.000 F 
ATOM      3  F   UNL     1      48.393   9.922  14.121  0.00  0.00    +0.000 F 
ENDROOT
BRANCH   1   6
ATOM      4  C   UNL     1      45.175   7.493  11.807  0.00  0.00    +0.000 A 
ATOM      5  C   UNL     1      46.454   7.711  12.326  0.00  0.00    +0.000 A 
ATOM      6  C   UNL     1      46.991   9.005  12.425  0.00  0.00    +0.000 A 
ATOM      7  C   UNL     1      46.198  10.086  12.004  0.00  0.00    +0.000 A 
ATOM      8  C   UNL     1      44.908   9.874  11.508  0.00  0.00    +0.000 A 
ATOM      9 CL   UNL     1      43.981  11.237  11.004  0.00  0.00    +0.000 Cl
ATOM     10  C   UNL     1      44.395   8.585  11.413  0.00  0.00    +0.000 A 
ATOM     11  F   UNL     1      43.162   8.386  10.924  0.00  0.00    +0.000 F 
BRANCH   4  12
ATOM     12  O   UNL     1      44.635   6.236  11.655  0.00  0.00    +0.000 OA
BRANCH  12  16
ATOM     13  C   UNL     1      44.960   3.222   8.313  0.00  0.00    +0.000 C 
ATOM     14  C   UNL     1      44.652   4.265   9.375  0.00  0.00    +0.000 C 
ATOM     15  C   UNL     1      45.811   5.267   9.606  0.00  0.00    +0.000 C 
ATOM     16  C   UNL     1      45.497   5.200  11.124  0.00  0.00    +0.000 C 
ATOM     17  C   UNL     1      44.839   3.827  10.851  0.00  0.00    +0.000 C 
BRANCH  14  18
ATOM     18  O   UNL     1      43.360   4.847   9.095  0.00  0.00    +0.000 OA
ATOM     19  H   UNL     1      42.947   4.274   8.428  0.00  0.00    +0.000 HD
ENDBRANCH  14  18
ENDBRANCH  12  16
ENDBRANCH   4  12
ENDBRANCH   1   6
BRANCH   1  20
ATOM     20  C   UNL     1      49.068   7.806  13.346  0.00  0.00    +0.000 C 
BRANCH  20  21
ATOM     21  N   UNL     1      49.633   7.737  14.708  0.00  0.00    +0.000 N 
ATOM     22  C   UNL     1      49.092   6.669  15.448  0.00  0.00    +0.000 A 
ATOM     23  C   UNL     1      49.511   6.441  16.764  0.00  0.00    +0.000 A 
ATOM     24  N   UNL     1      49.037   5.442  17.554  0.00  0.00    +0.000 NA
ATOM     25  C   UNL     1      48.116   4.639  16.951  0.00  0.00    +0.000 A 
ATOM     26  C   UNL     1      47.710   4.829  15.642  0.00  0.00    +0.000 A 
ATOM     27  N   UNL     1      48.191   5.839  14.873  0.00  0.00    +0.000 NA
ATOM     28  H   UNL     1      49.515   8.613  15.215  0.00  0.00    +0.000 HD
BRANCH  25  29
ATOM     29  C   UNL     1      47.513   3.540  17.751  0.00  0.00    +0.000 C 
ATOM     30  N   UNL     1      48.168   3.220  18.909  0.00  0.00    +0.000 N 
ATOM     31  O   UNL     1      46.493   2.964  17.403  0.00  0.00    +0.000 OA
ATOM     32  H   UNL     1      49.011   3.718  19.173  0.00  0.00    +0.000 HD
ATOM     33  H   UNL     1      47.802   2.488  19.499  0.00  0.00    +0.000 HD
ENDBRANCH  25  29
ENDBRANCH  20  21
ENDBRANCH   1  20
TORSDOF 7
ENDMDL
MODEL 7
REMARK VINA RESULT:    -6.781      3.270      4.741
REMARK INTER + INTRA:         -10.411
REMARK INTER:                  -9.427
REMARK INTRA:                  -0.984
REMARK UNBOUND:                -1.054
REMARK  Name = 
REMARK  8 active torsions:
REMARK  status: ('A' for Active; 'I' for Inactive)
REMARK    1  A    between atoms: C_1  and  C_2
REMARK    2  A    between atoms: C_2  and  O_3
REMARK    3  A    between atoms: C_5  and  O_6
REMARK    4  A    between atoms: O_6  and  C_7
REMARK    5  A    between atoms: C_9  and  C_10
REMARK    6  A    between atoms: C_10  and  C_13
REMARK    7  A    between atoms: C_13  and  N_14
REMARK    8  A    between atoms: C_18  and  C_19
REMARK                            x       y       z     vdW  Elec       q    Type
REMARK                         _______ _______ _______ _____ _____    ______ ____
ROOT
ATOM      1  C   UNL     1      48.138   8.421  12.216  0.00  0.00    +0.000 C 
ATOM      2  F   UNL     1      48.509   9.545  11.534  0.00  0.00    +0.000 F 
ATOM      3  F   UNL     1      48.626   7.379  11.469  0.00  0.00    +0.000 F 
ENDROOT
BRANCH   1   6
ATOM      4  C   UNL     1      49.737   7.089  15.411  0.00  0.00    +0.000 A 
ATOM      5  C   UNL     1      49.186   7.183  14.131  0.00  0.00    +0.000 A 
ATOM      6  C   UNL     1      48.742   8.412  13.615  0.00  0.00    +0.000 A 
ATOM      7  C   UNL     1      48.884   9.558  14.416  0.00  0.00    +0.000 A 
ATOM      8  C   UNL     1      49.459   9.472  15.688  0.00  0.00    +0.000 A 
ATOM      9 CL   UNL     1      49.606  10.910  16.627  0.00  0.00    +0.000 Cl
ATOM     10  C   UNL     1      49.889   8.246  16.183  0.00  0.00    +0.000 A 
ATOM     11  F   UNL     1      50.427   8.167  17.409  0.00  0.00    +0.000 F 
BRANCH   4  12
ATOM     12  O   UNL     1      50.143   5.896  15.965  0.00  0.00    +0.000 OA
BRANCH  12  16
ATOM     13  C   UNL     1      47.210   2.889  17.612  0.00  0.00    +0.000 C 
ATOM     14  C   UNL     1      48.137   3.835  16.867  0.00  0.00    +0.000 C 
ATOM     15  C   UNL     1      49.538   3.960  17.516  0.00  0.00    +0.000 C 
ATOM     16  C   UNL     1      49.496   5.477  17.192  0.00  0.00    +0.000 C 
ATOM     17  C   UNL     1      47.955   5.350  17.151  0.00  0.00    +0.000 C 
BRANCH  14  18
ATOM     18  O   UNL     1      48.120   3.495  15.464  0.00  0.00    +0.000 OA
ATOM     19  H   UNL     1      47.243   3.755  15.136  0.00  0.00    +0.000 HD
ENDBRANCH  14  18
ENDBRANCH  12  16
ENDBRANCH   4  12
ENDBRANCH   1   6
BRANCH   1  20
ATOM     20  C   UNL     1      46.597   8.317  12.204  0.00  0.00    +0.000 C 
BRANCH  20  21
ATOM     21  N   UNL     1      46.029   7.409  13.221  0.00  0.00    +0.000 N 
ATOM     22  C   UNL     1      45.511   6.234  12.645  0.00  0.00    +0.000 A 
ATOM     23  C   UNL     1      44.932   5.250  13.454  0.00  0.00    +0.000 A 
ATOM     24  N   UNL     1      44.399   4.091  12.984  0.00  0.00    +0.000 NA
ATOM     25  C   UNL     1      44.490   3.939  11.634  0.00  0.00    +0.000 A 
ATOM     26  C   UNL     1      45.084   4.886  10.818  0.00  0.00    +0.000 A 
ATOM     27  N   UNL     1      45.603   6.041  11.308  0.00  0.00    +0.000 NA
ATOM     28  H   UNL     1      45.317   7.868  13.787  0.00  0.00    +0.000 HD
BRANCH  25  29
ATOM     29  C   UNL     1      43.900   2.718  11.024  0.00  0.00    +0.000 C 
ATOM     30  N   UNL     1      44.551   2.230   9.924  0.00  0.00    +0.000 N 
ATOM     31  O   UNL     1      42.904   2.176  11.480  0.00  0.00    +0.000 OA
ATOM     32  H   UNL     1      45.378   2.699   9.570  0.00  0.00    +0.000 HD
ATOM     33  H   UNL     1      44.204   1.397   9.472  0.00  0.00    +0.000 HD
ENDBRANCH  25  29
ENDBRANCH  20  21
ENDBRANCH   1  20
TORSDOF 7
ENDMDL
MODEL 8
REMARK VINA RESULT:    -6.568      4.050      6.176
REMARK INTER + INTRA:         -10.117
REMARK INTER:                  -9.099
REMARK INTRA:                  -1.018
REMARK UNBOUND:                -1.054
REMARK  Name = 
REMARK  8 active torsions:
REMARK  status: ('A' for Active; 'I' for Inactive)
REMARK    1  A    between atoms: C_1  and  C_2
REMARK    2  A    between atoms: C_2  and  O_3
REMARK    3  A    between atoms: C_5  and  O_6
REMARK    4  A    between atoms: O_6  and  C_7
REMARK    5  A    between atoms: C_9  and  C_10
REMARK    6  A    between atoms: C_10  and  C_13
REMARK    7  A    between atoms: C_13  and  N_14
REMARK    8  A    between atoms: C_18  and  C_19
REMARK                            x       y       z     vdW  Elec       q    Type
REMARK                         _______ _______ _______ _____ _____    ______ ____
ROOT
ATOM      1  C   UNL     1      47.848   3.228  16.865  0.00  0.00    +0.000 C 
ATOM      2  F   UNL     1      48.285   2.413  15.859  0.00  0.00    +0.000 F 
ATOM      3  F   UNL     1      47.108   2.412  17.683  0.00  0.00    +0.000 F 
ENDROOT
BRANCH   1   6
ATOM      4  C   UNL     1      49.806   5.549  19.174  0.00  0.00    +0.000 A 
ATOM      5  C   UNL     1      48.776   4.932  18.457  0.00  0.00    +0.000 A 
ATOM      6  C   UNL     1      49.026   3.828  17.624  0.00  0.00    +0.000 A 
ATOM      7  C   UNL     1      50.342   3.343  17.544  0.00  0.00    +0.000 A 
ATOM      8  C   UNL     1      51.369   3.941  18.279  0.00  0.00    +0.000 A 
ATOM      9 CL   UNL     1      52.965   3.304  18.140  0.00  0.00    +0.000 Cl
ATOM     10  C   UNL     1      51.104   5.036  19.095  0.00  0.00    +0.000 A 
ATOM     11  F   UNL     1      52.096   5.613  19.788  0.00  0.00    +0.000 F 
BRANCH   4  12
ATOM     12  O   UNL     1      49.605   6.657  19.964  0.00  0.00    +0.000 OA
BRANCH  12  16
ATOM     13  C   UNL     1      47.905  10.197  17.742  0.00  0.00    +0.000 C 
ATOM     14  C   UNL     1      48.294   8.909  18.448  0.00  0.00    +0.000 C 
ATOM     15  C   UNL     1      49.053   9.144  19.778  0.00  0.00    +0.000 C 
ATOM     16  C   UNL     1      49.967   7.946  19.409  0.00  0.00    +0.000 C 
ATOM     17  C   UNL     1      49.574   8.197  17.934  0.00  0.00    +0.000 C 
BRANCH  14  18
ATOM     18  O   UNL     1      47.136   8.051  18.525  0.00  0.00    +0.000 OA
ATOM     19  H   UNL     1      47.282   7.471  19.291  0.00  0.00    +0.000 HD
ENDBRANCH  14  18
ENDBRANCH  12  16
ENDBRANCH   4  12
ENDBRANCH   1   6
BRANCH   1  20
ATOM     20  C   UNL     1      46.889   4.283  16.272  0.00  0.00    +0.000 C 
BRANCH  20  21
ATOM     21  N   UNL     1      47.487   5.156  15.243  0.00  0.00    +0.000 N 
ATOM     22  C   UNL     1      46.750   5.133  14.043  0.00  0.00    +0.000 A 
ATOM     23  C   UNL     1      47.163   5.903  12.950  0.00  0.00    +0.000 A 
ATOM     24  N   UNL     1      46.520   5.935  11.753  0.00  0.00    +0.000 NA
ATOM     25  C   UNL     1      45.402   5.160  11.696  0.00  0.00    +0.000 A 
ATOM     26  C   UNL     1      44.960   4.413  12.773  0.00  0.00    +0.000 A 
ATOM     27  N   UNL     1      45.622   4.390  13.959  0.00  0.00    +0.000 NA
ATOM     28  H   UNL     1      48.462   4.922  15.063  0.00  0.00    +0.000 HD
BRANCH  25  29
ATOM     29  C   UNL     1      44.653   5.102  10.412  0.00  0.00    +0.000 C 
ATOM     30  N   UNL     1      45.403   5.263   9.279  0.00  0.00    +0.000 N 
ATOM     31  O   UNL     1      43.446   4.913  10.368  0.00  0.00    +0.000 OA
ATOM     32  H   UNL     1      46.404   5.414   9.347  0.00  0.00    +0.000 HD
ATOM     33  H   UNL     1      44.953   5.224   8.377  0.00  0.00    +0.000 HD
ENDBRANCH  25  29
ENDBRANCH  20  21
ENDBRANCH   1  20
TORSDOF 7
ENDMDL
MODEL 9
REMARK VINA RESULT:    -6.552      4.187      7.143
REMARK INTER + INTRA:         -10.096
REMARK INTER:                  -8.817
REMARK INTRA:                  -1.279
REMARK UNBOUND:                -1.054
REMARK  Name = 
REMARK  8 active torsions:
REMARK  status: ('A' for Active; 'I' for Inactive)
REMARK    1  A    between atoms: C_1  and  C_2
REMARK    2  A    between atoms: C_2  and  O_3
REMARK    3  A    between atoms: C_5  and  O_6
REMARK    4  A    between atoms: O_6  and  C_7
REMARK    5  A    between atoms: C_9  and  C_10
REMARK    6  A    between atoms: C_10  and  C_13
REMARK    7  A    between atoms: C_13  and  N_14
REMARK    8  A    between atoms: C_18  and  C_19
REMARK                            x       y       z     vdW  Elec       q    Type
REMARK                         _______ _______ _______ _____ _____    ______ ____
ROOT
ATOM      1  C   UNL     1      49.749   7.633  14.748  0.00  0.00    +0.000 C 
ATOM      2  F   UNL     1      49.494   8.803  15.406  0.00  0.00    +0.000 F 
ATOM      3  F   UNL     1      51.101   7.442  14.878  0.00  0.00    +0.000 F 
ENDROOT
BRANCH   1   6
ATOM      4  C   UNL     1      47.170   4.852  15.151  0.00  0.00    +0.000 A 
ATOM      5  C   UNL     1      47.933   5.904  14.636  0.00  0.00    +0.000 A 
ATOM      6  C   UNL     1      48.978   6.479  15.379  0.00  0.00    +0.000 A 
ATOM      7  C   UNL     1      49.252   5.955  16.653  0.00  0.00    +0.000 A 
ATOM      8  C   UNL     1      48.507   4.887  17.161  0.00  0.00    +0.000 A 
ATOM      9 CL   UNL     1      48.887   4.286  18.732  0.00  0.00    +0.000 Cl
ATOM     10  C   UNL     1      47.473   4.333  16.413  0.00  0.00    +0.000 A 
ATOM     11  F   UNL     1      46.754   3.316  16.911  0.00  0.00    +0.000 F 
BRANCH   4  12
ATOM     12  O   UNL     1      46.112   4.294  14.470  0.00  0.00    +0.000 OA
BRANCH  12  16
ATOM     13  C   UNL     1      43.382   3.999  10.890  0.00  0.00    +0.000 C 
ATOM     14  C   UNL     1      44.304   3.888  12.093  0.00  0.00    +0.000 C 
ATOM     15  C   UNL     1      43.972   4.901  13.216  0.00  0.00    +0.000 C 
ATOM     16  C   UNL     1      45.497   5.090  13.427  0.00  0.00    +0.000 C 
ATOM     17  C   UNL     1      45.683   4.588  11.976  0.00  0.00    +0.000 C 
BRANCH  14  18
ATOM     18  O   UNL     1      44.381   2.503  12.494  0.00  0.00    +0.000 OA
ATOM     19  H   UNL     1      43.463   2.206  12.608  0.00  0.00    +0.000 HD
ENDBRANCH  14  18
ENDBRANCH  12  16
ENDBRANCH   4  12
ENDBRANCH   1   6
BRANCH   1  20
ATOM     20  C   UNL     1      49.452   7.830  13.246  0.00  0.00    +0.000 C 
BRANCH  20  21
ATOM     21  N   UNL     1      49.236   9.232  12.834  0.00  0.00    +0.000 N 
ATOM     22  C   UNL     1      47.896   9.474  12.479  0.00  0.00    +0.000 A 
ATOM     23  C   UNL     1      47.498  10.750  12.065  0.00  0.00    +0.000 A 
ATOM     24  N   UNL     1      46.230  11.071  11.695  0.00  0.00    +0.000 NA
ATOM     25  C   UNL     1      45.342  10.042  11.780  0.00  0.00    +0.000 A 
ATOM     26  C   UNL     1      45.708   8.780  12.215  0.00  0.00    +0.000 A 
ATOM     27  N   UNL     1      46.983   8.479  12.572  0.00  0.00    +0.000 NA
ATOM     28  H   UNL     1      49.858   9.507  12.075  0.00  0.00    +0.000 HD
BRANCH  25  29
ATOM     29  C   UNL     1      43.937  10.290  11.360  0.00  0.00    +0.000 C 
ATOM     30  N   UNL     1      43.532   9.637  10.228  0.00  0.00    +0.000 N 
ATOM     31  O   UNL     1      43.188  11.021  11.990  0.00  0.00    +0.000 OA
ATOM     32  H   UNL     1      44.176   9.033   9.729  0.00  0.00    +0.000 HD
ATOM     33  H   UNL     1      42.586   9.758   9.899  0.00  0.00    +0.000 HD
ENDBRANCH  25  29
ENDBRANCH  20  21
ENDBRANCH   1  20
TORSDOF 7
ENDMDL
