MODEL 1
REMARK VINA RESULT:    -9.525      0.000      0.000
REMARK INTER + INTRA:         -13.345
REMARK INTER:                 -12.309
REMARK INTRA:                  -1.036
REMARK UNBOUND:                -1.036
REMARK  Name = 
REMARK  5 active torsions:
REMARK  status: ('A' for Active; 'I' for Inactive)
REMARK    1  A    between atoms: C_2  and  C_4
REMARK    2  A    between atoms: N_8  and  C_9
REMARK    3  A    between atoms: C_9  and  C_10
REMARK    4  A    between atoms: C_10  and  C_13
REMARK    5  A    between atoms: C_17  and  C_18
REMARK                            x       y       z     vdW  Elec       q    Type
REMARK                         _______ _______ _______ _____ _____    ______ ____
ROOT
ATOM      1  C   UNL     1      43.450   5.617  12.147  0.00  0.00    +0.000 C 
ATOM      2  F   UNL     1      43.057   6.763  11.515  0.00  0.00    +0.000 F 
ATOM      3  F   UNL     1      42.594   5.475  13.203  0.00  0.00    +0.000 F 
ENDROOT
BRANCH   1   4
ATOM      4  C   UNL     1      44.896   5.681  12.605  0.00  0.00    +0.000 A 
ATOM      5  C   UNL     1      45.455   4.607  13.311  0.00  0.00    +0.000 A 
ATOM      6  C   UNL     1      46.792   4.640  13.691  0.00  0.00    +0.000 A 
ATOM      7  C   UNL     1      47.586   5.738  13.353  0.00  0.00    +0.000 A 
ATOM      8  C   UNL     1      47.075   6.821  12.614  0.00  0.00    +0.000 A 
ATOM      9  C   UNL     1      45.709   6.783  12.275  0.00  0.00    +0.000 A 
BRANCH   8  10
ATOM     10  C   UNL     1      47.962   7.917  12.159  0.00  0.00    +0.000 A 
ATOM     11  C   UNL     1      47.487   9.235  12.076  0.00  0.00    +0.000 A 
ATOM     12  C   UNL     1      48.340  10.252  11.678  0.00  0.00    +0.000 A 
ATOM     13  N   UNL     1      49.633  10.061  11.363  0.00  0.00    +0.000 NA
ATOM     14  C   UNL     1      50.089   8.794  11.446  0.00  0.00    +0.000 A 
ATOM     15  C   UNL     1      49.308   7.710  11.825  0.00  0.00    +0.000 A 
ENDBRANCH   8  10
ENDBRANCH   1   4
BRANCH   1  16
ATOM     16  C   UNL     1      43.253   4.425  11.171  0.00  0.00    +0.000 C 
BRANCH  16  21
ATOM     17  C   UNL     1      46.454   2.502   7.697  0.00  0.00    +0.000 A 
ATOM     18  C   UNL     1      45.616   1.837   8.584  0.00  0.00    +0.000 A 
ATOM     19  C   UNL     1      44.687   2.573   9.322  0.00  0.00    +0.000 A 
ATOM     20  C   UNL     1      44.616   3.954   9.167  0.00  0.00    +0.000 A 
ATOM     21  N   UNL     1      43.666   4.736   9.797  0.00  0.00    +0.000 N 
ATOM     22  N   UNL     1      45.438   4.609   8.326  0.00  0.00    +0.000 NA
ATOM     23  C   UNL     1      46.341   3.882   7.616  0.00  0.00    +0.000 A 
ATOM     24  H   UNL     1      43.883   5.716   9.616  0.00  0.00    +0.000 HD
BRANCH  17  26
ATOM     25  N   UNL     1      48.535   2.535   6.445  0.00  0.00    +0.000 N 
ATOM     26  C   UNL     1      47.455   1.807   6.863  0.00  0.00    +0.000 C 
ATOM     27  O   UNL     1      47.341   0.620   6.583  0.00  0.00    +0.000 OA
ATOM     28  H   UNL     1      49.263   2.018   5.968  0.00  0.00    +0.000 HD
ATOM     29  H   UNL     1      48.791   3.416   6.864  0.00  0.00    +0.000 HD
ENDBRANCH  17  26
ENDBRANCH  16  21
ENDBRANCH   1  16
TORSDOF 5
ENDMDL
MODEL 2
REMARK VINA RESULT:    -9.469      2.184      3.449
REMARK INTER + INTRA:         -13.273
REMARK INTER:                 -12.427
REMARK INTRA:                  -0.846
REMARK UNBOUND:                -1.036
REMARK  Name = 
REMARK  5 active torsions:
REMARK  status: ('A' for Active; 'I' for Inactive)
REMARK    1  A    between atoms: C_2  and  C_4
REMARK    2  A    between atoms: N_8  and  C_9
REMARK    3  A    between atoms: C_9  and  C_10
REMARK    4  A    between atoms: C_10  and  C_13
REMARK    5  A    between atoms: C_17  and  C_18
REMARK                            x       y       z     vdW  Elec       q    Type
REMARK                         _______ _______ _______ _____ _____    ______ ____
ROOT
ATOM      1  C   UNL     1      43.538   5.581  12.134  0.00  0.00    +0.000 C 
ATOM      2  F   UNL     1      42.999   6.705  11.571  0.00  0.00    +0.000 F 
ATOM      3  F   UNL     1      42.834   5.382  13.288  0.00  0.00    +0.000 F 
ENDROOT
BRANCH   1   4
ATOM      4  C   UNL     1      45.024   5.732  12.404  0.00  0.00    +0.000 A 
ATOM      5  C   UNL     1      45.817   6.506  11.546  0.00  0.00    +0.000 A 
ATOM      6  C   UNL     1      47.169   6.687  11.815  0.00  0.00    +0.000 A 
ATOM      7  C   UNL     1      47.735   6.112  12.953  0.00  0.00    +0.000 A 
ATOM      8  C   UNL     1      46.969   5.357  13.861  0.00  0.00    +0.000 A 
ATOM      9  C   UNL     1      45.612   5.155  13.547  0.00  0.00    +0.000 A 
BRANCH   8  10
ATOM     10  C   UNL     1      47.560   4.860  15.125  0.00  0.00    +0.000 A 
ATOM     11  C   UNL     1      47.392   3.522  15.516  0.00  0.00    +0.000 A 
ATOM     12  C   UNL     1      47.979   3.066  16.686  0.00  0.00    +0.000 A 
ATOM     13  N   UNL     1      48.727   3.838  17.495  0.00  0.00    +0.000 NA
ATOM     14  C   UNL     1      48.889   5.122  17.117  0.00  0.00    +0.000 A 
ATOM     15  C   UNL     1      48.333   5.671  15.969  0.00  0.00    +0.000 A 
ENDBRANCH   8  10
ENDBRANCH   1   4
BRANCH   1  16
ATOM     16  C   UNL     1      43.289   4.385  11.176  0.00  0.00    +0.000 C 
BRANCH  16  21
ATOM     17  C   UNL     1      46.455   2.461   7.671  0.00  0.00    +0.000 A 
ATOM     18  C   UNL     1      45.652   1.795   8.590  0.00  0.00    +0.000 A 
ATOM     19  C   UNL     1      44.723   2.526   9.334  0.00  0.00    +0.000 A 
ATOM     20  C   UNL     1      44.617   3.902   9.151  0.00  0.00    +0.000 A 
ATOM     21  N   UNL     1      43.663   4.675   9.786  0.00  0.00    +0.000 N 
ATOM     22  N   UNL     1      45.404   4.556   8.278  0.00  0.00    +0.000 NA
ATOM     23  C   UNL     1      46.308   3.835   7.564  0.00  0.00    +0.000 A 
ATOM     24  H   UNL     1      43.854   5.655   9.581  0.00  0.00    +0.000 HD
BRANCH  17  26
ATOM     25  N   UNL     1      48.522   2.505   6.398  0.00  0.00    +0.000 N 
ATOM     26  C   UNL     1      47.452   1.771   6.828  0.00  0.00    +0.000 C 
ATOM     27  O   UNL     1      47.345   0.582   6.553  0.00  0.00    +0.000 OA
ATOM     28  H   UNL     1      49.250   1.993   5.915  0.00  0.00    +0.000 HD
ATOM     29  H   UNL     1      48.776   3.389   6.812  0.00  0.00    +0.000 HD
ENDBRANCH  17  26
ENDBRANCH  16  21
ENDBRANCH   1  16
TORSDOF 5
ENDMDL
MODEL 3
REMARK VINA RESULT:    -9.040      1.127      1.643
REMARK INTER + INTRA:         -12.719
REMARK INTER:                 -11.747
REMARK INTRA:                  -0.971
REMARK UNBOUND:                -1.036
REMARK  Name = 
REMARK  5 active torsions:
REMARK  status: ('A' for Active; 'I' for Inactive)
REMARK    1  A    between atoms: C_2  and  C_4
REMARK    2  A    between atoms: N_8  and  C_9
REMARK    3  A    between atoms: C_9  and  C_10
REMARK    4  A    between atoms: C_10  and  C_13
REMARK    5  A    between atoms: C_17  and  C_18
REMARK                            x       y       z     vdW  Elec       q    Type
REMARK                         _______ _______ _______ _____ _____    ______ ____
ROOT
ATOM      1  C   UNL     1      43.257   4.819  12.547  0.00  0.00    +0.000 C 
ATOM      2  F   UNL     1      42.316   5.731  12.157  0.00  0.00    +0.000 F 
ATOM      3  F   UNL     1      42.764   4.259  13.692  0.00  0.00    +0.000 F 
ENDROOT
BRANCH   1   4
ATOM      4  C   UNL     1      44.615   5.457  12.776  0.00  0.00    +0.000 A 
ATOM      5  C   UNL     1      45.703   4.666  13.169  0.00  0.00    +0.000 A 
ATOM      6  C   UNL     1      46.960   5.237  13.333  0.00  0.00    +0.000 A 
ATOM      7  C   UNL     1      47.143   6.599  13.089  0.00  0.00    +0.000 A 
ATOM      8  C   UNL     1      46.087   7.423  12.659  0.00  0.00    +0.000 A 
ATOM      9  C   UNL     1      44.816   6.831  12.537  0.00  0.00    +0.000 A 
BRANCH   8  10
ATOM     10  C   UNL     1      46.329   8.837  12.287  0.00  0.00    +0.000 A 
ATOM     11  C   UNL     1      47.635   9.312  12.093  0.00  0.00    +0.000 A 
ATOM     12  C   UNL     1      47.840  10.630  11.715  0.00  0.00    +0.000 A 
ATOM     13  N   UNL     1      46.845  11.510  11.508  0.00  0.00    +0.000 NA
ATOM     14  C   UNL     1      45.591  11.051  11.692  0.00  0.00    +0.000 A 
ATOM     15  C   UNL     1      45.287   9.752  12.079  0.00  0.00    +0.000 A 
ENDBRANCH   8  10
ENDBRANCH   1   4
BRANCH   1  16
ATOM     16  C   UNL     1      43.362   3.722  11.452  0.00  0.00    +0.000 C 
BRANCH  16  21
ATOM     17  C   UNL     1      46.532   2.576   7.625  0.00  0.00    +0.000 A 
ATOM     18  C   UNL     1      45.778   1.726   8.426  0.00  0.00    +0.000 A 
ATOM     19  C   UNL     1      44.834   2.276   9.297  0.00  0.00    +0.000 A 
ATOM     20  C   UNL     1      44.666   3.656   9.357  0.00  0.00    +0.000 A 
ATOM     21  N   UNL     1      43.694   4.264  10.128  0.00  0.00    +0.000 N 
ATOM     22  N   UNL     1      45.406   4.486   8.599  0.00  0.00    +0.000 NA
ATOM     23  C   UNL     1      46.325   3.940   7.759  0.00  0.00    +0.000 A 
ATOM     24  H   UNL     1      43.839   5.273  10.092  0.00  0.00    +0.000 HD
BRANCH  17  26
ATOM     25  N   UNL     1      48.638   2.875   6.453  0.00  0.00    +0.000 N 
ATOM     26  C   UNL     1      47.540   2.087   6.663  0.00  0.00    +0.000 C 
ATOM     27  O   UNL     1      47.416   1.005   6.100  0.00  0.00    +0.000 OA
ATOM     28  H   UNL     1      49.368   2.476   5.876  0.00  0.00    +0.000 HD
ATOM     29  H   UNL     1      48.897   3.622   7.079  0.00  0.00    +0.000 HD
ENDBRANCH  17  26
ENDBRANCH  16  21
ENDBRANCH   1  16
TORSDOF 5
ENDMDL
MODEL 4
REMARK VINA RESULT:    -8.607      1.754      2.225
REMARK INTER + INTRA:         -12.159
REMARK INTER:                 -11.101
REMARK INTRA:                  -1.058
REMARK UNBOUND:                -1.036
REMARK  Name = 
REMARK  5 active torsions:
REMARK  status: ('A' for Active; 'I' for Inactive)
REMARK    1  A    between atoms: C_2  and  C_4
REMARK    2  A    between atoms: N_8  and  C_9
REMARK    3  A    between atoms: C_9  and  C_10
REMARK    4  A    between atoms: C_10  and  C_13
REMARK    5  A    between atoms: C_17  and  C_18
REMARK                            x       y       z     vdW  Elec       q    Type
REMARK                         _______ _______ _______ _____ _____    ______ ____
ROOT
ATOM      1  C   UNL     1      44.012   5.853  11.812  0.00  0.00    +0.000 C 
ATOM      2  F   UNL     1      44.480   6.874  11.032  0.00  0.00    +0.000 F 
ATOM      3  F   UNL     1      43.085   6.425  12.637  0.00  0.00    +0.000 F 
ENDROOT
BRANCH   1   4
ATOM      4  C   UNL     1      45.121   5.179  12.600  0.00  0.00    +0.000 A 
ATOM      5  C   UNL     1      45.243   3.783  12.583  0.00  0.00    +0.000 A 
ATOM      6  C   UNL     1      46.285   3.163  13.263  0.00  0.00    +0.000 A 
ATOM      7  C   UNL     1      47.224   3.934  13.950  0.00  0.00    +0.000 A 
ATOM      8  C   UNL     1      47.162   5.339  13.963  0.00  0.00    +0.000 A 
ATOM      9  C   UNL     1      46.076   5.942  13.300  0.00  0.00    +0.000 A 
BRANCH   8  10
ATOM     10  C   UNL     1      48.236   6.142  14.592  0.00  0.00    +0.000 A 
ATOM     11  C   UNL     1      48.897   7.146  13.867  0.00  0.00    +0.000 A 
ATOM     12  C   UNL     1      49.878   7.909  14.482  0.00  0.00    +0.000 A 
ATOM     13  N   UNL     1      50.248   7.754  15.766  0.00  0.00    +0.000 NA
ATOM     14  C   UNL     1      49.610   6.791  16.461  0.00  0.00    +0.000 A 
ATOM     15  C   UNL     1      48.622   5.972  15.930  0.00  0.00    +0.000 A 
ENDBRANCH   8  10
ENDBRANCH   1   4
BRANCH   1  16
ATOM     16  C   UNL     1      43.305   4.819  10.895  0.00  0.00    +0.000 C 
BRANCH  16  21
ATOM     17  C   UNL     1      46.407   2.263   7.755  0.00  0.00    +0.000 A 
ATOM     18  C   UNL     1      45.536   1.773   8.722  0.00  0.00    +0.000 A 
ATOM     19  C   UNL     1      44.645   2.653   9.341  0.00  0.00    +0.000 A 
ATOM     20  C   UNL     1      44.643   3.999   8.989  0.00  0.00    +0.000 A 
ATOM     21  N   UNL     1      43.733   4.908   9.494  0.00  0.00    +0.000 N 
ATOM     22  N   UNL     1      45.496   4.485   8.069  0.00  0.00    +0.000 NA
ATOM     23  C   UNL     1      46.362   3.621   7.477  0.00  0.00    +0.000 A 
ATOM     24  H   UNL     1      43.999   5.841   9.176  0.00  0.00    +0.000 HD
BRANCH  17  26
ATOM     25  N   UNL     1      48.518   2.000   6.585  0.00  0.00    +0.000 N 
ATOM     26  C   UNL     1      47.372   1.407   7.036  0.00  0.00    +0.000 C 
ATOM     27  O   UNL     1      47.171   0.209   6.878  0.00  0.00    +0.000 OA
ATOM     28  H   UNL     1      49.216   1.381   6.192  0.00  0.00    +0.000 HD
ATOM     29  H   UNL     1      48.832   2.899   6.918  0.00  0.00    +0.000 HD
ENDBRANCH  17  26
ENDBRANCH  16  21
ENDBRANCH   1  16
TORSDOF 5
ENDMDL
MODEL 5
REMARK VINA RESULT:    -8.531      1.362      2.006
REMARK INTER + INTRA:         -12.061
REMARK INTER:                 -11.437
REMARK INTRA:                  -0.624
REMARK UNBOUND:                -1.036
REMARK  Name = 
REMARK  5 active torsions:
REMARK  status: ('A' for Active; 'I' for Inactive)
REMARK    1  A    between atoms: C_2  and  C_4
REMARK    2  A    between atoms: N_8  and  C_9
REMARK    3  A    between atoms: C_9  and  C_10
REMARK    4  A    between atoms: C_10  and  C_13
REMARK    5  A    between atoms: C_17  and  C_18
REMARK                            x       y       z     vdW  Elec       q    Type
REMARK                         _______ _______ _______ _____ _____    ______ ____
ROOT
ATOM      1  C   UNL     1      44.616   4.671  12.300  0.00  0.00    +0.000 C 
ATOM      2  F   UNL     1      44.114   4.487  13.559  0.00  0.00    +0.000 F 
ATOM      3  F   UNL     1      45.558   3.694  12.141  0.00  0.00    +0.000 F 
ENDROOT
BRANCH   1   4
ATOM      4  C   UNL     1      45.209   6.056  12.116  0.00  0.00    +0.000 A 
ATOM      5  C   UNL     1      44.369   7.150  11.866  0.00  0.00    +0.000 A 
ATOM      6  C   UNL     1      44.902   8.428  11.744  0.00  0.00    +0.000 A 
ATOM      7  C   UNL     1      46.276   8.626  11.889  0.00  0.00    +0.000 A 
ATOM      8  C   UNL     1      47.152   7.562  12.176  0.00  0.00    +0.000 A 
ATOM      9  C   UNL     1      46.594   6.272  12.257  0.00  0.00    +0.000 A 
BRANCH   8  10
ATOM     10  C   UNL     1      48.587   7.811  12.449  0.00  0.00    +0.000 A 
ATOM     11  C   UNL     1      49.066   7.861  13.767  0.00  0.00    +0.000 A 
ATOM     12  C   UNL     1      50.417   8.064  14.003  0.00  0.00    +0.000 A 
ATOM     13  N   UNL     1      51.330   8.213  13.027  0.00  0.00    +0.000 NA
ATOM     14  C   UNL     1      50.868   8.161  11.761  0.00  0.00    +0.000 A 
ATOM     15  C   UNL     1      49.533   7.973  11.427  0.00  0.00    +0.000 A 
ENDBRANCH   8  10
ENDBRANCH   1   4
BRANCH   1  16
ATOM     16  C   UNL     1      43.471   4.441  11.277  0.00  0.00    +0.000 C 
BRANCH  16  21
ATOM     17  C   UNL     1      46.501   2.519   7.652  0.00  0.00    +0.000 A 
ATOM     18  C   UNL     1      45.665   1.855   8.542  0.00  0.00    +0.000 A 
ATOM     19  C   UNL     1      44.784   2.600   9.330  0.00  0.00    +0.000 A 
ATOM     20  C   UNL     1      44.758   3.987   9.219  0.00  0.00    +0.000 A 
ATOM     21  N   UNL     1      43.855   4.781   9.901  0.00  0.00    +0.000 N 
ATOM     22  N   UNL     1      45.579   4.639   8.375  0.00  0.00    +0.000 NA
ATOM     23  C   UNL     1      46.435   3.904   7.618  0.00  0.00    +0.000 A 
ATOM     24  H   UNL     1      44.102   5.758   9.744  0.00  0.00    +0.000 HD
BRANCH  17  26
ATOM     25  N   UNL     1      48.558   2.511   6.363  0.00  0.00    +0.000 N 
ATOM     26  C   UNL     1      47.452   1.816   6.767  0.00  0.00    +0.000 C 
ATOM     27  O   UNL     1      47.276   0.650   6.436  0.00  0.00    +0.000 OA
ATOM     28  H   UNL     1      49.252   1.982   5.848  0.00  0.00    +0.000 HD
ATOM     29  H   UNL     1      48.864   3.358   6.816  0.00  0.00    +0.000 HD
ENDBRANCH  17  26
ENDBRANCH  16  21
ENDBRANCH   1  16
TORSDOF 5
ENDMDL
MODEL 6
REMARK VINA RESULT:    -8.516      2.328      2.967
REMARK INTER + INTRA:         -12.042
REMARK INTER:                 -11.423
REMARK INTRA:                  -0.619
REMARK UNBOUND:                -1.036
REMARK  Name = 
REMARK  5 active torsions:
REMARK  status: ('A' for Active; 'I' for Inactive)
REMARK    1  A    between atoms: C_2  and  C_4
REMARK    2  A    between atoms: N_8  and  C_9
REMARK    3  A    between atoms: C_9  and  C_10
REMARK    4  A    between atoms: C_10  and  C_13
REMARK    5  A    between atoms: C_17  and  C_18
REMARK                            x       y       z     vdW  Elec       q    Type
REMARK                         _______ _______ _______ _____ _____    ______ ____
ROOT
ATOM      1  C   UNL     1      44.320   4.097  12.307  0.00  0.00    +0.000 C 
ATOM      2  F   UNL     1      43.673   3.921  13.498  0.00  0.00    +0.000 F 
ATOM      3  F   UNL     1      45.136   3.009  12.175  0.00  0.00    +0.000 F 
ENDROOT
BRANCH   1   4
ATOM      4  C   UNL     1      45.108   5.395  12.268  0.00  0.00    +0.000 A 
ATOM      5  C   UNL     1      46.503   5.370  12.400  0.00  0.00    +0.000 A 
ATOM      6  C   UNL     1      47.234   6.549  12.316  0.00  0.00    +0.000 A 
ATOM      7  C   UNL     1      46.579   7.760  12.081  0.00  0.00    +0.000 A 
ATOM      8  C   UNL     1      45.185   7.826  11.907  0.00  0.00    +0.000 A 
ATOM      9  C   UNL     1      44.462   6.624  12.035  0.00  0.00    +0.000 A 
BRANCH   8  10
ATOM     10  C   UNL     1      44.524   9.099  11.537  0.00  0.00    +0.000 A 
ATOM     11  C   UNL     1      43.283   9.096  10.880  0.00  0.00    +0.000 A 
ATOM     12  C   UNL     1      42.665  10.297  10.569  0.00  0.00    +0.000 A 
ATOM     13  N   UNL     1      43.183  11.502  10.868  0.00  0.00    +0.000 NA
ATOM     14  C   UNL     1      44.374  11.502  11.501  0.00  0.00    +0.000 A 
ATOM     15  C   UNL     1      45.072  10.352  11.844  0.00  0.00    +0.000 A 
ENDBRANCH   8  10
ENDBRANCH   1   4
BRANCH   1  16
ATOM     16  C   UNL     1      43.265   4.081  11.168  0.00  0.00    +0.000 C 
BRANCH  16  21
ATOM     17  C   UNL     1      46.601   2.694   7.568  0.00  0.00    +0.000 A 
ATOM     18  C   UNL     1      45.681   1.916   8.261  0.00  0.00    +0.000 A 
ATOM     19  C   UNL     1      44.737   2.545   9.076  0.00  0.00    +0.000 A 
ATOM     20  C   UNL     1      44.732   3.932   9.188  0.00  0.00    +0.000 A 
ATOM     21  N   UNL     1      43.776   4.626   9.904  0.00  0.00    +0.000 N 
ATOM     22  N   UNL     1      45.631   4.691   8.536  0.00  0.00    +0.000 NA
ATOM     23  C   UNL     1      46.548   4.068   7.750  0.00  0.00    +0.000 A 
ATOM     24  H   UNL     1      44.044   5.610   9.930  0.00  0.00    +0.000 HD
BRANCH  17  26
ATOM     25  N   UNL     1      47.983   2.862   5.579  0.00  0.00    +0.000 N 
ATOM     26  C   UNL     1      47.623   2.121   6.670  0.00  0.00    +0.000 C 
ATOM     27  O   UNL     1      48.153   1.042   6.910  0.00  0.00    +0.000 OA
ATOM     28  H   UNL     1      48.760   2.506   5.035  0.00  0.00    +0.000 HD
ATOM     29  H   UNL     1      47.770   3.844   5.494  0.00  0.00    +0.000 HD
ENDBRANCH  17  26
ENDBRANCH  16  21
ENDBRANCH   1  16
TORSDOF 5
ENDMDL
MODEL 7
REMARK VINA RESULT:    -7.687      3.843      7.343
REMARK INTER + INTRA:         -10.970
REMARK INTER:                 -10.115
REMARK INTRA:                  -0.855
REMARK UNBOUND:                -1.036
REMARK  Name = 
REMARK  5 active torsions:
REMARK  status: ('A' for Active; 'I' for Inactive)
REMARK    1  A    between atoms: C_2  and  C_4
REMARK    2  A    between atoms: N_8  and  C_9
REMARK    3  A    between atoms: C_9  and  C_10
REMARK    4  A    between atoms: C_10  and  C_13
REMARK    5  A    between atoms: C_17  and  C_18
REMARK                            x       y       z     vdW  Elec       q    Type
REMARK                         _______ _______ _______ _____ _____    ______ ____
ROOT
ATOM      1  C   UNL     1      45.350   6.472  11.594  0.00  0.00    +0.000 C 
ATOM      2  F   UNL     1      44.416   7.428  11.305  0.00  0.00    +0.000 F 
ATOM      3  F   UNL     1      46.506   6.909  11.011  0.00  0.00    +0.000 F 
ENDROOT
BRANCH   1   4
ATOM      4  C   UNL     1      44.947   5.102  11.079  0.00  0.00    +0.000 A 
ATOM      5  C   UNL     1      43.830   4.451  11.620  0.00  0.00    +0.000 A 
ATOM      6  C   UNL     1      43.428   3.218  11.120  0.00  0.00    +0.000 A 
ATOM      7  C   UNL     1      44.127   2.635  10.061  0.00  0.00    +0.000 A 
ATOM      8  C   UNL     1      45.231   3.270   9.463  0.00  0.00    +0.000 A 
ATOM      9  C   UNL     1      45.643   4.499  10.013  0.00  0.00    +0.000 A 
BRANCH   8  10
ATOM     10  C   UNL     1      45.881   2.694   8.263  0.00  0.00    +0.000 A 
ATOM     11  C   UNL     1      46.117   3.486   7.128  0.00  0.00    +0.000 A 
ATOM     12  C   UNL     1      46.755   2.939   6.026  0.00  0.00    +0.000 A 
ATOM     13  N   UNL     1      47.183   1.665   5.968  0.00  0.00    +0.000 NA
ATOM     14  C   UNL     1      46.958   0.907   7.060  0.00  0.00    +0.000 A 
ATOM     15  C   UNL     1      46.319   1.364   8.206  0.00  0.00    +0.000 A 
ENDBRANCH   8  10
ENDBRANCH   1   4
BRANCH   1  16
ATOM     16  C   UNL     1      45.545   6.426  13.134  0.00  0.00    +0.000 C 
BRANCH  16  21
ATOM     17  C   UNL     1      48.412   4.085  16.643  0.00  0.00    +0.000 A 
ATOM     18  C   UNL     1      47.366   3.578  15.882  0.00  0.00    +0.000 A 
ATOM     19  C   UNL     1      46.842   4.354  14.846  0.00  0.00    +0.000 A 
ATOM     20  C   UNL     1      47.366   5.618  14.593  0.00  0.00    +0.000 A 
ATOM     21  N   UNL     1      46.958   6.404  13.532  0.00  0.00    +0.000 N 
ATOM     22  N   UNL     1      48.365   6.125  15.338  0.00  0.00    +0.000 NA
ATOM     23  C   UNL     1      48.863   5.363  16.347  0.00  0.00    +0.000 A 
ATOM     24  H   UNL     1      47.402   7.319  13.619  0.00  0.00    +0.000 HD
BRANCH  17  26
ATOM     25  N   UNL     1      48.372   3.297  18.940  0.00  0.00    +0.000 N 
ATOM     26  C   UNL     1      49.041   3.333  17.747  0.00  0.00    +0.000 C 
ATOM     27  O   UNL     1      50.100   2.736  17.593  0.00  0.00    +0.000 OA
ATOM     28  H   UNL     1      48.760   2.689  19.650  0.00  0.00    +0.000 HD
ATOM     29  H   UNL     1      47.398   3.546  19.024  0.00  0.00    +0.000 HD
ENDBRANCH  17  26
ENDBRANCH  16  21
ENDBRANCH   1  16
TORSDOF 5
ENDMDL
MODEL 8
REMARK VINA RESULT:    -7.552      4.195      7.686
REMARK INTER + INTRA:         -10.795
REMARK INTER:                 -10.129
REMARK INTRA:                  -0.666
REMARK UNBOUND:                -1.036
REMARK  Name = 
REMARK  5 active torsions:
REMARK  status: ('A' for Active; 'I' for Inactive)
REMARK    1  A    between atoms: C_2  and  C_4
REMARK    2  A    between atoms: N_8  and  C_9
REMARK    3  A    between atoms: C_9  and  C_10
REMARK    4  A    between atoms: C_10  and  C_13
REMARK    5  A    between atoms: C_17  and  C_18
REMARK                            x       y       z     vdW  Elec       q    Type
REMARK                         _______ _______ _______ _____ _____    ______ ____
ROOT
ATOM      1  C   UNL     1      45.363   6.045  11.937  0.00  0.00    +0.000 C 
ATOM      2  F   UNL     1      44.328   6.630  12.612  0.00  0.00    +0.000 F 
ATOM      3  F   UNL     1      45.756   6.969  11.009  0.00  0.00    +0.000 F 
ENDROOT
BRANCH   1   4
ATOM      4  C   UNL     1      44.956   4.736  11.285  0.00  0.00    +0.000 A 
ATOM      5  C   UNL     1      43.821   4.051  11.739  0.00  0.00    +0.000 A 
ATOM      6  C   UNL     1      43.415   2.877  11.115  0.00  0.00    +0.000 A 
ATOM      7  C   UNL     1      44.130   2.388  10.019  0.00  0.00    +0.000 A 
ATOM      8  C   UNL     1      45.253   3.063   9.507  0.00  0.00    +0.000 A 
ATOM      9  C   UNL     1      45.667   4.228  10.180  0.00  0.00    +0.000 A 
BRANCH   8  10
ATOM     10  C   UNL     1      45.922   2.597   8.270  0.00  0.00    +0.000 A 
ATOM     11  C   UNL     1      46.131   3.474   7.195  0.00  0.00    +0.000 A 
ATOM     12  C   UNL     1      46.787   3.029   6.058  0.00  0.00    +0.000 A 
ATOM     13  N   UNL     1      47.257   1.777   5.911  0.00  0.00    +0.000 NA
ATOM     14  C   UNL     1      47.058   0.936   6.946  0.00  0.00    +0.000 A 
ATOM     15  C   UNL     1      46.405   1.289   8.119  0.00  0.00    +0.000 A 
ENDBRANCH   8  10
ENDBRANCH   1   4
BRANCH   1  16
ATOM     16  C   UNL     1      46.527   5.803  12.936  0.00  0.00    +0.000 C 
BRANCH  16  21
ATOM     17  C   UNL     1      48.635   4.281  17.324  0.00  0.00    +0.000 A 
ATOM     18  C   UNL     1      48.776   5.491  16.653  0.00  0.00    +0.000 A 
ATOM     19  C   UNL     1      47.956   5.758  15.555  0.00  0.00    +0.000 A 
ATOM     20  C   UNL     1      47.018   4.816  15.145  0.00  0.00    +0.000 A 
ATOM     21  N   UNL     1      46.115   5.046  14.124  0.00  0.00    +0.000 N 
ATOM     22  N   UNL     1      46.888   3.634  15.776  0.00  0.00    +0.000 NA
ATOM     23  C   UNL     1      47.696   3.383  16.840  0.00  0.00    +0.000 A 
ATOM     24  H   UNL     1      45.612   4.179  13.937  0.00  0.00    +0.000 HD
BRANCH  17  26
ATOM     25  N   UNL     1      48.773   3.487  19.614  0.00  0.00    +0.000 N 
ATOM     26  C   UNL     1      49.445   3.918  18.504  0.00  0.00    +0.000 C 
ATOM     27  O   UNL     1      50.669   3.968  18.480  0.00  0.00    +0.000 OA
ATOM     28  H   UNL     1      49.344   3.139  20.374  0.00  0.00    +0.000 HD
ATOM     29  H   UNL     1      47.810   3.187  19.584  0.00  0.00    +0.000 HD
ENDBRANCH  17  26
ENDBRANCH  16  21
ENDBRANCH   1  16
TORSDOF 5
ENDMDL
MODEL 9
REMARK VINA RESULT:    -7.329      4.190      7.562
REMARK INTER + INTRA:         -10.507
REMARK INTER:                  -9.378
REMARK INTRA:                  -1.129
REMARK UNBOUND:                -1.036
REMARK  Name = 
REMARK  5 active torsions:
REMARK  status: ('A' for Active; 'I' for Inactive)
REMARK    1  A    between atoms: C_2  and  C_4
REMARK    2  A    between atoms: N_8  and  C_9
REMARK    3  A    between atoms: C_9  and  C_10
REMARK    4  A    between atoms: C_10  and  C_13
REMARK    5  A    between atoms: C_17  and  C_18
REMARK                            x       y       z     vdW  Elec       q    Type
REMARK                         _______ _______ _______ _____ _____    ______ ____
ROOT
ATOM      1  C   UNL     1      48.773   8.124  12.195  0.00  0.00    +0.000 C 
ATOM      2  F   UNL     1      49.197   9.157  11.407  0.00  0.00    +0.000 F 
ATOM      3  F   UNL     1      49.581   7.069  11.873  0.00  0.00    +0.000 F 
ENDROOT
BRANCH   1   4
ATOM      4  C   UNL     1      47.308   7.795  11.970  0.00  0.00    +0.000 A 
ATOM      5  C   UNL     1      46.322   8.741  12.280  0.00  0.00    +0.000 A 
ATOM      6  C   UNL     1      44.983   8.465  12.032  0.00  0.00    +0.000 A 
ATOM      7  C   UNL     1      44.619   7.247  11.454  0.00  0.00    +0.000 A 
ATOM      8  C   UNL     1      45.579   6.282  11.093  0.00  0.00    +0.000 A 
ATOM      9  C   UNL     1      46.924   6.570  11.391  0.00  0.00    +0.000 A 
BRANCH   8  10
ATOM     10  C   UNL     1      45.184   5.051  10.370  0.00  0.00    +0.000 A 
ATOM     11  C   UNL     1      45.574   4.849   9.037  0.00  0.00    +0.000 A 
ATOM     12  C   UNL     1      45.223   3.677   8.385  0.00  0.00    +0.000 A 
ATOM     13  N   UNL     1      44.518   2.686   8.961  0.00  0.00    +0.000 NA
ATOM     14  C   UNL     1      44.147   2.881  10.242  0.00  0.00    +0.000 A 
ATOM     15  C   UNL     1      44.443   4.025  10.973  0.00  0.00    +0.000 A 
ENDBRANCH   8  10
ENDBRANCH   1   4
BRANCH   1  16
ATOM     16  C   UNL     1      49.011   8.509  13.680  0.00  0.00    +0.000 C 
BRANCH  16  21
ATOM     17  C   UNL     1      48.130   4.550  16.772  0.00  0.00    +0.000 A 
ATOM     18  C   UNL     1      47.444   4.942  15.629  0.00  0.00    +0.000 A 
ATOM     19  C   UNL     1      47.976   5.958  14.832  0.00  0.00    +0.000 A 
ATOM     20  C   UNL     1      49.176   6.565  15.194  0.00  0.00    +0.000 A 
ATOM     21  N   UNL     1      49.806   7.514  14.411  0.00  0.00    +0.000 N 
ATOM     22  N   UNL     1      49.836   6.205  16.310  0.00  0.00    +0.000 NA
ATOM     23  C   UNL     1      49.305   5.219  17.079  0.00  0.00    +0.000 A 
ATOM     24  H   UNL     1      50.600   7.886  14.931  0.00  0.00    +0.000 HD
BRANCH  17  26
ATOM     25  N   UNL     1      48.399   3.213  18.781  0.00  0.00    +0.000 N 
ATOM     26  C   UNL     1      47.654   3.474  17.665  0.00  0.00    +0.000 C 
ATOM     27  O   UNL     1      46.617   2.863  17.435  0.00  0.00    +0.000 OA
ATOM     28  H   UNL     1      48.003   2.551  19.437  0.00  0.00    +0.000 HD
ATOM     29  H   UNL     1      49.093   3.855  19.134  0.00  0.00    +0.000 HD
ENDBRANCH  17  26
ENDBRANCH  16  21
ENDBRANCH   1  16
TORSDOF 5
ENDMDL
