MODEL 1
REMARK VINA RESULT:    -9.071      0.000      0.000
REMARK INTER + INTRA:         -13.386
REMARK INTER:                 -12.517
REMARK INTRA:                  -0.868
REMARK UNBOUND:                -0.868
REMARK  Name = 
REMARK  8 active torsions:
REMARK  status: ('A' for Active; 'I' for Inactive)
REMARK    1  A    between atoms: C_1  and  C_2
REMARK    2  A    between atoms: C_2  and  O_3
REMARK    3  A    between atoms: C_5  and  N_6
REMARK    4  A    between atoms: C_9  and  C_10
REMARK    5  A    between atoms: C_10  and  C_13
REMARK    6  A    between atoms: C_13  and  N_14
REMARK    7  A    between atoms: N_14  and  C_15
REMARK    8  A    between atoms: C_18  and  C_19
REMARK                            x       y       z     vdW  Elec       q    Type
REMARK                         _______ _______ _______ _____ _____    ______ ____
ROOT
ATOM      1  C   UNL     1      44.621   5.153  12.375  0.00  0.00    +0.000 C 
ATOM      2  F   UNL     1      44.364   3.810  12.369  0.00  0.00    +0.000 F 
ATOM      3  F   UNL     1      43.616   5.705  13.126  0.00  0.00    +0.000 F 
ENDROOT
BRANCH   1   7
ATOM      4  N   UNL     1      47.777   4.504  16.104  0.00  0.00    +0.000 N 
ATOM      5  C   UNL     1      47.529   5.100  14.841  0.00  0.00    +0.000 A 
ATOM      6  C   UNL     1      46.304   4.838  14.231  0.00  0.00    +0.000 A 
ATOM      7  C   UNL     1      45.984   5.434  12.997  0.00  0.00    +0.000 A 
ATOM      8  C   UNL     1      46.953   6.257  12.416  0.00  0.00    +0.000 A 
ATOM      9  C   UNL     1      48.149   6.458  13.082  0.00  0.00    +0.000 A 
ATOM     10  N   UNL     1      48.444   5.911  14.283  0.00  0.00    +0.000 NA
ATOM     11  H   UNL     1      47.845   3.497  15.978  0.00  0.00    +0.000 HD
BRANCH   4  15
ATOM     12  C   UNL     1      48.647   4.445  20.453  0.00  0.00    +0.000 C 
ATOM     13  C   UNL     1      49.156   4.989  19.126  0.00  0.00    +0.000 C 
ATOM     14  C   UNL     1      48.066   5.660  18.253  0.00  0.00    +0.000 C 
ATOM     15  C   UNL     1      48.750   5.026  17.016  0.00  0.00    +0.000 C 
ATOM     16  C   UNL     1      49.312   3.947  17.977  0.00  0.00    +0.000 C 
BRANCH  13  17
ATOM     17  O   UNL     1      50.330   5.798  19.371  0.00  0.00    +0.000 OA
ATOM     18  H   UNL     1      50.811   5.804  18.525  0.00  0.00    +0.000 HD
ENDBRANCH  13  17
ENDBRANCH   4  15
ENDBRANCH   1   7
BRANCH   1  19
ATOM     19  C   UNL     1      44.468   5.692  10.929  0.00  0.00    +0.000 C 
BRANCH  19  20
ATOM     20  N   UNL     1      43.784   4.791   9.978  0.00  0.00    +0.000 N 
ATOM     21  H   UNL     1      43.133   5.285   9.362  0.00  0.00    +0.000 HD
BRANCH  20  22
ATOM     22  C   UNL     1      44.690   4.034   9.200  0.00  0.00    +0.000 A 
ATOM     23  N   UNL     1      45.516   4.675   8.339  0.00  0.00    +0.000 NA
ATOM     24  C   UNL     1      46.374   3.926   7.594  0.00  0.00    +0.000 A 
ATOM     25  C   UNL     1      46.477   2.550   7.688  0.00  0.00    +0.000 A 
ATOM     26  C   UNL     1      45.642   1.892   8.593  0.00  0.00    +0.000 A 
ATOM     27  C   UNL     1      44.748   2.643   9.348  0.00  0.00    +0.000 A 
ATOM     28  F   UNL     1      43.934   2.009  10.206  0.00  0.00    +0.000 F 
BRANCH  25  29
ATOM     29  C   UNL     1      47.414   1.827   6.809  0.00  0.00    +0.000 C 
ATOM     30  N   UNL     1      48.533   2.495   6.393  0.00  0.00    +0.000 N 
ATOM     31  O   UNL     1      47.190   0.677   6.458  0.00  0.00    +0.000 OA
ATOM     32  H   UNL     1      48.685   3.485   6.527  0.00  0.00    +0.000 HD
ATOM     33  H   UNL     1      49.149   2.009   5.752  0.00  0.00    +0.000 HD
ENDBRANCH  25  29
ENDBRANCH  20  22
ENDBRANCH  19  20
ENDBRANCH   1  19
TORSDOF 7
ENDMDL
MODEL 2
REMARK VINA RESULT:    -8.828      2.655      4.044
REMARK INTER + INTRA:         -13.051
REMARK INTER:                 -12.633
REMARK INTRA:                  -0.417
REMARK UNBOUND:                -0.868
REMARK  Name = 
REMARK  8 active torsions:
REMARK  status: ('A' for Active; 'I' for Inactive)
REMARK    1  A    between atoms: C_1  and  C_2
REMARK    2  A    between atoms: C_2  and  O_3
REMARK    3  A    between atoms: C_5  and  N_6
REMARK    4  A    between atoms: C_9  and  C_10
REMARK    5  A    between atoms: C_10  and  C_13
REMARK    6  A    between atoms: C_13  and  N_14
REMARK    7  A    between atoms: N_14  and  C_15
REMARK    8  A    between atoms: C_18  and  C_19
REMARK                            x       y       z     vdW  Elec       q    Type
REMARK                         _______ _______ _______ _____ _____    ______ ____
ROOT
ATOM      1  C   UNL     1      43.894   5.568  12.285  0.00  0.00    +0.000 C 
ATOM      2  F   UNL     1      42.953   5.465  13.272  0.00  0.00    +0.000 F 
ATOM      3  F   UNL     1      43.615   6.750  11.649  0.00  0.00    +0.000 F 
ENDROOT
BRANCH   1   7
ATOM      4  N   UNL     1      48.285   7.770  12.679  0.00  0.00    +0.000 N 
ATOM      5  C   UNL     1      47.453   6.690  13.069  0.00  0.00    +0.000 A 
ATOM      6  C   UNL     1      46.154   6.657  12.564  0.00  0.00    +0.000 A 
ATOM      7  C   UNL     1      45.296   5.589  12.882  0.00  0.00    +0.000 A 
ATOM      8  C   UNL     1      45.795   4.603  13.738  0.00  0.00    +0.000 A 
ATOM      9  C   UNL     1      47.092   4.714  14.205  0.00  0.00    +0.000 A 
ATOM     10  N   UNL     1      47.929   5.724  13.874  0.00  0.00    +0.000 NA
ATOM     11  H   UNL     1      47.910   8.627  13.079  0.00  0.00    +0.000 HD
BRANCH   4  15
ATOM     12  C   UNL     1      51.819   9.635  10.753  0.00  0.00    +0.000 C 
ATOM     13  C   UNL     1      51.415   8.606  11.799  0.00  0.00    +0.000 C 
ATOM     14  C   UNL     1      50.329   7.608  11.325  0.00  0.00    +0.000 C 
ATOM     15  C   UNL     1      49.714   7.694  12.744  0.00  0.00    +0.000 C 
ATOM     16  C   UNL     1      50.384   9.088  12.866  0.00  0.00    +0.000 C 
BRANCH  13  17
ATOM     17  O   UNL     1      52.609   8.000  12.345  0.00  0.00    +0.000 OA
ATOM     18  H   UNL     1      52.573   8.189  13.299  0.00  0.00    +0.000 HD
ENDBRANCH  13  17
ENDBRANCH   4  15
ENDBRANCH   1   7
BRANCH   1  19
ATOM     19  C   UNL     1      43.664   4.426  11.262  0.00  0.00    +0.000 C 
BRANCH  19  20
ATOM     20  N   UNL     1      43.735   4.816   9.838  0.00  0.00    +0.000 N 
ATOM     21  H   UNL     1      43.935   5.810   9.709  0.00  0.00    +0.000 HD
BRANCH  20  22
ATOM     22  C   UNL     1      44.670   4.045   9.111  0.00  0.00    +0.000 A 
ATOM     23  N   UNL     1      45.540   4.673   8.284  0.00  0.00    +0.000 NA
ATOM     24  C   UNL     1      46.427   3.911   7.586  0.00  0.00    +0.000 A 
ATOM     25  C   UNL     1      46.515   2.535   7.696  0.00  0.00    +0.000 A 
ATOM     26  C   UNL     1      45.634   1.891   8.567  0.00  0.00    +0.000 A 
ATOM     27  C   UNL     1      44.711   2.655   9.274  0.00  0.00    +0.000 A 
ATOM     28  F   UNL     1      43.854   2.034  10.097  0.00  0.00    +0.000 F 
BRANCH  25  29
ATOM     29  C   UNL     1      47.487   1.798   6.869  0.00  0.00    +0.000 C 
ATOM     30  N   UNL     1      48.585   2.481   6.424  0.00  0.00    +0.000 N 
ATOM     31  O   UNL     1      47.308   0.622   6.584  0.00  0.00    +0.000 OA
ATOM     32  H   UNL     1      48.700   3.482   6.501  0.00  0.00    +0.000 HD
ATOM     33  H   UNL     1      49.225   1.982   5.818  0.00  0.00    +0.000 HD
ENDBRANCH  25  29
ENDBRANCH  20  22
ENDBRANCH  19  20
ENDBRANCH   1  19
TORSDOF 7
ENDMDL
MODEL 3
REMARK VINA RESULT:    -8.683      1.074      1.314
REMARK INTER + INTRA:         -12.851
REMARK INTER:                 -12.494
REMARK INTRA:                  -0.357
REMARK UNBOUND:                -0.868
REMARK  Name = 
REMARK  8 active torsions:
REMARK  status: ('A' for Active; 'I' for Inactive)
REMARK    1  A    between atoms: C_1  and  C_2
REMARK    2  A    between atoms: C_2  and  O_3
REMARK    3  A    between atoms: C_5  and  N_6
REMARK    4  A    between atoms: C_9  and  C_10
REMARK    5  A    between atoms: C_10  and  C_13
REMARK    6  A    between atoms: C_13  and  N_14
REMARK    7  A    between atoms: N_14  and  C_15
REMARK    8  A    between atoms: C_18  and  C_19
REMARK                            x       y       z     vdW  Elec       q    Type
REMARK                         _______ _______ _______ _____ _____    ______ ____
ROOT
ATOM      1  C   UNL     1      44.400   5.520  12.188  0.00  0.00    +0.000 C 
ATOM      2  F   UNL     1      43.839   4.278  12.297  0.00  0.00    +0.000 F 
ATOM      3  F   UNL     1      43.436   6.385  12.638  0.00  0.00    +0.000 F 
ENDROOT
BRANCH   1   7
ATOM      4  N   UNL     1      47.173   3.724  15.844  0.00  0.00    +0.000 N 
ATOM      5  C   UNL     1      47.016   4.715  14.842  0.00  0.00    +0.000 A 
ATOM      6  C   UNL     1      45.890   4.638  14.025  0.00  0.00    +0.000 A 
ATOM      7  C   UNL     1      45.659   5.616  13.040  0.00  0.00    +0.000 A 
ATOM      8  C   UNL     1      46.616   6.626  12.908  0.00  0.00    +0.000 A 
ATOM      9  C   UNL     1      47.713   6.626  13.752  0.00  0.00    +0.000 A 
ATOM     10  N   UNL     1      47.919   5.704  14.720  0.00  0.00    +0.000 NA
ATOM     11  H   UNL     1      47.334   2.828  15.390  0.00  0.00    +0.000 HD
BRANCH   4  15
ATOM     12  C   UNL     1      51.040   2.300  17.484  0.00  0.00    +0.000 C 
ATOM     13  C   UNL     1      49.871   3.228  17.780  0.00  0.00    +0.000 C 
ATOM     14  C   UNL     1      48.478   2.578  17.583  0.00  0.00    +0.000 C 
ATOM     15  C   UNL     1      47.996   3.930  16.999  0.00  0.00    +0.000 C 
ATOM     16  C   UNL     1      49.478   4.213  16.637  0.00  0.00    +0.000 C 
BRANCH  13  17
ATOM     17  O   UNL     1      50.081   3.850  19.068  0.00  0.00    +0.000 OA
ATOM     18  H   UNL     1      49.736   4.755  18.968  0.00  0.00    +0.000 HD
ENDBRANCH  13  17
ENDBRANCH   4  15
ENDBRANCH   1   7
BRANCH   1  19
ATOM     19  C   UNL     1      44.632   5.827  10.686  0.00  0.00    +0.000 C 
BRANCH  19  20
ATOM     20  N   UNL     1      43.911   4.958   9.734  0.00  0.00    +0.000 N 
ATOM     21  H   UNL     1      43.352   5.486   9.059  0.00  0.00    +0.000 HD
BRANCH  20  22
ATOM     22  C   UNL     1      44.772   4.074   9.046  0.00  0.00    +0.000 A 
ATOM     23  N   UNL     1      45.639   4.574   8.133  0.00  0.00    +0.000 NA
ATOM     24  C   UNL     1      46.453   3.703   7.475  0.00  0.00    +0.000 A 
ATOM     25  C   UNL     1      46.473   2.340   7.709  0.00  0.00    +0.000 A 
ATOM     26  C   UNL     1      45.597   1.828   8.668  0.00  0.00    +0.000 A 
ATOM     27  C   UNL     1      44.746   2.703   9.335  0.00  0.00    +0.000 A 
ATOM     28  F   UNL     1      43.893   2.209  10.243  0.00  0.00    +0.000 F 
BRANCH  25  29
ATOM     29  C   UNL     1      47.369   1.478   6.918  0.00  0.00    +0.000 C 
ATOM     30  N   UNL     1      48.495   2.049   6.393  0.00  0.00    +0.000 N 
ATOM     31  O   UNL     1      47.104   0.298   6.729  0.00  0.00    +0.000 OA
ATOM     32  H   UNL     1      48.678   3.042   6.389  0.00  0.00    +0.000 HD
ATOM     33  H   UNL     1      49.082   1.462   5.812  0.00  0.00    +0.000 HD
ENDBRANCH  25  29
ENDBRANCH  20  22
ENDBRANCH  19  20
ENDBRANCH   1  19
TORSDOF 7
ENDMDL
MODEL 4
REMARK VINA RESULT:    -8.342      2.331      2.959
REMARK INTER + INTRA:         -12.381
REMARK INTER:                 -11.301
REMARK INTRA:                  -1.079
REMARK UNBOUND:                -0.868
REMARK  Name = 
REMARK  8 active torsions:
REMARK  status: ('A' for Active; 'I' for Inactive)
REMARK    1  A    between atoms: C_1  and  C_2
REMARK    2  A    between atoms: C_2  and  O_3
REMARK    3  A    between atoms: C_5  and  N_6
REMARK    4  A    between atoms: C_9  and  C_10
REMARK    5  A    between atoms: C_10  and  C_13
REMARK    6  A    between atoms: C_13  and  N_14
REMARK    7  A    between atoms: N_14  and  C_15
REMARK    8  A    between atoms: C_18  and  C_19
REMARK                            x       y       z     vdW  Elec       q    Type
REMARK                         _______ _______ _______ _____ _____    ______ ____
ROOT
ATOM      1  C   UNL     1      43.714   4.226  12.320  0.00  0.00    +0.000 C 
ATOM      2  F   UNL     1      43.164   3.955  13.542  0.00  0.00    +0.000 F 
ATOM      3  F   UNL     1      42.648   4.498  11.502  0.00  0.00    +0.000 F 
ENDROOT
BRANCH   1   7
ATOM      4  N   UNL     1      47.782   6.277  14.200  0.00  0.00    +0.000 N 
ATOM      5  C   UNL     1      46.663   6.418  13.340  0.00  0.00    +0.000 A 
ATOM      6  C   UNL     1      45.802   5.329  13.214  0.00  0.00    +0.000 A 
ATOM      7  C   UNL     1      44.652   5.424  12.408  0.00  0.00    +0.000 A 
ATOM      8  C   UNL     1      44.445   6.629  11.731  0.00  0.00    +0.000 A 
ATOM      9  C   UNL     1      45.354   7.659  11.901  0.00  0.00    +0.000 A 
ATOM     10  N   UNL     1      46.441   7.580  12.702  0.00  0.00    +0.000 NA
ATOM     11  H   UNL     1      48.413   5.587  13.799  0.00  0.00    +0.000 HD
BRANCH   4  15
ATOM     12  C   UNL     1      51.809   7.330  15.732  0.00  0.00    +0.000 C 
ATOM     13  C   UNL     1      50.417   7.900  15.500  0.00  0.00    +0.000 C 
ATOM     14  C   UNL     1      49.267   7.002  16.020  0.00  0.00    +0.000 C 
ATOM     15  C   UNL     1      48.461   7.407  14.760  0.00  0.00    +0.000 C 
ATOM     16  C   UNL     1      49.824   7.688  14.074  0.00  0.00    +0.000 C 
BRANCH  13  17
ATOM     17  O   UNL     1      50.387   9.267  15.969  0.00  0.00    +0.000 OA
ATOM     18  H   UNL     1      49.450   9.526  15.929  0.00  0.00    +0.000 HD
ENDBRANCH  13  17
ENDBRANCH   4  15
ENDBRANCH   1   7
BRANCH   1  19
ATOM     19  C   UNL     1      44.390   2.937  11.786  0.00  0.00    +0.000 C 
BRANCH  19  20
ATOM     20  N   UNL     1      43.808   2.372  10.551  0.00  0.00    +0.000 N 
ATOM     21  H   UNL     1      42.903   2.785  10.313  0.00  0.00    +0.000 HD
BRANCH  20  22
ATOM     22  C   UNL     1      44.681   2.473   9.443  0.00  0.00    +0.000 A 
ATOM     23  N   UNL     1      45.458   1.413   9.117  0.00  0.00    +0.000 NA
ATOM     24  C   UNL     1      46.298   1.535   8.053  0.00  0.00    +0.000 A 
ATOM     25  C   UNL     1      46.380   2.667   7.261  0.00  0.00    +0.000 A 
ATOM     26  C   UNL     1      45.560   3.750   7.583  0.00  0.00    +0.000 A 
ATOM     27  C   UNL     1      44.710   3.646   8.679  0.00  0.00    +0.000 A 
ATOM     28  F   UNL     1      43.936   4.694   8.998  0.00  0.00    +0.000 F 
BRANCH  25  29
ATOM     29  C   UNL     1      47.348   2.712   6.151  0.00  0.00    +0.000 C 
ATOM     30  N   UNL     1      48.664   2.493   6.451  0.00  0.00    +0.000 N 
ATOM     31  O   UNL     1      46.985   2.949   5.007  0.00  0.00    +0.000 OA
ATOM     32  H   UNL     1      49.032   2.448   7.391  0.00  0.00    +0.000 HD
ATOM     33  H   UNL     1      49.330   2.572   5.691  0.00  0.00    +0.000 HD
ENDBRANCH  25  29
ENDBRANCH  20  22
ENDBRANCH  19  20
ENDBRANCH   1  19
TORSDOF 7
ENDMDL
MODEL 5
REMARK VINA RESULT:    -7.585      3.769      4.170
REMARK INTER + INTRA:         -11.335
REMARK INTER:                 -10.091
REMARK INTRA:                  -1.244
REMARK UNBOUND:                -0.868
REMARK  Name = 
REMARK  8 active torsions:
REMARK  status: ('A' for Active; 'I' for Inactive)
REMARK    1  A    between atoms: C_1  and  C_2
REMARK    2  A    between atoms: C_2  and  O_3
REMARK    3  A    between atoms: C_5  and  N_6
REMARK    4  A    between atoms: C_9  and  C_10
REMARK    5  A    between atoms: C_10  and  C_13
REMARK    6  A    between atoms: C_13  and  N_14
REMARK    7  A    between atoms: N_14  and  C_15
REMARK    8  A    between atoms: C_18  and  C_19
REMARK                            x       y       z     vdW  Elec       q    Type
REMARK                         _______ _______ _______ _____ _____    ______ ____
ROOT
ATOM      1  C   UNL     1      44.397   4.282  12.872  0.00  0.00    +0.000 C 
ATOM      2  F   UNL     1      45.222   3.771  13.835  0.00  0.00    +0.000 F 
ATOM      3  F   UNL     1      43.187   4.451  13.492  0.00  0.00    +0.000 F 
ENDROOT
BRANCH   1   7
ATOM      4  N   UNL     1      48.262   7.117  11.729  0.00  0.00    +0.000 N 
ATOM      5  C   UNL     1      46.852   6.994  11.794  0.00  0.00    +0.000 A 
ATOM      6  C   UNL     1      46.327   5.780  12.232  0.00  0.00    +0.000 A 
ATOM      7  C   UNL     1      44.935   5.612  12.357  0.00  0.00    +0.000 A 
ATOM      8  C   UNL     1      44.127   6.693  11.994  0.00  0.00    +0.000 A 
ATOM      9  C   UNL     1      44.726   7.862  11.559  0.00  0.00    +0.000 A 
ATOM     10  N   UNL     1      46.064   8.035  11.469  0.00  0.00    +0.000 NA
ATOM     11  H   UNL     1      48.608   6.494  11.003  0.00  0.00    +0.000 HD
BRANCH   4  15
ATOM     12  C   UNL     1      51.373   9.252  14.063  0.00  0.00    +0.000 C 
ATOM     13  C   UNL     1      50.426   9.411  12.882  0.00  0.00    +0.000 C 
ATOM     14  C   UNL     1      48.967   8.977  13.173  0.00  0.00    +0.000 C 
ATOM     15  C   UNL     1      48.919   8.391  11.739  0.00  0.00    +0.000 C 
ATOM     16  C   UNL     1      50.463   8.270  11.820  0.00  0.00    +0.000 C 
BRANCH  13  17
ATOM     17  O   UNL     1      50.572  10.744  12.341  0.00  0.00    +0.000 OA
ATOM     18  H   UNL     1      49.699  11.158  12.452  0.00  0.00    +0.000 HD
ENDBRANCH  13  17
ENDBRANCH   4  15
ENDBRANCH   1   7
BRANCH   1  19
ATOM     19  C   UNL     1      44.206   3.211  11.766  0.00  0.00    +0.000 C 
BRANCH  19  20
ATOM     20  N   UNL     1      43.844   3.726  10.430  0.00  0.00    +0.000 N 
ATOM     21  H   UNL     1      43.690   4.738  10.422  0.00  0.00    +0.000 HD
BRANCH  20  22
ATOM     22  C   UNL     1      44.793   3.384   9.440  0.00  0.00    +0.000 A 
ATOM     23  N   UNL     1      44.990   2.079   9.138  0.00  0.00    +0.000 NA
ATOM     24  C   UNL     1      45.915   1.771   8.188  0.00  0.00    +0.000 A 
ATOM     25  C   UNL     1      46.644   2.716   7.487  0.00  0.00    +0.000 A 
ATOM     26  C   UNL     1      46.423   4.062   7.782  0.00  0.00    +0.000 A 
ATOM     27  C   UNL     1      45.493   4.391   8.763  0.00  0.00    +0.000 A 
ATOM     28  F   UNL     1      45.293   5.684   9.057  0.00  0.00    +0.000 F 
BRANCH  25  29
ATOM     29  C   UNL     1      47.648   2.278   6.502  0.00  0.00    +0.000 C 
ATOM     30  N   UNL     1      47.759   3.001   5.347  0.00  0.00    +0.000 N 
ATOM     31  O   UNL     1      48.347   1.295   6.709  0.00  0.00    +0.000 OA
ATOM     32  H   UNL     1      47.107   3.720   5.063  0.00  0.00    +0.000 HD
ATOM     33  H   UNL     1      48.418   2.667   4.654  0.00  0.00    +0.000 HD
ENDBRANCH  25  29
ENDBRANCH  20  22
ENDBRANCH  19  20
ENDBRANCH   1  19
TORSDOF 7
ENDMDL
MODEL 6
REMARK VINA RESULT:    -7.111      2.857      3.874
REMARK INTER + INTRA:         -10.682
REMARK INTER:                 -10.057
REMARK INTRA:                  -0.624
REMARK UNBOUND:                -0.868
REMARK  Name = 
REMARK  8 active torsions:
REMARK  status: ('A' for Active; 'I' for Inactive)
REMARK    1  A    between atoms: C_1  and  C_2
REMARK    2  A    between atoms: C_2  and  O_3
REMARK    3  A    between atoms: C_5  and  N_6
REMARK    4  A    between atoms: C_9  and  C_10
REMARK    5  A    between atoms: C_10  and  C_13
REMARK    6  A    between atoms: C_13  and  N_14
REMARK    7  A    between atoms: N_14  and  C_15
REMARK    8  A    between atoms: C_18  and  C_19
REMARK                            x       y       z     vdW  Elec       q    Type
REMARK                         _______ _______ _______ _____ _____    ______ ____
ROOT
ATOM      1  C   UNL     1      45.170   6.809  11.312  0.00  0.00    +0.000 C 
ATOM      2  F   UNL     1      44.220   7.779  11.472  0.00  0.00    +0.000 F 
ATOM      3  F   UNL     1      45.780   7.102  10.120  0.00  0.00    +0.000 F 
ENDROOT
BRANCH   1   7
ATOM      4  N   UNL     1      47.839   9.450  14.503  0.00  0.00    +0.000 N 
ATOM      5  C   UNL     1      47.477   8.164  14.029  0.00  0.00    +0.000 A 
ATOM      6  C   UNL     1      46.540   8.093  13.000  0.00  0.00    +0.000 A 
ATOM      7  C   UNL     1      46.172   6.847  12.460  0.00  0.00    +0.000 A 
ATOM      8  C   UNL     1      46.760   5.710  13.021  0.00  0.00    +0.000 A 
ATOM      9  C   UNL     1      47.675   5.865  14.047  0.00  0.00    +0.000 A 
ATOM     10  N   UNL     1      48.053   7.064  14.545  0.00  0.00    +0.000 NA
ATOM     11  H   UNL     1      47.031   9.865  14.961  0.00  0.00    +0.000 HD
BRANCH   4  15
ATOM     12  C   UNL     1      51.713  11.507  13.838  0.00  0.00    +0.000 C 
ATOM     13  C   UNL     1      50.940  10.688  14.862  0.00  0.00    +0.000 C 
ATOM     14  C   UNL     1      50.287   9.405  14.288  0.00  0.00    +0.000 C 
ATOM     15  C   UNL     1      49.068   9.688  15.201  0.00  0.00    +0.000 C 
ATOM     16  C   UNL     1      49.494  11.180  15.175  0.00  0.00    +0.000 C 
BRANCH  13  17
ATOM     17  O   UNL     1      51.773  10.485  16.025  0.00  0.00    +0.000 OA
ATOM     18  H   UNL     1      52.507   9.926  15.714  0.00  0.00    +0.000 HD
ENDBRANCH  13  17
ENDBRANCH   4  15
ENDBRANCH   1   7
BRANCH   1  19
ATOM     19  C   UNL     1      44.458   5.442  11.145  0.00  0.00    +0.000 C 
BRANCH  19  20
ATOM     20  N   UNL     1      43.998   5.121   9.779  0.00  0.00    +0.000 N 
ATOM     21  H   UNL     1      43.987   5.936   9.161  0.00  0.00    +0.000 HD
BRANCH  20  22
ATOM     22  C   UNL     1      44.750   4.084   9.182  0.00  0.00    +0.000 A 
ATOM     23  N   UNL     1      45.719   4.402   8.290  0.00  0.00    +0.000 NA
ATOM     24  C   UNL     1      46.426   3.388   7.721  0.00  0.00    +0.000 A 
ATOM     25  C   UNL     1      46.238   2.051   8.024  0.00  0.00    +0.000 A 
ATOM     26  C   UNL     1      45.255   1.726   8.961  0.00  0.00    +0.000 A 
ATOM     27  C   UNL     1      44.513   2.750   9.538  0.00  0.00    +0.000 A 
ATOM     28  F   UNL     1      43.558   2.436  10.426  0.00  0.00    +0.000 F 
BRANCH  25  29
ATOM     29  C   UNL     1      47.032   1.025   7.325  0.00  0.00    +0.000 C 
ATOM     30  N   UNL     1      46.767  -0.285   7.611  0.00  0.00    +0.000 N 
ATOM     31  O   UNL     1      47.905   1.340   6.527  0.00  0.00    +0.000 OA
ATOM     32  H   UNL     1      46.170  -0.590   8.368  0.00  0.00    +0.000 HD
ATOM     33  H   UNL     1      47.348  -0.983   7.162  0.00  0.00    +0.000 HD
ENDBRANCH  25  29
ENDBRANCH  20  22
ENDBRANCH  19  20
ENDBRANCH   1  19
TORSDOF 7
ENDMDL
MODEL 7
REMARK VINA RESULT:    -7.099      3.270      8.571
REMARK INTER + INTRA:         -10.665
REMARK INTER:                  -9.881
REMARK INTRA:                  -0.785
REMARK UNBOUND:                -0.868
REMARK  Name = 
REMARK  8 active torsions:
REMARK  status: ('A' for Active; 'I' for Inactive)
REMARK    1  A    between atoms: C_1  and  C_2
REMARK    2  A    between atoms: C_2  and  O_3
REMARK    3  A    between atoms: C_5  and  N_6
REMARK    4  A    between atoms: C_9  and  C_10
REMARK    5  A    between atoms: C_10  and  C_13
REMARK    6  A    between atoms: C_13  and  N_14
REMARK    7  A    between atoms: N_14  and  C_15
REMARK    8  A    between atoms: C_18  and  C_19
REMARK                            x       y       z     vdW  Elec       q    Type
REMARK                         _______ _______ _______ _____ _____    ______ ____
ROOT
ATOM      1  C   UNL     1      49.120   7.810  14.729  0.00  0.00    +0.000 C 
ATOM      2  F   UNL     1      50.045   6.970  14.172  0.00  0.00    +0.000 F 
ATOM      3  F   UNL     1      49.670   9.061  14.628  0.00  0.00    +0.000 F 
ENDROOT
BRANCH   1   7
ATOM      4  N   UNL     1      45.885   5.140  12.143  0.00  0.00    +0.000 N 
ATOM      5  C   UNL     1      46.214   6.400  12.703  0.00  0.00    +0.000 A 
ATOM      6  C   UNL     1      47.400   6.497  13.428  0.00  0.00    +0.000 A 
ATOM      7  C   UNL     1      47.800   7.732  13.972  0.00  0.00    +0.000 A 
ATOM      8  C   UNL     1      46.946   8.821  13.778  0.00  0.00    +0.000 A 
ATOM      9  C   UNL     1      45.781   8.639  13.055  0.00  0.00    +0.000 A 
ATOM     10  N   UNL     1      45.412   7.461  12.504  0.00  0.00    +0.000 NA
ATOM     11  H   UNL     1      45.692   4.490  12.902  0.00  0.00    +0.000 HD
BRANCH   4  15
ATOM     12  C   UNL     1      45.759   3.249   8.133  0.00  0.00    +0.000 C 
ATOM     13  C   UNL     1      44.935   4.087   9.100  0.00  0.00    +0.000 C 
ATOM     14  C   UNL     1      45.694   5.298   9.698  0.00  0.00    +0.000 C 
ATOM     15  C   UNL     1      44.979   5.007  11.041  0.00  0.00    +0.000 C 
ATOM     16  C   UNL     1      44.833   3.541  10.557  0.00  0.00    +0.000 C 
BRANCH  13  17
ATOM     17  O   UNL     1      43.666   4.402   8.483  0.00  0.00    +0.000 OA
ATOM     18  H   UNL     1      43.102   3.629   8.659  0.00  0.00    +0.000 HD
ENDBRANCH  13  17
ENDBRANCH   4  15
ENDBRANCH   1   7
BRANCH   1  19
ATOM     19  C   UNL     1      48.999   7.478  16.239  0.00  0.00    +0.000 C 
BRANCH  19  20
ATOM     20  N   UNL     1      48.263   6.239  16.567  0.00  0.00    +0.000 N 
ATOM     21  H   UNL     1      47.609   5.960  15.832  0.00  0.00    +0.000 HD
BRANCH  20  22
ATOM     22  C   UNL     1      49.124   5.160  16.871  0.00  0.00    +0.000 A 
ATOM     23  N   UNL     1      50.439   5.405  17.080  0.00  0.00    +0.000 NA
ATOM     24  C   UNL     1      51.252   4.350  17.363  0.00  0.00    +0.000 A 
ATOM     25  C   UNL     1      50.808   3.045  17.483  0.00  0.00    +0.000 A 
ATOM     26  C   UNL     1      49.448   2.797  17.291  0.00  0.00    +0.000 A 
ATOM     27  C   UNL     1      48.609   3.863  16.984  0.00  0.00    +0.000 A 
ATOM     28  F   UNL     1      47.305   3.621  16.783  0.00  0.00    +0.000 F 
BRANCH  25  29
ATOM     29  C   UNL     1      51.776   1.968  17.758  0.00  0.00    +0.000 C 
ATOM     30  N   UNL     1      51.304   0.685  17.788  0.00  0.00    +0.000 N 
ATOM     31  O   UNL     1      52.956   2.219  17.963  0.00  0.00    +0.000 OA
ATOM     32  H   UNL     1      50.323   0.442  17.779  0.00  0.00    +0.000 HD
ATOM     33  H   UNL     1      51.965  -0.045  18.023  0.00  0.00    +0.000 HD
ENDBRANCH  25  29
ENDBRANCH  20  22
ENDBRANCH  19  20
ENDBRANCH   1  19
TORSDOF 7
ENDMDL
MODEL 8
REMARK VINA RESULT:    -6.949      1.986      2.361
REMARK INTER + INTRA:         -10.458
REMARK INTER:                 -10.745
REMARK INTRA:                   0.287
REMARK UNBOUND:                -0.868
REMARK  Name = 
REMARK  8 active torsions:
REMARK  status: ('A' for Active; 'I' for Inactive)
REMARK    1  A    between atoms: C_1  and  C_2
REMARK    2  A    between atoms: C_2  and  O_3
REMARK    3  A    between atoms: C_5  and  N_6
REMARK    4  A    between atoms: C_9  and  C_10
REMARK    5  A    between atoms: C_10  and  C_13
REMARK    6  A    between atoms: C_13  and  N_14
REMARK    7  A    between atoms: N_14  and  C_15
REMARK    8  A    between atoms: C_18  and  C_19
REMARK                            x       y       z     vdW  Elec       q    Type
REMARK                         _______ _______ _______ _____ _____    ______ ____
ROOT
ATOM      1  C   UNL     1      45.833   5.583  11.205  0.00  0.00    +0.000 C 
ATOM      2  F   UNL     1      46.389   5.783   9.972  0.00  0.00    +0.000 F 
ATOM      3  F   UNL     1      46.317   4.370  11.621  0.00  0.00    +0.000 F 
ENDROOT
BRANCH   1   7
ATOM      4  N   UNL     1      48.945   7.251  14.643  0.00  0.00    +0.000 N 
ATOM      5  C   UNL     1      47.793   7.501  13.855  0.00  0.00    +0.000 A 
ATOM      6  C   UNL     1      47.405   6.519  12.945  0.00  0.00    +0.000 A 
ATOM      7  C   UNL     1      46.247   6.692  12.165  0.00  0.00    +0.000 A 
ATOM      8  C   UNL     1      45.543   7.889  12.326  0.00  0.00    +0.000 A 
ATOM      9  C   UNL     1      46.000   8.818  13.244  0.00  0.00    +0.000 A 
ATOM     10  N   UNL     1      47.095   8.638  14.017  0.00  0.00    +0.000 NA
ATOM     11  H   UNL     1      49.758   7.235  14.031  0.00  0.00    +0.000 HD
BRANCH   4  15
ATOM     12  C   UNL     1      50.640   6.388  18.651  0.00  0.00    +0.000 C 
ATOM     13  C   UNL     1      50.007   7.494  17.819  0.00  0.00    +0.000 C 
ATOM     14  C   UNL     1      48.709   7.074  17.083  0.00  0.00    +0.000 C 
ATOM     15  C   UNL     1      49.184   7.930  15.882  0.00  0.00    +0.000 C 
ATOM     16  C   UNL     1      50.629   7.727  16.409  0.00  0.00    +0.000 C 
BRANCH  13  17
ATOM     17  O   UNL     1      49.892   8.684  18.632  0.00  0.00    +0.000 OA
ATOM     18  H   UNL     1      49.701   8.358  19.529  0.00  0.00    +0.000 HD
ENDBRANCH  13  17
ENDBRANCH   4  15
ENDBRANCH   1   7
BRANCH   1  19
ATOM     19  C   UNL     1      44.299   5.438  11.038  0.00  0.00    +0.000 C 
BRANCH  19  20
ATOM     20  N   UNL     1      43.834   5.049   9.690  0.00  0.00    +0.000 N 
ATOM     21  H   UNL     1      43.785   5.841   9.044  0.00  0.00    +0.000 HD
BRANCH  20  22
ATOM     22  C   UNL     1      44.619   4.021   9.120  0.00  0.00    +0.000 A 
ATOM     23  N   UNL     1      45.484   4.327   8.124  0.00  0.00    +0.000 NA
ATOM     24  C   UNL     1      46.223   3.320   7.584  0.00  0.00    +0.000 A 
ATOM     25  C   UNL     1      46.170   2.006   8.015  0.00  0.00    +0.000 A 
ATOM     26  C   UNL     1      45.295   1.697   9.059  0.00  0.00    +0.000 A 
ATOM     27  C   UNL     1      44.520   2.712   9.609  0.00  0.00    +0.000 A 
ATOM     28  F   UNL     1      43.669   2.410  10.600  0.00  0.00    +0.000 F 
BRANCH  25  29
ATOM     29  C   UNL     1      46.986   0.983   7.339  0.00  0.00    +0.000 C 
ATOM     30  N   UNL     1      46.740  -0.327   7.646  0.00  0.00    +0.000 N 
ATOM     31  O   UNL     1      47.860   1.298   6.544  0.00  0.00    +0.000 OA
ATOM     32  H   UNL     1      46.143  -0.630   8.403  0.00  0.00    +0.000 HD
ATOM     33  H   UNL     1      47.336  -1.022   7.213  0.00  0.00    +0.000 HD
ENDBRANCH  25  29
ENDBRANCH  20  22
ENDBRANCH  19  20
ENDBRANCH   1  19
TORSDOF 7
ENDMDL
MODEL 9
REMARK VINA RESULT:    -6.862      4.146      6.028
REMARK INTER + INTRA:         -10.338
REMARK INTER:                  -9.677
REMARK INTRA:                  -0.661
REMARK UNBOUND:                -0.868
REMARK  Name = 
REMARK  8 active torsions:
REMARK  status: ('A' for Active; 'I' for Inactive)
REMARK    1  A    between atoms: C_1  and  C_2
REMARK    2  A    between atoms: C_2  and  O_3
REMARK    3  A    between atoms: C_5  and  N_6
REMARK    4  A    between atoms: C_9  and  C_10
REMARK    5  A    between atoms: C_10  and  C_13
REMARK    6  A    between atoms: C_13  and  N_14
REMARK    7  A    between atoms: N_14  and  C_15
REMARK    8  A    between atoms: C_18  and  C_19
REMARK                            x       y       z     vdW  Elec       q    Type
REMARK                         _______ _______ _______ _____ _____    ______ ____
ROOT
ATOM      1  C   UNL     1      47.550   3.607  17.058  0.00  0.00    +0.000 C 
ATOM      2  F   UNL     1      46.980   2.499  17.620  0.00  0.00    +0.000 F 
ATOM      3  F   UNL     1      46.962   4.671  17.693  0.00  0.00    +0.000 F 
ENDROOT
BRANCH   1   7
ATOM      4  N   UNL     1      51.777   1.089  17.327  0.00  0.00    +0.000 N 
ATOM      5  C   UNL     1      51.133   2.350  17.404  0.00  0.00    +0.000 A 
ATOM      6  C   UNL     1      49.759   2.390  17.176  0.00  0.00    +0.000 A 
ATOM      7  C   UNL     1      49.058   3.606  17.280  0.00  0.00    +0.000 A 
ATOM      8  C   UNL     1      49.803   4.748  17.585  0.00  0.00    +0.000 A 
ATOM      9  C   UNL     1      51.166   4.625  17.788  0.00  0.00    +0.000 A 
ATOM     10  N   UNL     1      51.835   3.452  17.719  0.00  0.00    +0.000 NA
ATOM     11  H   UNL     1      51.740   0.766  16.362  0.00  0.00    +0.000 HD
BRANCH   4  15
ATOM     12  C   UNL     1      55.164  -1.757  17.004  0.00  0.00    +0.000 C 
ATOM     13  C   UNL     1      54.668  -0.553  17.791  0.00  0.00    +0.000 C 
ATOM     14  C   UNL     1      53.203  -0.671  18.280  0.00  0.00    +0.000 C 
ATOM     15  C   UNL     1      53.037   0.836  17.960  0.00  0.00    +0.000 C 
ATOM     16  C   UNL     1      54.197   0.668  16.944  0.00  0.00    +0.000 C 
BRANCH  13  17
ATOM     17  O   UNL     1      55.634  -0.236  18.820  0.00  0.00    +0.000 OA
ATOM     18  H   UNL     1      55.466   0.696  19.044  0.00  0.00    +0.000 HD
ENDBRANCH  13  17
ENDBRANCH   4  15
ENDBRANCH   1   7
BRANCH   1  19
ATOM     19  C   UNL     1      47.135   3.673  15.565  0.00  0.00    +0.000 C 
BRANCH  19  20
ATOM     20  N   UNL     1      46.824   5.019  15.044  0.00  0.00    +0.000 N 
ATOM     21  H   UNL     1      47.605   5.673  15.141  0.00  0.00    +0.000 HD
BRANCH  20  22
ATOM     22  C   UNL     1      46.392   4.994  13.698  0.00  0.00    +0.000 A 
ATOM     23  N   UNL     1      45.679   3.932  13.254  0.00  0.00    +0.000 NA
ATOM     24  C   UNL     1      45.281   3.924  11.952  0.00  0.00    +0.000 A 
ATOM     25  C   UNL     1      45.531   4.955  11.063  0.00  0.00    +0.000 A 
ATOM     26  C   UNL     1      46.244   6.060  11.529  0.00  0.00    +0.000 A 
ATOM     27  C   UNL     1      46.674   6.074  12.851  0.00  0.00    +0.000 A 
ATOM     28  F   UNL     1      47.373   7.130  13.293  0.00  0.00    +0.000 F 
BRANCH  25  29
ATOM     29  C   UNL     1      45.086   4.833   9.664  0.00  0.00    +0.000 C 
ATOM     30  N   UNL     1      43.779   4.499   9.442  0.00  0.00    +0.000 N 
ATOM     31  O   UNL     1      45.865   5.013   8.737  0.00  0.00    +0.000 OA
ATOM     32  H   UNL     1      43.142   4.192  10.164  0.00  0.00    +0.000 HD
ATOM     33  H   UNL     1      43.492   4.372   8.479  0.00  0.00    +0.000 HD
ENDBRANCH  25  29
ENDBRANCH  20  22
ENDBRANCH  19  20
ENDBRANCH   1  19
TORSDOF 7
ENDMDL
