MODEL 1
REMARK VINA RESULT:    -9.266      0.000      0.000
REMARK INTER + INTRA:         -12.791
REMARK INTER:                 -11.975
REMARK INTRA:                  -0.816
REMARK UNBOUND:                -0.816
REMARK  Name = 
REMARK  5 active torsions:
REMARK  status: ('A' for Active; 'I' for Inactive)
REMARK    1  A    between atoms: C_2  and  C_4
REMARK    2  A    between atoms: C_7  and  O_8
REMARK    3  A    between atoms: O_8  and  C_9
REMARK    4  A    between atoms: C_9  and  C_10
REMARK    5  A    between atoms: C_14  and  C_15
REMARK                            x       y       z     vdW  Elec       q    Type
REMARK                         _______ _______ _______ _____ _____    ______ ____
ROOT
ATOM      1  C   UNL     1      44.020   4.846  11.445  0.00  0.00    +0.000 C 
ATOM      2  C   UNL     1      42.735   4.912  12.258  0.00  0.00    +0.000 C 
ATOM      3  C   UNL     1      43.008   5.954  11.232  0.00  0.00    +0.000 C 
ENDROOT
BRANCH   1   4
ATOM      4  C   UNL     1      45.356   5.168  12.091  0.00  0.00    +0.000 A 
ATOM      5  C   UNL     1      46.124   6.262  11.670  0.00  0.00    +0.000 A 
ATOM      6  C   UNL     1      47.265   6.655  12.370  0.00  0.00    +0.000 A 
ATOM      7  C   UNL     1      47.657   5.964  13.519  0.00  0.00    +0.000 A 
ATOM      8  C   UNL     1      46.939   4.847  13.976  0.00  0.00    +0.000 A 
ATOM      9  C   UNL     1      45.817   4.455  13.217  0.00  0.00    +0.000 A 
BRANCH   8  10
ATOM     10  C   UNL     1      47.290   4.153  15.233  0.00  0.00    +0.000 A 
ATOM     11  N   UNL     1      47.865   2.935  15.143  0.00  0.00    +0.000 NA
ATOM     12  C   UNL     1      48.263   2.370  16.297  0.00  0.00    +0.000 A 
ATOM     13  C   UNL     1      48.105   2.959  17.528  0.00  0.00    +0.000 A 
ATOM     14  C   UNL     1      47.499   4.192  17.518  0.00  0.00    +0.000 A 
ATOM     15  N   UNL     1      47.091   4.812  16.395  0.00  0.00    +0.000 NA
ENDBRANCH   8  10
ENDBRANCH   1   4
BRANCH   1  16
ATOM     16  O   UNL     1      43.986   3.661  10.623  0.00  0.00    +0.000 OA
BRANCH  16  20
ATOM     17  C   UNL     1      46.470   2.719   7.491  0.00  0.00    +0.000 A 
ATOM     18  C   UNL     1      46.134   4.062   7.653  0.00  0.00    +0.000 A 
ATOM     19  C   UNL     1      45.318   4.443   8.724  0.00  0.00    +0.000 A 
ATOM     20  C   UNL     1      44.861   3.467   9.597  0.00  0.00    +0.000 A 
ATOM     21  N   UNL     1      45.200   2.165   9.464  0.00  0.00    +0.000 NA
ATOM     22  C   UNL     1      45.982   1.814   8.418  0.00  0.00    +0.000 A 
BRANCH  17  24
ATOM     23  N   UNL     1      47.348   2.979   5.237  0.00  0.00    +0.000 N 
ATOM     24  C   UNL     1      47.264   2.201   6.357  0.00  0.00    +0.000 C 
ATOM     25  O   UNL     1      47.859   1.133   6.427  0.00  0.00    +0.000 OA
ATOM     26  H   UNL     1      47.971   2.649   4.514  0.00  0.00    +0.000 HD
ATOM     27  H   UNL     1      47.093   3.956   5.230  0.00  0.00    +0.000 HD
ENDBRANCH  17  24
ENDBRANCH  16  20
ENDBRANCH   1  16
TORSDOF 5
ENDMDL
MODEL 2
REMARK VINA RESULT:    -8.760      1.968      3.227
REMARK INTER + INTRA:         -12.137
REMARK INTER:                 -11.055
REMARK INTRA:                  -1.082
REMARK UNBOUND:                -0.816
REMARK  Name = 
REMARK  5 active torsions:
REMARK  status: ('A' for Active; 'I' for Inactive)
REMARK    1  A    between atoms: C_2  and  C_4
REMARK    2  A    between atoms: C_7  and  O_8
REMARK    3  A    between atoms: O_8  and  C_9
REMARK    4  A    between atoms: C_9  and  C_10
REMARK    5  A    between atoms: C_14  and  C_15
REMARK                            x       y       z     vdW  Elec       q    Type
REMARK                         _______ _______ _______ _____ _____    ______ ____
ROOT
ATOM      1  C   UNL     1      43.726   5.072  11.264  0.00  0.00    +0.000 C 
ATOM      2  C   UNL     1      42.363   5.397  11.858  0.00  0.00    +0.000 C 
ATOM      3  C   UNL     1      43.072   6.421  11.044  0.00  0.00    +0.000 C 
ENDROOT
BRANCH   1   4
ATOM      4  C   UNL     1      44.949   4.970  12.157  0.00  0.00    +0.000 A 
ATOM      5  C   UNL     1      45.254   3.787  12.844  0.00  0.00    +0.000 A 
ATOM      6  C   UNL     1      46.460   3.639  13.529  0.00  0.00    +0.000 A 
ATOM      7  C   UNL     1      47.397   4.675  13.532  0.00  0.00    +0.000 A 
ATOM      8  C   UNL     1      47.139   5.892  12.879  0.00  0.00    +0.000 A 
ATOM      9  C   UNL     1      45.891   6.018  12.235  0.00  0.00    +0.000 A 
BRANCH   8  10
ATOM     10  C   UNL     1      48.148   6.969  12.803  0.00  0.00    +0.000 A 
ATOM     11  N   UNL     1      49.218   6.891  13.621  0.00  0.00    +0.000 NA
ATOM     12  C   UNL     1      50.169   7.830  13.462  0.00  0.00    +0.000 A 
ATOM     13  C   UNL     1      50.093   8.840  12.533  0.00  0.00    +0.000 A 
ATOM     14  C   UNL     1      48.961   8.842  11.756  0.00  0.00    +0.000 A 
ATOM     15  N   UNL     1      47.983   7.922  11.861  0.00  0.00    +0.000 NA
ENDBRANCH   8  10
ENDBRANCH   1   4
BRANCH   1  16
ATOM     16  O   UNL     1      43.567   4.018  10.291  0.00  0.00    +0.000 OA
BRANCH  16  20
ATOM     17  C   UNL     1      46.443   2.505   7.782  0.00  0.00    +0.000 A 
ATOM     18  C   UNL     1      46.267   3.888   7.784  0.00  0.00    +0.000 A 
ATOM     19  C   UNL     1      45.323   4.460   8.645  0.00  0.00    +0.000 A 
ATOM     20  C   UNL     1      44.584   3.629   9.474  0.00  0.00    +0.000 A 
ATOM     21  N   UNL     1      44.763   2.290   9.497  0.00  0.00    +0.000 NA
ATOM     22  C   UNL     1      45.673   1.754   8.652  0.00  0.00    +0.000 A 
BRANCH  17  24
ATOM     23  N   UNL     1      48.442   2.484   6.393  0.00  0.00    +0.000 N 
ATOM     24  C   UNL     1      47.358   1.796   6.863  0.00  0.00    +0.000 C 
ATOM     25  O   UNL     1      47.180   0.622   6.562  0.00  0.00    +0.000 OA
ATOM     26  H   UNL     1      49.101   1.950   5.844  0.00  0.00    +0.000 HD
ATOM     27  H   UNL     1      48.761   3.348   6.806  0.00  0.00    +0.000 HD
ENDBRANCH  17  24
ENDBRANCH  16  20
ENDBRANCH   1  16
TORSDOF 5
ENDMDL
MODEL 3
REMARK VINA RESULT:    -7.603      2.465      3.153
REMARK INTER + INTRA:         -10.641
REMARK INTER:                 -10.442
REMARK INTRA:                  -0.198
REMARK UNBOUND:                -0.816
REMARK  Name = 
REMARK  5 active torsions:
REMARK  status: ('A' for Active; 'I' for Inactive)
REMARK    1  A    between atoms: C_2  and  C_4
REMARK    2  A    between atoms: C_7  and  O_8
REMARK    3  A    between atoms: O_8  and  C_9
REMARK    4  A    between atoms: C_9  and  C_10
REMARK    5  A    between atoms: C_14  and  C_15
REMARK                            x       y       z     vdW  Elec       q    Type
REMARK                         _______ _______ _______ _____ _____    ______ ____
ROOT
ATOM      1  C   UNL     1      44.196   4.320  11.585  0.00  0.00    +0.000 C 
ATOM      2  C   UNL     1      44.785   3.247  12.489  0.00  0.00    +0.000 C 
ATOM      3  C   UNL     1      43.462   3.842  12.821  0.00  0.00    +0.000 C 
ENDROOT
BRANCH   1   4
ATOM      4  C   UNL     1      44.791   5.717  11.562  0.00  0.00    +0.000 A 
ATOM      5  C   UNL     1      43.995   6.844  11.316  0.00  0.00    +0.000 A 
ATOM      6  C   UNL     1      44.505   8.135  11.459  0.00  0.00    +0.000 A 
ATOM      7  C   UNL     1      45.828   8.325  11.866  0.00  0.00    +0.000 A 
ATOM      8  C   UNL     1      46.679   7.234  12.106  0.00  0.00    +0.000 A 
ATOM      9  C   UNL     1      46.139   5.947  11.909  0.00  0.00    +0.000 A 
BRANCH   8  10
ATOM     10  C   UNL     1      48.056   7.414  12.614  0.00  0.00    +0.000 A 
ATOM     11  N   UNL     1      49.004   7.810  11.740  0.00  0.00    +0.000 NA
ATOM     12  C   UNL     1      50.225   8.060  12.249  0.00  0.00    +0.000 A 
ATOM     13  C   UNL     1      50.538   7.924  13.580  0.00  0.00    +0.000 A 
ATOM     14  C   UNL     1      49.509   7.505  14.387  0.00  0.00    +0.000 A 
ATOM     15  N   UNL     1      48.266   7.251  13.938  0.00  0.00    +0.000 NA
ENDBRANCH   8  10
ENDBRANCH   1   4
BRANCH   1  16
ATOM     16  O   UNL     1      43.914   3.735  10.297  0.00  0.00    +0.000 OA
BRANCH  16  20
ATOM     17  C   UNL     1      46.690   2.746   7.438  0.00  0.00    +0.000 A 
ATOM     18  C   UNL     1      46.382   4.097   7.582  0.00  0.00    +0.000 A 
ATOM     19  C   UNL     1      45.467   4.494   8.564  0.00  0.00    +0.000 A 
ATOM     20  C   UNL     1      44.887   3.523   9.369  0.00  0.00    +0.000 A 
ATOM     21  N   UNL     1      45.197   2.213   9.254  0.00  0.00    +0.000 NA
ATOM     22  C   UNL     1      46.076   1.848   8.293  0.00  0.00    +0.000 A 
BRANCH  17  24
ATOM     23  N   UNL     1      47.824   3.008   5.301  0.00  0.00    +0.000 N 
ATOM     24  C   UNL     1      47.585   2.215   6.388  0.00  0.00    +0.000 C 
ATOM     25  O   UNL     1      48.126   1.122   6.500  0.00  0.00    +0.000 OA
ATOM     26  H   UNL     1      48.511   2.664   4.645  0.00  0.00    +0.000 HD
ATOM     27  H   UNL     1      47.611   3.995   5.287  0.00  0.00    +0.000 HD
ENDBRANCH  17  24
ENDBRANCH  16  20
ENDBRANCH   1  16
TORSDOF 5
ENDMDL
MODEL 4
REMARK VINA RESULT:    -7.582      2.603      7.659
REMARK INTER + INTRA:         -10.614
REMARK INTER:                  -9.737
REMARK INTRA:                  -0.877
REMARK UNBOUND:                -0.816
REMARK  Name = 
REMARK  5 active torsions:
REMARK  status: ('A' for Active; 'I' for Inactive)
REMARK    1  A    between atoms: C_2  and  C_4
REMARK    2  A    between atoms: C_7  and  O_8
REMARK    3  A    between atoms: O_8  and  C_9
REMARK    4  A    between atoms: C_9  and  C_10
REMARK    5  A    between atoms: C_14  and  C_15
REMARK                            x       y       z     vdW  Elec       q    Type
REMARK                         _______ _______ _______ _____ _____    ______ ____
ROOT
ATOM      1  C   UNL     1      46.460   7.284  12.578  0.00  0.00    +0.000 C 
ATOM      2  C   UNL     1      46.797   8.645  11.984  0.00  0.00    +0.000 C 
ATOM      3  C   UNL     1      45.985   8.568  13.229  0.00  0.00    +0.000 C 
ENDROOT
BRANCH   1   4
ATOM      4  C   UNL     1      45.454   6.375  11.895  0.00  0.00    +0.000 A 
ATOM      5  C   UNL     1      44.075   6.548  12.076  0.00  0.00    +0.000 A 
ATOM      6  C   UNL     1      43.151   5.824  11.323  0.00  0.00    +0.000 A 
ATOM      7  C   UNL     1      43.591   4.915  10.357  0.00  0.00    +0.000 A 
ATOM      8  C   UNL     1      44.959   4.685  10.145  0.00  0.00    +0.000 A 
ATOM      9  C   UNL     1      45.861   5.404  10.957  0.00  0.00    +0.000 A 
BRANCH   8  10
ATOM     10  C   UNL     1      45.445   3.788   9.075  0.00  0.00    +0.000 A 
ATOM     11  N   UNL     1      46.000   4.352   7.982  0.00  0.00    +0.000 NA
ATOM     12  C   UNL     1      46.521   3.512   7.069  0.00  0.00    +0.000 A 
ATOM     13  C   UNL     1      46.505   2.144   7.197  0.00  0.00    +0.000 A 
ATOM     14  C   UNL     1      45.909   1.665   8.337  0.00  0.00    +0.000 A 
ATOM     15  N   UNL     1      45.381   2.457   9.290  0.00  0.00    +0.000 NA
ENDBRANCH   8  10
ENDBRANCH   1   4
BRANCH   1  16
ATOM     16  O   UNL     1      47.682   6.656  13.015  0.00  0.00    +0.000 OA
BRANCH  16  20
ATOM     17  C   UNL     1      47.932   4.696  16.615  0.00  0.00    +0.000 A 
ATOM     18  C   UNL     1      47.105   4.135  15.643  0.00  0.00    +0.000 A 
ATOM     19  C   UNL     1      47.009   4.744  14.386  0.00  0.00    +0.000 A 
ATOM     20  C   UNL     1      47.742   5.896  14.143  0.00  0.00    +0.000 A 
ATOM     21  N   UNL     1      48.565   6.435  15.070  0.00  0.00    +0.000 NA
ATOM     22  C   UNL     1      48.638   5.838  16.282  0.00  0.00    +0.000 A 
BRANCH  17  24
ATOM     23  N   UNL     1      47.465   2.971  18.266  0.00  0.00    +0.000 N 
ATOM     24  C   UNL     1      48.049   4.176  17.993  0.00  0.00    +0.000 C 
ATOM     25  O   UNL     1      48.678   4.778  18.853  0.00  0.00    +0.000 OA
ATOM     26  H   UNL     1      47.639   2.592  19.187  0.00  0.00    +0.000 HD
ATOM     27  H   UNL     1      47.164   2.333  17.543  0.00  0.00    +0.000 HD
ENDBRANCH  17  24
ENDBRANCH  16  20
ENDBRANCH   1  16
TORSDOF 5
ENDMDL
MODEL 5
REMARK VINA RESULT:    -7.069      2.701      7.558
REMARK INTER + INTRA:          -9.951
REMARK INTER:                  -9.359
REMARK INTRA:                  -0.592
REMARK UNBOUND:                -0.816
REMARK  Name = 
REMARK  5 active torsions:
REMARK  status: ('A' for Active; 'I' for Inactive)
REMARK    1  A    between atoms: C_2  and  C_4
REMARK    2  A    between atoms: C_7  and  O_8
REMARK    3  A    between atoms: O_8  and  C_9
REMARK    4  A    between atoms: C_9  and  C_10
REMARK    5  A    between atoms: C_14  and  C_15
REMARK                            x       y       z     vdW  Elec       q    Type
REMARK                         _______ _______ _______ _____ _____    ______ ____
ROOT
ATOM      1  C   UNL     1      47.670   7.789  12.656  0.00  0.00    +0.000 C 
ATOM      2  C   UNL     1      48.453   8.789  11.818  0.00  0.00    +0.000 C 
ATOM      3  C   UNL     1      47.696   9.262  13.009  0.00  0.00    +0.000 C 
ENDROOT
BRANCH   1   4
ATOM      4  C   UNL     1      46.391   7.171  12.119  0.00  0.00    +0.000 A 
ATOM      5  C   UNL     1      45.141   7.758  12.361  0.00  0.00    +0.000 A 
ATOM      6  C   UNL     1      43.988   7.287  11.732  0.00  0.00    +0.000 A 
ATOM      7  C   UNL     1      44.065   6.220  10.834  0.00  0.00    +0.000 A 
ATOM      8  C   UNL     1      45.286   5.579  10.568  0.00  0.00    +0.000 A 
ATOM      9  C   UNL     1      46.421   6.056  11.256  0.00  0.00    +0.000 A 
BRANCH   8  10
ATOM     10  C   UNL     1      45.401   4.502   9.562  0.00  0.00    +0.000 A 
ATOM     11  N   UNL     1      45.979   4.801   8.380  0.00  0.00    +0.000 NA
ATOM     12  C   UNL     1      46.160   3.780   7.522  0.00  0.00    +0.000 A 
ATOM     13  C   UNL     1      45.783   2.486   7.788  0.00  0.00    +0.000 A 
ATOM     14  C   UNL     1      45.193   2.284   9.012  0.00  0.00    +0.000 A 
ATOM     15  N   UNL     1      44.997   3.263   9.915  0.00  0.00    +0.000 NA
ENDBRANCH   8  10
ENDBRANCH   1   4
BRANCH   1  16
ATOM     16  O   UNL     1      48.600   6.875  13.274  0.00  0.00    +0.000 OA
BRANCH  16  20
ATOM     17  C   UNL     1      47.712   4.573  16.556  0.00  0.00    +0.000 A 
ATOM     18  C   UNL     1      48.463   5.726  16.775  0.00  0.00    +0.000 A 
ATOM     19  C   UNL     1      48.767   6.565  15.696  0.00  0.00    +0.000 A 
ATOM     20  C   UNL     1      48.309   6.221  14.432  0.00  0.00    +0.000 A 
ATOM     21  N   UNL     1      47.559   5.118  14.213  0.00  0.00    +0.000 NA
ATOM     22  C   UNL     1      47.285   4.314  15.266  0.00  0.00    +0.000 A 
BRANCH  17  24
ATOM     23  N   UNL     1      48.131   3.636  18.763  0.00  0.00    +0.000 N 
ATOM     24  C   UNL     1      47.399   3.585  17.610  0.00  0.00    +0.000 C 
ATOM     25  O   UNL     1      46.492   2.773  17.477  0.00  0.00    +0.000 OA
ATOM     26  H   UNL     1      47.837   3.014  19.502  0.00  0.00    +0.000 HD
ATOM     27  H   UNL     1      48.701   4.431  19.013  0.00  0.00    +0.000 HD
ENDBRANCH  17  24
ENDBRANCH  16  20
ENDBRANCH   1  16
TORSDOF 5
ENDMDL
MODEL 6
REMARK VINA RESULT:    -6.879      3.138      8.031
REMARK INTER + INTRA:          -9.706
REMARK INTER:                  -8.764
REMARK INTRA:                  -0.942
REMARK UNBOUND:                -0.816
REMARK  Name = 
REMARK  5 active torsions:
REMARK  status: ('A' for Active; 'I' for Inactive)
REMARK    1  A    between atoms: C_2  and  C_4
REMARK    2  A    between atoms: C_7  and  O_8
REMARK    3  A    between atoms: O_8  and  C_9
REMARK    4  A    between atoms: C_9  and  C_10
REMARK    5  A    between atoms: C_14  and  C_15
REMARK                            x       y       z     vdW  Elec       q    Type
REMARK                         _______ _______ _______ _____ _____    ______ ____
ROOT
ATOM      1  C   UNL     1      48.679   7.893  12.773  0.00  0.00    +0.000 C 
ATOM      2  C   UNL     1      49.678   8.425  11.755  0.00  0.00    +0.000 C 
ATOM      3  C   UNL     1      49.182   9.321  12.834  0.00  0.00    +0.000 C 
ENDROOT
BRANCH   1   4
ATOM      4  C   UNL     1      47.240   7.623  12.368  0.00  0.00    +0.000 A 
ATOM      5  C   UNL     1      46.239   8.586  12.552  0.00  0.00    +0.000 A 
ATOM      6  C   UNL     1      44.957   8.405  12.031  0.00  0.00    +0.000 A 
ATOM      7  C   UNL     1      44.653   7.254  11.301  0.00  0.00    +0.000 A 
ATOM      8  C   UNL     1      45.609   6.244  11.102  0.00  0.00    +0.000 A 
ATOM      9  C   UNL     1      46.880   6.445  11.681  0.00  0.00    +0.000 A 
BRANCH   8  10
ATOM     10  C   UNL     1      45.332   5.058  10.266  0.00  0.00    +0.000 A 
ATOM     11  N   UNL     1      44.587   4.068  10.801  0.00  0.00    +0.000 NA
ATOM     12  C   UNL     1      44.268   3.046   9.986  0.00  0.00    +0.000 A 
ATOM     13  C   UNL     1      44.665   2.967   8.672  0.00  0.00    +0.000 A 
ATOM     14  C   UNL     1      45.428   4.016   8.224  0.00  0.00    +0.000 A 
ATOM     15  N   UNL     1      45.769   5.071   8.988  0.00  0.00    +0.000 NA
ENDBRANCH   8  10
ENDBRANCH   1   4
BRANCH   1  16
ATOM     16  O   UNL     1      49.318   6.862  13.553  0.00  0.00    +0.000 OA
BRANCH  16  20
ATOM     17  C   UNL     1      48.256   5.696  17.345  0.00  0.00    +0.000 A 
ATOM     18  C   UNL     1      48.929   6.910  17.219  0.00  0.00    +0.000 A 
ATOM     19  C   UNL     1      49.285   7.372  15.946  0.00  0.00    +0.000 A 
ATOM     20  C   UNL     1      48.958   6.601  14.840  0.00  0.00    +0.000 A 
ATOM     21  N   UNL     1      48.285   5.434  14.948  0.00  0.00    +0.000 NA
ATOM     22  C   UNL     1      47.957   5.000  16.187  0.00  0.00    +0.000 A 
BRANCH  17  24
ATOM     23  N   UNL     1      46.690   5.414  19.185  0.00  0.00    +0.000 N 
ATOM     24  C   UNL     1      47.900   5.085  18.642  0.00  0.00    +0.000 C 
ATOM     25  O   UNL     1      48.640   4.283  19.197  0.00  0.00    +0.000 OA
ATOM     26  H   UNL     1      46.429   4.913  20.023  0.00  0.00    +0.000 HD
ATOM     27  H   UNL     1      45.956   5.860  18.654  0.00  0.00    +0.000 HD
ENDBRANCH  17  24
ENDBRANCH  16  20
ENDBRANCH   1  16
TORSDOF 5
ENDMDL
MODEL 7
REMARK VINA RESULT:    -6.751      2.873      4.646
REMARK INTER + INTRA:          -9.540
REMARK INTER:                  -8.755
REMARK INTRA:                  -0.785
REMARK UNBOUND:                -0.816
REMARK  Name = 
REMARK  5 active torsions:
REMARK  status: ('A' for Active; 'I' for Inactive)
REMARK    1  A    between atoms: C_2  and  C_4
REMARK    2  A    between atoms: C_7  and  O_8
REMARK    3  A    between atoms: O_8  and  C_9
REMARK    4  A    between atoms: C_9  and  C_10
REMARK    5  A    between atoms: C_14  and  C_15
REMARK                            x       y       z     vdW  Elec       q    Type
REMARK                         _______ _______ _______ _____ _____    ______ ____
ROOT
ATOM      1  C   UNL     1      47.689   8.018  12.952  0.00  0.00    +0.000 C 
ATOM      2  C   UNL     1      48.132   9.168  12.059  0.00  0.00    +0.000 C 
ATOM      3  C   UNL     1      48.614   7.790  11.773  0.00  0.00    +0.000 C 
ENDROOT
BRANCH   1   4
ATOM      4  C   UNL     1      48.232   7.888  14.364  0.00  0.00    +0.000 A 
ATOM      5  C   UNL     1      48.186   8.961  15.264  0.00  0.00    +0.000 A 
ATOM      6  C   UNL     1      48.530   8.795  16.606  0.00  0.00    +0.000 A 
ATOM      7  C   UNL     1      48.918   7.539  17.080  0.00  0.00    +0.000 A 
ATOM      8  C   UNL     1      49.004   6.432  16.221  0.00  0.00    +0.000 A 
ATOM      9  C   UNL     1      48.690   6.651  14.863  0.00  0.00    +0.000 A 
BRANCH   8  10
ATOM     10  C   UNL     1      49.335   5.080  16.718  0.00  0.00    +0.000 A 
ATOM     11  N   UNL     1      48.392   4.121  16.617  0.00  0.00    +0.000 NA
ATOM     12  C   UNL     1      48.753   2.878  16.986  0.00  0.00    +0.000 A 
ATOM     13  C   UNL     1      50.004   2.557  17.456  0.00  0.00    +0.000 A 
ATOM     14  C   UNL     1      50.890   3.603  17.533  0.00  0.00    +0.000 A 
ATOM     15  N   UNL     1      50.590   4.863  17.167  0.00  0.00    +0.000 NA
ENDBRANCH   8  10
ENDBRANCH   1   4
BRANCH   1  16
ATOM     16  O   UNL     1      46.265   7.841  12.806  0.00  0.00    +0.000 OA
BRANCH  16  20
ATOM     17  C   UNL     1      44.646   4.251  11.639  0.00  0.00    +0.000 A 
ATOM     18  C   UNL     1      45.277   4.290  12.882  0.00  0.00    +0.000 A 
ATOM     19  C   UNL     1      45.817   5.495  13.343  0.00  0.00    +0.000 A 
ATOM     20  C   UNL     1      45.710   6.625  12.545  0.00  0.00    +0.000 A 
ATOM     21  N   UNL     1      45.080   6.605  11.349  0.00  0.00    +0.000 NA
ATOM     22  C   UNL     1      44.573   5.428  10.915  0.00  0.00    +0.000 A 
BRANCH  17  24
ATOM     23  N   UNL     1      44.856   2.416  10.055  0.00  0.00    +0.000 N 
ATOM     24  C   UNL     1      44.108   3.018  11.028  0.00  0.00    +0.000 C 
ATOM     25  O   UNL     1      43.051   2.526  11.403  0.00  0.00    +0.000 OA
ATOM     26  H   UNL     1      44.514   1.526   9.721  0.00  0.00    +0.000 HD
ATOM     27  H   UNL     1      45.828   2.637   9.898  0.00  0.00    +0.000 HD
ENDBRANCH  17  24
ENDBRANCH  16  20
ENDBRANCH   1  16
TORSDOF 5
ENDMDL
MODEL 8
REMARK VINA RESULT:    -6.672      2.902      7.591
REMARK INTER + INTRA:          -9.438
REMARK INTER:                  -8.742
REMARK INTRA:                  -0.697
REMARK UNBOUND:                -0.816
REMARK  Name = 
REMARK  5 active torsions:
REMARK  status: ('A' for Active; 'I' for Inactive)
REMARK    1  A    between atoms: C_2  and  C_4
REMARK    2  A    between atoms: C_7  and  O_8
REMARK    3  A    between atoms: O_8  and  C_9
REMARK    4  A    between atoms: C_9  and  C_10
REMARK    5  A    between atoms: C_14  and  C_15
REMARK                            x       y       z     vdW  Elec       q    Type
REMARK                         _______ _______ _______ _____ _____    ______ ____
ROOT
ATOM      1  C   UNL     1      45.952   7.774  12.020  0.00  0.00    +0.000 C 
ATOM      2  C   UNL     1      45.671   9.170  11.483  0.00  0.00    +0.000 C 
ATOM      3  C   UNL     1      45.289   8.831  12.880  0.00  0.00    +0.000 C 
ENDROOT
BRANCH   1   4
ATOM      4  C   UNL     1      45.139   6.587  11.534  0.00  0.00    +0.000 A 
ATOM      5  C   UNL     1      43.785   6.446  11.866  0.00  0.00    +0.000 A 
ATOM      6  C   UNL     1      42.999   5.450  11.287  0.00  0.00    +0.000 A 
ATOM      7  C   UNL     1      43.553   4.575  10.349  0.00  0.00    +0.000 A 
ATOM      8  C   UNL     1      44.909   4.654   9.993  0.00  0.00    +0.000 A 
ATOM      9  C   UNL     1      45.680   5.646  10.633  0.00  0.00    +0.000 A 
BRANCH   8  10
ATOM     10  C   UNL     1      45.494   3.791   8.946  0.00  0.00    +0.000 A 
ATOM     11  N   UNL     1      46.117   4.389   7.909  0.00  0.00    +0.000 NA
ATOM     12  C   UNL     1      46.725   3.580   7.022  0.00  0.00    +0.000 A 
ATOM     13  C   UNL     1      46.730   2.209   7.121  0.00  0.00    +0.000 A 
ATOM     14  C   UNL     1      46.060   1.695   8.203  0.00  0.00    +0.000 A 
ATOM     15  N   UNL     1      45.444   2.454   9.129  0.00  0.00    +0.000 NA
ENDBRANCH   8  10
ENDBRANCH   1   4
BRANCH   1  16
ATOM     16  O   UNL     1      47.380   7.579  12.077  0.00  0.00    +0.000 OA
BRANCH  16  20
ATOM     17  C   UNL     1      49.288   6.632  15.588  0.00  0.00    +0.000 A 
ATOM     18  C   UNL     1      49.746   7.754  14.899  0.00  0.00    +0.000 A 
ATOM     19  C   UNL     1      49.110   8.141  13.714  0.00  0.00    +0.000 A 
ATOM     20  C   UNL     1      48.037   7.392  13.254  0.00  0.00    +0.000 A 
ATOM     21  N   UNL     1      47.569   6.317  13.927  0.00  0.00    +0.000 NA
ATOM     22  C   UNL     1      48.202   5.952  15.065  0.00  0.00    +0.000 A 
BRANCH  17  24
ATOM     23  N   UNL     1      49.723   6.768  17.978  0.00  0.00    +0.000 N 
ATOM     24  C   UNL     1      49.931   6.097  16.806  0.00  0.00    +0.000 C 
ATOM     25  O   UNL     1      50.595   5.068  16.779  0.00  0.00    +0.000 OA
ATOM     26  H   UNL     1      50.094   6.331  18.810  0.00  0.00    +0.000 HD
ATOM     27  H   UNL     1      48.993   7.456  18.092  0.00  0.00    +0.000 HD
ENDBRANCH  17  24
ENDBRANCH  16  20
ENDBRANCH   1  16
TORSDOF 5
ENDMDL
MODEL 9
REMARK VINA RESULT:    -6.660      3.240      7.579
REMARK INTER + INTRA:          -9.423
REMARK INTER:                  -8.637
REMARK INTRA:                  -0.787
REMARK UNBOUND:                -0.816
REMARK  Name = 
REMARK  5 active torsions:
REMARK  status: ('A' for Active; 'I' for Inactive)
REMARK    1  A    between atoms: C_2  and  C_4
REMARK    2  A    between atoms: C_7  and  O_8
REMARK    3  A    between atoms: O_8  and  C_9
REMARK    4  A    between atoms: C_9  and  C_10
REMARK    5  A    between atoms: C_14  and  C_15
REMARK                            x       y       z     vdW  Elec       q    Type
REMARK                         _______ _______ _______ _____ _____    ______ ____
ROOT
ATOM      1  C   UNL     1      44.044   5.615  11.431  0.00  0.00    +0.000 C 
ATOM      2  C   UNL     1      42.646   6.216  11.405  0.00  0.00    +0.000 C 
ATOM      3  C   UNL     1      43.220   5.749  12.696  0.00  0.00    +0.000 C 
ENDROOT
BRANCH   1   4
ATOM      4  C   UNL     1      44.299   4.237  10.847  0.00  0.00    +0.000 A 
ATOM      5  C   UNL     1      43.563   3.120  11.266  0.00  0.00    +0.000 A 
ATOM      6  C   UNL     1      43.680   1.892  10.616  0.00  0.00    +0.000 A 
ATOM      7  C   UNL     1      44.532   1.758   9.517  0.00  0.00    +0.000 A 
ATOM      8  C   UNL     1      45.310   2.836   9.064  0.00  0.00    +0.000 A 
ATOM      9  C   UNL     1      45.196   4.048   9.775  0.00  0.00    +0.000 A 
BRANCH   8  10
ATOM     10  C   UNL     1      46.155   2.737   7.855  0.00  0.00    +0.000 A 
ATOM     11  N   UNL     1      46.878   1.611   7.681  0.00  0.00    +0.000 NA
ATOM     12  C   UNL     1      47.561   1.507   6.526  0.00  0.00    +0.000 A 
ATOM     13  C   UNL     1      47.560   2.474   5.550  0.00  0.00    +0.000 A 
ATOM     14  C   UNL     1      46.805   3.587   5.826  0.00  0.00    +0.000 A 
ATOM     15  N   UNL     1      46.091   3.743   6.957  0.00  0.00    +0.000 NA
ENDBRANCH   8  10
ENDBRANCH   1   4
BRANCH   1  16
ATOM     16  O   UNL     1      44.994   6.638  11.069  0.00  0.00    +0.000 OA
BRANCH  16  20
ATOM     17  C   UNL     1      47.564   8.224  13.851  0.00  0.00    +0.000 A 
ATOM     18  C   UNL     1      47.826   6.928  13.412  0.00  0.00    +0.000 A 
ATOM     19  C   UNL     1      47.001   6.350  12.440  0.00  0.00    +0.000 A 
ATOM     20  C   UNL     1      45.939   7.089  11.940  0.00  0.00    +0.000 A 
ATOM     21  N   UNL     1      45.690   8.356  12.341  0.00  0.00    +0.000 NA
ATOM     22  C   UNL     1      46.492   8.894  13.288  0.00  0.00    +0.000 A 
BRANCH  17  24
ATOM     23  N   UNL     1      47.647   9.258  16.053  0.00  0.00    +0.000 N 
ATOM     24  C   UNL     1      48.327   8.898  14.923  0.00  0.00    +0.000 C 
ATOM     25  O   UNL     1      49.531   9.094  14.825  0.00  0.00    +0.000 OA
ATOM     26  H   UNL     1      48.207   9.630  16.807  0.00  0.00    +0.000 HD
ATOM     27  H   UNL     1      46.732   8.895  16.279  0.00  0.00    +0.000 HD
ENDBRANCH  17  24
ENDBRANCH  16  20
ENDBRANCH   1  16
TORSDOF 5
ENDMDL
