MODEL 1
REMARK VINA RESULT:    -9.076      0.000      0.000
REMARK INTER + INTRA:         -12.043
REMARK INTER:                 -11.463
REMARK INTRA:                  -0.580
REMARK UNBOUND:                -0.580
REMARK  Name = 
REMARK  5 active torsions:
REMARK  status: ('A' for Active; 'I' for Inactive)
REMARK    1  A    between atoms: C_2  and  C_4
REMARK    2  A    between atoms: N_8  and  C_9
REMARK    3  A    between atoms: C_9  and  C_10
REMARK    4  A    between atoms: C_10  and  O_11
REMARK    5  A    between atoms: C_10  and  C_12
REMARK                            x       y       z     vdW  Elec       q    Type
REMARK                         _______ _______ _______ _____ _____    ______ ____
ROOT
ATOM      1  C   UNL     1      46.272   2.109   7.950  0.00  0.00    +0.000 A 
ATOM      2  C   UNL     1      46.412   3.459   7.641  0.00  0.00    +0.000 A 
ATOM      3  C   UNL     1      45.566   4.388   8.254  0.00  0.00    +0.000 A 
ATOM      4  C   UNL     1      44.625   3.959   9.192  0.00  0.00    +0.000 A 
ATOM      5  N   UNL     1      43.742   4.881   9.763  0.00  0.00    +0.000 N 
ATOM      6  N   UNL     1      44.478   2.651   9.485  0.00  0.00    +0.000 NA
ATOM      7  C   UNL     1      45.281   1.755   8.850  0.00  0.00    +0.000 A 
ATOM      8  H   UNL     1      43.996   5.853   9.628  0.00  0.00    +0.000 HD
ENDROOT
BRANCH   1  10
ATOM      9  N   UNL     1      46.810  -0.247   7.721  0.00  0.00    +0.000 N 
ATOM     10  C   UNL     1      47.104   1.042   7.355  0.00  0.00    +0.000 C 
ATOM     11  O   UNL     1      47.987   1.287   6.550  0.00  0.00    +0.000 OA
ATOM     12  H   UNL     1      47.301  -0.977   7.215  0.00  0.00    +0.000 HD
ATOM     13  H   UNL     1      45.939  -0.494   8.168  0.00  0.00    +0.000 HD
ENDBRANCH   1  10
BRANCH   5  14
ATOM     14  C   UNL     1      43.296   4.538  11.121  0.00  0.00    +0.000 C 
BRANCH  14  15
ATOM     15  C   UNL     1      43.595   5.691  12.117  0.00  0.00    +0.000 C 
BRANCH  15  16
ATOM     16  C   UNL     1      45.040   5.737  12.569  0.00  0.00    +0.000 A 
ATOM     17  C   UNL     1      45.478   4.925  13.628  0.00  0.00    +0.000 A 
ATOM     18  C   UNL     1      46.811   4.960  14.043  0.00  0.00    +0.000 A 
ATOM     19 CL   UNL     1      47.320   3.966  15.352  0.00  0.00    +0.000 Cl
ATOM     20  C   UNL     1      47.731   5.794  13.416  0.00  0.00    +0.000 A 
ATOM     21  C   UNL     1      47.309   6.593  12.359  0.00  0.00    +0.000 A 
ATOM     22 CL   UNL     1      48.434   7.628  11.569  0.00  0.00    +0.000 Cl
ATOM     23  C   UNL     1      45.979   6.568  11.932  0.00  0.00    +0.000 A 
ENDBRANCH  15  16
BRANCH  15  24
ATOM     24  O   UNL     1      42.786   5.610  13.292  0.00  0.00    +0.000 OA
ATOM     25  H   UNL     1      41.899   5.933  13.056  0.00  0.00    +0.000 HD
ENDBRANCH  15  24
ENDBRANCH  14  15
ENDBRANCH   5  14
TORSDOF 5
ENDMDL
MODEL 2
REMARK VINA RESULT:    -9.050      0.049      1.965
REMARK INTER + INTRA:         -12.011
REMARK INTER:                 -11.434
REMARK INTRA:                  -0.577
REMARK UNBOUND:                -0.580
REMARK  Name = 
REMARK  5 active torsions:
REMARK  status: ('A' for Active; 'I' for Inactive)
REMARK    1  A    between atoms: C_2  and  C_4
REMARK    2  A    between atoms: N_8  and  C_9
REMARK    3  A    between atoms: C_9  and  C_10
REMARK    4  A    between atoms: C_10  and  O_11
REMARK    5  A    between atoms: C_10  and  C_12
REMARK                            x       y       z     vdW  Elec       q    Type
REMARK                         _______ _______ _______ _____ _____    ______ ____
ROOT
ATOM      1  C   UNL     1      46.255   2.139   7.934  0.00  0.00    +0.000 A 
ATOM      2  C   UNL     1      46.386   3.493   7.638  0.00  0.00    +0.000 A 
ATOM      3  C   UNL     1      45.541   4.411   8.266  0.00  0.00    +0.000 A 
ATOM      4  C   UNL     1      44.607   3.968   9.205  0.00  0.00    +0.000 A 
ATOM      5  N   UNL     1      43.723   4.880   9.791  0.00  0.00    +0.000 N 
ATOM      6  N   UNL     1      44.469   2.656   9.486  0.00  0.00    +0.000 NA
ATOM      7  C   UNL     1      45.272   1.770   8.837  0.00  0.00    +0.000 A 
ATOM      8  H   UNL     1      43.972   5.854   9.664  0.00  0.00    +0.000 HD
ENDROOT
BRANCH   1  10
ATOM      9  N   UNL     1      46.814  -0.211   7.690  0.00  0.00    +0.000 N 
ATOM     10  C   UNL     1      47.089   1.082   7.323  0.00  0.00    +0.000 C 
ATOM     11  O   UNL     1      47.956   1.338   6.505  0.00  0.00    +0.000 OA
ATOM     12  H   UNL     1      47.304  -0.935   7.174  0.00  0.00    +0.000 HD
ATOM     13  H   UNL     1      45.953  -0.468   8.151  0.00  0.00    +0.000 HD
ENDBRANCH   1  10
BRANCH   5  14
ATOM     14  C   UNL     1      43.288   4.521  11.148  0.00  0.00    +0.000 C 
BRANCH  14  15
ATOM     15  C   UNL     1      43.588   5.666  12.153  0.00  0.00    +0.000 C 
BRANCH  15  16
ATOM     16  C   UNL     1      45.033   5.709  12.604  0.00  0.00    +0.000 A 
ATOM     17  C   UNL     1      45.943   6.581  11.983  0.00  0.00    +0.000 A 
ATOM     18  C   UNL     1      47.275   6.628  12.399  0.00  0.00    +0.000 A 
ATOM     19 CL   UNL     1      48.375   7.695  11.614  0.00  0.00    +0.000 Cl
ATOM     20  C   UNL     1      47.727   5.820  13.438  0.00  0.00    +0.000 A 
ATOM     21  C   UNL     1      46.829   4.963  14.066  0.00  0.00    +0.000 A 
ATOM     22 CL   UNL     1      47.369   3.957  15.354  0.00  0.00    +0.000 Cl
ATOM     23  C   UNL     1      45.494   4.905  13.660  0.00  0.00    +0.000 A 
ENDBRANCH  15  16
BRANCH  15  24
ATOM     24  O   UNL     1      42.781   5.574  13.329  0.00  0.00    +0.000 OA
ATOM     25  H   UNL     1      41.850   5.586  13.044  0.00  0.00    +0.000 HD
ENDBRANCH  15  24
ENDBRANCH  14  15
ENDBRANCH   5  14
TORSDOF 5
ENDMDL
MODEL 3
REMARK VINA RESULT:    -8.283      1.302      2.269
REMARK INTER + INTRA:         -11.041
REMARK INTER:                 -10.525
REMARK INTRA:                  -0.516
REMARK UNBOUND:                -0.580
REMARK  Name = 
REMARK  5 active torsions:
REMARK  status: ('A' for Active; 'I' for Inactive)
REMARK    1  A    between atoms: C_2  and  C_4
REMARK    2  A    between atoms: N_8  and  C_9
REMARK    3  A    between atoms: C_9  and  C_10
REMARK    4  A    between atoms: C_10  and  O_11
REMARK    5  A    between atoms: C_10  and  C_12
REMARK                            x       y       z     vdW  Elec       q    Type
REMARK                         _______ _______ _______ _____ _____    ______ ____
ROOT
ATOM      1  C   UNL     1      46.295   2.105   7.925  0.00  0.00    +0.000 A 
ATOM      2  C   UNL     1      46.409   3.457   7.611  0.00  0.00    +0.000 A 
ATOM      3  C   UNL     1      45.572   4.376   8.251  0.00  0.00    +0.000 A 
ATOM      4  C   UNL     1      44.665   3.936   9.217  0.00  0.00    +0.000 A 
ATOM      5  N   UNL     1      43.789   4.848   9.815  0.00  0.00    +0.000 N 
ATOM      6  N   UNL     1      44.543   2.626   9.515  0.00  0.00    +0.000 NA
ATOM      7  C   UNL     1      45.337   1.740   8.856  0.00  0.00    +0.000 A 
ATOM      8  H   UNL     1      44.027   5.823   9.671  0.00  0.00    +0.000 HD
ENDROOT
BRANCH   1  10
ATOM      9  N   UNL     1      46.827  -0.247   7.649  0.00  0.00    +0.000 N 
ATOM     10  C   UNL     1      47.122   1.048   7.305  0.00  0.00    +0.000 C 
ATOM     11  O   UNL     1      48.000   1.306   6.500  0.00  0.00    +0.000 OA
ATOM     12  H   UNL     1      47.313  -0.969   7.126  0.00  0.00    +0.000 HD
ATOM     13  H   UNL     1      45.959  -0.501   8.097  0.00  0.00    +0.000 HD
ENDBRANCH   1  10
BRANCH   5  14
ATOM     14  C   UNL     1      43.390   4.500  11.186  0.00  0.00    +0.000 C 
BRANCH  14  15
ATOM     15  C   UNL     1      43.191   5.775  12.051  0.00  0.00    +0.000 C 
BRANCH  15  16
ATOM     16  C   UNL     1      44.458   6.583  12.234  0.00  0.00    +0.000 A 
ATOM     17  C   UNL     1      44.511   7.923  11.815  0.00  0.00    +0.000 A 
ATOM     18  C   UNL     1      45.676   8.674  11.988  0.00  0.00    +0.000 A 
ATOM     19 CL   UNL     1      45.721  10.309  11.454  0.00  0.00    +0.000 Cl
ATOM     20  C   UNL     1      46.804   8.114  12.580  0.00  0.00    +0.000 A 
ATOM     21  C   UNL     1      46.756   6.791  13.008  0.00  0.00    +0.000 A 
ATOM     22 CL   UNL     1      48.140   6.083  13.746  0.00  0.00    +0.000 Cl
ATOM     23  C   UNL     1      45.598   6.029  12.843  0.00  0.00    +0.000 A 
ENDBRANCH  15  16
BRANCH  15  24
ATOM     24  O   UNL     1      42.694   5.466  13.355  0.00  0.00    +0.000 OA
ATOM     25  H   UNL     1      41.858   4.981  13.240  0.00  0.00    +0.000 HD
ENDBRANCH  15  24
ENDBRANCH  14  15
ENDBRANCH   5  14
TORSDOF 5
ENDMDL
MODEL 4
REMARK VINA RESULT:    -8.228      1.290      1.379
REMARK INTER + INTRA:         -10.972
REMARK INTER:                 -10.445
REMARK INTRA:                  -0.527
REMARK UNBOUND:                -0.580
REMARK  Name = 
REMARK  5 active torsions:
REMARK  status: ('A' for Active; 'I' for Inactive)
REMARK    1  A    between atoms: C_2  and  C_4
REMARK    2  A    between atoms: N_8  and  C_9
REMARK    3  A    between atoms: C_9  and  C_10
REMARK    4  A    between atoms: C_10  and  O_11
REMARK    5  A    between atoms: C_10  and  C_12
REMARK                            x       y       z     vdW  Elec       q    Type
REMARK                         _______ _______ _______ _____ _____    ______ ____
ROOT
ATOM      1  C   UNL     1      46.402   2.340   7.850  0.00  0.00    +0.000 A 
ATOM      2  C   UNL     1      46.470   3.711   7.616  0.00  0.00    +0.000 A 
ATOM      3  C   UNL     1      45.581   4.559   8.282  0.00  0.00    +0.000 A 
ATOM      4  C   UNL     1      44.668   4.030   9.197  0.00  0.00    +0.000 A 
ATOM      5  N   UNL     1      43.741   4.872   9.821  0.00  0.00    +0.000 N 
ATOM      6  N   UNL     1      44.591   2.702   9.418  0.00  0.00    +0.000 NA
ATOM      7  C   UNL     1      45.436   1.885   8.731  0.00  0.00    +0.000 A 
ATOM      8  H   UNL     1      43.944   5.861   9.739  0.00  0.00    +0.000 HD
ENDROOT
BRANCH   1  10
ATOM      9  N   UNL     1      48.340   1.853   6.472  0.00  0.00    +0.000 N 
ATOM     10  C   UNL     1      47.286   1.353   7.194  0.00  0.00    +0.000 C 
ATOM     11  O   UNL     1      47.113   0.152   7.314  0.00  0.00    +0.000 OA
ATOM     12  H   UNL     1      49.011   1.171   6.132  0.00  0.00    +0.000 HD
ATOM     13  H   UNL     1      48.655   2.807   6.569  0.00  0.00    +0.000 HD
ENDBRANCH   1  10
BRANCH   5  14
ATOM     14  C   UNL     1      43.322   4.431  11.159  0.00  0.00    +0.000 C 
BRANCH  14  15
ATOM     15  C   UNL     1      43.165   5.639  12.122  0.00  0.00    +0.000 C 
BRANCH  15  16
ATOM     16  C   UNL     1      44.476   6.328  12.443  0.00  0.00    +0.000 A 
ATOM     17  C   UNL     1      45.472   5.653  13.167  0.00  0.00    +0.000 A 
ATOM     18  C   UNL     1      46.684   6.283  13.459  0.00  0.00    +0.000 A 
ATOM     19 CL   UNL     1      47.885   5.441  14.359  0.00  0.00    +0.000 Cl
ATOM     20  C   UNL     1      46.931   7.586  13.036  0.00  0.00    +0.000 A 
ATOM     21  C   UNL     1      45.953   8.257  12.309  0.00  0.00    +0.000 A 
ATOM     22 CL   UNL     1      46.242   9.867  11.775  0.00  0.00    +0.000 Cl
ATOM     23  C   UNL     1      44.737   7.639  12.009  0.00  0.00    +0.000 A 
ENDBRANCH  15  16
BRANCH  15  24
ATOM     24  O   UNL     1      42.570   5.261  13.366  0.00  0.00    +0.000 OA
ATOM     25  H   UNL     1      41.781   5.817  13.490  0.00  0.00    +0.000 HD
ENDBRANCH  15  24
ENDBRANCH  14  15
ENDBRANCH   5  14
TORSDOF 5
ENDMDL
MODEL 5
REMARK VINA RESULT:    -6.940      4.192      5.662
REMARK INTER + INTRA:          -9.345
REMARK INTER:                  -9.018
REMARK INTRA:                  -0.327
REMARK UNBOUND:                -0.580
REMARK  Name = 
REMARK  5 active torsions:
REMARK  status: ('A' for Active; 'I' for Inactive)
REMARK    1  A    between atoms: C_2  and  C_4
REMARK    2  A    between atoms: N_8  and  C_9
REMARK    3  A    between atoms: C_9  and  C_10
REMARK    4  A    between atoms: C_10  and  O_11
REMARK    5  A    between atoms: C_10  and  C_12
REMARK                            x       y       z     vdW  Elec       q    Type
REMARK                         _______ _______ _______ _____ _____    ______ ____
ROOT
ATOM      1  C   UNL     1      45.551   4.944  10.818  0.00  0.00    +0.000 A 
ATOM      2  C   UNL     1      46.143   6.094  11.334  0.00  0.00    +0.000 A 
ATOM      3  C   UNL     1      46.516   6.120  12.681  0.00  0.00    +0.000 A 
ATOM      4  C   UNL     1      46.328   4.989  13.478  0.00  0.00    +0.000 A 
ATOM      5  N   UNL     1      46.650   5.034  14.838  0.00  0.00    +0.000 N 
ATOM      6  N   UNL     1      45.744   3.877  12.984  0.00  0.00    +0.000 NA
ATOM      7  C   UNL     1      45.350   3.881  11.682  0.00  0.00    +0.000 A 
ATOM      8  H   UNL     1      47.219   5.826  15.114  0.00  0.00    +0.000 HD
ENDROOT
BRANCH   1  10
ATOM      9  N   UNL     1      43.797   4.472   9.209  0.00  0.00    +0.000 N 
ATOM     10  C   UNL     1      45.110   4.811   9.414  0.00  0.00    +0.000 C 
ATOM     11  O   UNL     1      45.863   5.024   8.478  0.00  0.00    +0.000 OA
ATOM     12  H   UNL     1      43.472   4.505   8.247  0.00  0.00    +0.000 HD
ATOM     13  H   UNL     1      43.102   4.544   9.938  0.00  0.00    +0.000 HD
ENDBRANCH   1  10
BRANCH   5  14
ATOM     14  C   UNL     1      47.057   3.744  15.412  0.00  0.00    +0.000 C 
BRANCH  14  15
ATOM     15  C   UNL     1      47.331   3.871  16.935  0.00  0.00    +0.000 C 
BRANCH  15  16
ATOM     16  C   UNL     1      48.804   3.841  17.287  0.00  0.00    +0.000 A 
ATOM     17  C   UNL     1      49.525   2.638  17.221  0.00  0.00    +0.000 A 
ATOM     18  C   UNL     1      50.885   2.608  17.538  0.00  0.00    +0.000 A 
ATOM     19 CL   UNL     1      51.743   1.118  17.462  0.00  0.00    +0.000 Cl
ATOM     20  C   UNL     1      51.553   3.767  17.922  0.00  0.00    +0.000 A 
ATOM     21  C   UNL     1      50.849   4.965  17.979  0.00  0.00    +0.000 A 
ATOM     22 CL   UNL     1      51.660   6.408  18.448  0.00  0.00    +0.000 Cl
ATOM     23  C   UNL     1      49.489   5.010  17.663  0.00  0.00    +0.000 A 
ENDBRANCH  15  16
BRANCH  15  24
ATOM     24  O   UNL     1      46.696   2.832  17.684  0.00  0.00    +0.000 OA
ATOM     25  H   UNL     1      47.169   2.004  17.489  0.00  0.00    +0.000 HD
ENDBRANCH  15  24
ENDBRANCH  14  15
ENDBRANCH   5  14
TORSDOF 5
ENDMDL
MODEL 6
REMARK VINA RESULT:    -6.939      4.148      5.783
REMARK INTER + INTRA:          -9.344
REMARK INTER:                  -9.020
REMARK INTRA:                  -0.324
REMARK UNBOUND:                -0.580
REMARK  Name = 
REMARK  5 active torsions:
REMARK  status: ('A' for Active; 'I' for Inactive)
REMARK    1  A    between atoms: C_2  and  C_4
REMARK    2  A    between atoms: N_8  and  C_9
REMARK    3  A    between atoms: C_9  and  C_10
REMARK    4  A    between atoms: C_10  and  O_11
REMARK    5  A    between atoms: C_10  and  C_12
REMARK                            x       y       z     vdW  Elec       q    Type
REMARK                         _______ _______ _______ _____ _____    ______ ____
ROOT
ATOM      1  C   UNL     1      45.539   4.881  10.746  0.00  0.00    +0.000 A 
ATOM      2  C   UNL     1      46.144   6.034  11.240  0.00  0.00    +0.000 A 
ATOM      3  C   UNL     1      46.512   6.083  12.588  0.00  0.00    +0.000 A 
ATOM      4  C   UNL     1      46.307   4.970  13.407  0.00  0.00    +0.000 A 
ATOM      5  N   UNL     1      46.624   5.040  14.767  0.00  0.00    +0.000 N 
ATOM      6  N   UNL     1      45.711   3.857  12.934  0.00  0.00    +0.000 NA
ATOM      7  C   UNL     1      45.321   3.839  11.630  0.00  0.00    +0.000 A 
ATOM      8  H   UNL     1      47.202   5.830  15.029  0.00  0.00    +0.000 HD
ENDROOT
BRANCH   1  10
ATOM      9  N   UNL     1      43.783   4.405   9.139  0.00  0.00    +0.000 N 
ATOM     10  C   UNL     1      45.102   4.724   9.342  0.00  0.00    +0.000 C 
ATOM     11  O   UNL     1      45.862   4.903   8.406  0.00  0.00    +0.000 OA
ATOM     12  H   UNL     1      43.463   4.423   8.176  0.00  0.00    +0.000 HD
ATOM     13  H   UNL     1      43.087   4.507   9.863  0.00  0.00    +0.000 HD
ENDBRANCH   1  10
BRANCH   5  14
ATOM     14  C   UNL     1      47.013   3.757  15.369  0.00  0.00    +0.000 C 
BRANCH  14  15
ATOM     15  C   UNL     1      47.324   3.920  16.882  0.00  0.00    +0.000 C 
BRANCH  15  16
ATOM     16  C   UNL     1      48.803   3.847  17.204  0.00  0.00    +0.000 A 
ATOM     17  C   UNL     1      49.512   5.010  17.545  0.00  0.00    +0.000 A 
ATOM     18  C   UNL     1      50.874   4.945  17.849  0.00  0.00    +0.000 A 
ATOM     19 CL   UNL     1      51.725   6.386  18.251  0.00  0.00    +0.000 Cl
ATOM     20  C   UNL     1      51.553   3.731  17.825  0.00  0.00    +0.000 A 
ATOM     21  C   UNL     1      50.855   2.573  17.500  0.00  0.00    +0.000 A 
ATOM     22 CL   UNL     1      51.677   1.062  17.468  0.00  0.00    +0.000 Cl
ATOM     23  C   UNL     1      49.493   2.622  17.194  0.00  0.00    +0.000 A 
ENDBRANCH  15  16
BRANCH  15  24
ATOM     24  O   UNL     1      46.668   2.929  17.675  0.00  0.00    +0.000 OA
ATOM     25  H   UNL     1      46.320   3.375  18.467  0.00  0.00    +0.000 HD
ENDBRANCH  15  24
ENDBRANCH  14  15
ENDBRANCH   5  14
TORSDOF 5
ENDMDL
MODEL 7
REMARK VINA RESULT:    -6.781      4.271      5.715
REMARK INTER + INTRA:          -9.145
REMARK INTER:                  -8.839
REMARK INTRA:                  -0.306
REMARK UNBOUND:                -0.580
REMARK  Name = 
REMARK  5 active torsions:
REMARK  status: ('A' for Active; 'I' for Inactive)
REMARK    1  A    between atoms: C_2  and  C_4
REMARK    2  A    between atoms: N_8  and  C_9
REMARK    3  A    between atoms: C_9  and  C_10
REMARK    4  A    between atoms: C_10  and  O_11
REMARK    5  A    between atoms: C_10  and  C_12
REMARK                            x       y       z     vdW  Elec       q    Type
REMARK                         _______ _______ _______ _____ _____    ______ ____
ROOT
ATOM      1  C   UNL     1      45.013   3.945  10.981  0.00  0.00    +0.000 A 
ATOM      2  C   UNL     1      45.417   5.256  11.218  0.00  0.00    +0.000 A 
ATOM      3  C   UNL     1      45.939   5.591  12.470  0.00  0.00    +0.000 A 
ATOM      4  C   UNL     1      46.083   4.607  13.450  0.00  0.00    +0.000 A 
ATOM      5  N   UNL     1      46.552   4.954  14.721  0.00  0.00    +0.000 N 
ATOM      6  N   UNL     1      45.681   3.339  13.229  0.00  0.00    +0.000 NA
ATOM      7  C   UNL     1      45.138   3.037  12.019  0.00  0.00    +0.000 A 
ATOM      8  H   UNL     1      46.978   5.872  14.781  0.00  0.00    +0.000 HD
ENDROOT
BRANCH   1  10
ATOM      9  N   UNL     1      44.089   4.455   8.795  0.00  0.00    +0.000 N 
ATOM     10  C   UNL     1      44.440   3.484   9.699  0.00  0.00    +0.000 C 
ATOM     11  O   UNL     1      44.316   2.300   9.437  0.00  0.00    +0.000 OA
ATOM     12  H   UNL     1      43.815   4.128   7.874  0.00  0.00    +0.000 HD
ATOM     13  H   UNL     1      44.414   5.407   8.875  0.00  0.00    +0.000 HD
ENDBRANCH   1  10
BRANCH   5  14
ATOM     14  C   UNL     1      47.279   3.883  15.416  0.00  0.00    +0.000 C 
BRANCH  14  15
ATOM     15  C   UNL     1      47.177   4.046  16.957  0.00  0.00    +0.000 C 
BRANCH  15  16
ATOM     16  C   UNL     1      48.523   4.177  17.640  0.00  0.00    +0.000 A 
ATOM     17  C   UNL     1      49.551   3.261  17.363  0.00  0.00    +0.000 A 
ATOM     18  C   UNL     1      50.795   3.382  17.986  0.00  0.00    +0.000 A 
ATOM     19 CL   UNL     1      52.034   2.238  17.641  0.00  0.00    +0.000 Cl
ATOM     20  C   UNL     1      51.044   4.413  18.887  0.00  0.00    +0.000 A 
ATOM     21  C   UNL     1      50.035   5.332  19.158  0.00  0.00    +0.000 A 
ATOM     22 CL   UNL     1      50.326   6.615  20.267  0.00  0.00    +0.000 Cl
ATOM     23  C   UNL     1      48.786   5.223  18.542  0.00  0.00    +0.000 A 
ENDBRANCH  15  16
BRANCH  15  24
ATOM     24  O   UNL     1      46.497   2.948  17.570  0.00  0.00    +0.000 OA
ATOM     25  H   UNL     1      45.967   3.308  18.302  0.00  0.00    +0.000 HD
ENDBRANCH  15  24
ENDBRANCH  14  15
ENDBRANCH   5  14
TORSDOF 5
ENDMDL
MODEL 8
REMARK VINA RESULT:    -6.615      4.373      5.878
REMARK INTER + INTRA:          -8.935
REMARK INTER:                  -8.617
REMARK INTRA:                  -0.318
REMARK UNBOUND:                -0.580
REMARK  Name = 
REMARK  5 active torsions:
REMARK  status: ('A' for Active; 'I' for Inactive)
REMARK    1  A    between atoms: C_2  and  C_4
REMARK    2  A    between atoms: N_8  and  C_9
REMARK    3  A    between atoms: C_9  and  C_10
REMARK    4  A    between atoms: C_10  and  O_11
REMARK    5  A    between atoms: C_10  and  C_12
REMARK                            x       y       z     vdW  Elec       q    Type
REMARK                         _______ _______ _______ _____ _____    ______ ____
ROOT
ATOM      1  C   UNL     1      45.054   4.185  11.151  0.00  0.00    +0.000 A 
ATOM      2  C   UNL     1      45.523   5.471  11.403  0.00  0.00    +0.000 A 
ATOM      3  C   UNL     1      46.066   5.763  12.657  0.00  0.00    +0.000 A 
ATOM      4  C   UNL     1      46.165   4.760  13.624  0.00  0.00    +0.000 A 
ATOM      5  N   UNL     1      46.655   5.067  14.897  0.00  0.00    +0.000 N 
ATOM      6  N   UNL     1      45.700   3.516  13.388  0.00  0.00    +0.000 NA
ATOM      7  C   UNL     1      45.138   3.258  12.175  0.00  0.00    +0.000 A 
ATOM      8  H   UNL     1      47.126   5.961  14.967  0.00  0.00    +0.000 HD
ENDROOT
BRANCH   1  10
ATOM      9  N   UNL     1      44.526   4.670   8.832  0.00  0.00    +0.000 N 
ATOM     10  C   UNL     1      44.454   3.770   9.865  0.00  0.00    +0.000 C 
ATOM     11  O   UNL     1      43.951   2.669   9.713  0.00  0.00    +0.000 OA
ATOM     12  H   UNL     1      44.225   4.330   7.923  0.00  0.00    +0.000 HD
ATOM     13  H   UNL     1      45.151   5.462   8.850  0.00  0.00    +0.000 HD
ENDBRANCH   1  10
BRANCH   5  14
ATOM     14  C   UNL     1      47.332   3.952  15.574  0.00  0.00    +0.000 C 
BRANCH  14  15
ATOM     15  C   UNL     1      47.105   4.009  17.110  0.00  0.00    +0.000 C 
BRANCH  15  16
ATOM     16  C   UNL     1      48.358   4.345  17.892  0.00  0.00    +0.000 A 
ATOM     17  C   UNL     1      48.293   5.204  19.001  0.00  0.00    +0.000 A 
ATOM     18  C   UNL     1      49.445   5.511  19.728  0.00  0.00    +0.000 A 
ATOM     19 CL   UNL     1      49.342   6.577  21.075  0.00  0.00    +0.000 Cl
ATOM     20  C   UNL     1      50.677   4.969  19.373  0.00  0.00    +0.000 A 
ATOM     21  C   UNL     1      50.748   4.108  18.284  0.00  0.00    +0.000 A 
ATOM     22 CL   UNL     1      52.263   3.427  17.833  0.00  0.00    +0.000 Cl
ATOM     23  C   UNL     1      49.604   3.792  17.548  0.00  0.00    +0.000 A 
ENDBRANCH  15  16
BRANCH  15  24
ATOM     24  O   UNL     1      46.602   2.775  17.625  0.00  0.00    +0.000 OA
ATOM     25  H   UNL     1      47.359   2.171  17.722  0.00  0.00    +0.000 HD
ENDBRANCH  15  24
ENDBRANCH  14  15
ENDBRANCH   5  14
TORSDOF 5
ENDMDL
MODEL 9
REMARK VINA RESULT:    -6.258      5.776      7.870
REMARK INTER + INTRA:          -8.484
REMARK INTER:                  -8.101
REMARK INTRA:                  -0.383
REMARK UNBOUND:                -0.580
REMARK  Name = 
REMARK  5 active torsions:
REMARK  status: ('A' for Active; 'I' for Inactive)
REMARK    1  A    between atoms: C_2  and  C_4
REMARK    2  A    between atoms: N_8  and  C_9
REMARK    3  A    between atoms: C_9  and  C_10
REMARK    4  A    between atoms: C_10  and  O_11
REMARK    5  A    between atoms: C_10  and  C_12
REMARK                            x       y       z     vdW  Elec       q    Type
REMARK                         _______ _______ _______ _____ _____    ______ ____
ROOT
ATOM      1  C   UNL     1      51.242   3.155  17.645  0.00  0.00    +0.000 A 
ATOM      2  C   UNL     1      50.567   1.980  17.326  0.00  0.00    +0.000 A 
ATOM      3  C   UNL     1      49.261   2.059  16.836  0.00  0.00    +0.000 A 
ATOM      4  C   UNL     1      48.665   3.306  16.637  0.00  0.00    +0.000 A 
ATOM      5  N   UNL     1      47.339   3.382  16.201  0.00  0.00    +0.000 N 
ATOM      6  N   UNL     1      49.311   4.446  16.957  0.00  0.00    +0.000 NA
ATOM      7  C   UNL     1      50.568   4.352  17.471  0.00  0.00    +0.000 A 
ATOM      8  H   UNL     1      46.962   2.516  15.834  0.00  0.00    +0.000 HD
ENDROOT
BRANCH   1  10
ATOM      9  N   UNL     1      53.047   2.075  18.857  0.00  0.00    +0.000 N 
ATOM     10  C   UNL     1      52.621   3.188  18.178  0.00  0.00    +0.000 C 
ATOM     11  O   UNL     1      53.360   4.141  17.996  0.00  0.00    +0.000 OA
ATOM     12  H   UNL     1      54.030   2.055  19.109  0.00  0.00    +0.000 HD
ATOM     13  H   UNL     1      52.563   1.191  18.798  0.00  0.00    +0.000 HD
ENDBRANCH   1  10
BRANCH   5  14
ATOM     14  C   UNL     1      47.025   4.582  15.412  0.00  0.00    +0.000 C 
BRANCH  14  15
ATOM     15  C   UNL     1      47.124   4.293  13.890  0.00  0.00    +0.000 C 
BRANCH  15  16
ATOM     16  C   UNL     1      46.234   5.184  13.048  0.00  0.00    +0.000 A 
ATOM     17  C   UNL     1      45.380   4.624  12.084  0.00  0.00    +0.000 A 
ATOM     18  C   UNL     1      44.553   5.442  11.310  0.00  0.00    +0.000 A 
ATOM     19 CL   UNL     1      43.524   4.734  10.126  0.00  0.00    +0.000 Cl
ATOM     20  C   UNL     1      44.555   6.823  11.480  0.00  0.00    +0.000 A 
ATOM     21  C   UNL     1      45.390   7.384  12.441  0.00  0.00    +0.000 A 
ATOM     22 CL   UNL     1      45.404   9.090  12.667  0.00  0.00    +0.000 Cl
ATOM     23  C   UNL     1      46.221   6.579  13.222  0.00  0.00    +0.000 A 
ENDBRANCH  15  16
BRANCH  15  24
ATOM     24  O   UNL     1      46.787   2.940  13.576  0.00  0.00    +0.000 OA
ATOM     25  H   UNL     1      46.750   2.449  14.416  0.00  0.00    +0.000 HD
ENDBRANCH  15  24
ENDBRANCH  14  15
ENDBRANCH   5  14
TORSDOF 5
ENDMDL
