MODEL 1
REMARK VINA RESULT:    -9.277      0.000      0.000
REMARK INTER + INTRA:         -12.546
REMARK INTER:                 -11.988
REMARK INTRA:                  -0.557
REMARK UNBOUND:                -0.557
REMARK  Name = 
REMARK  5 active torsions:
REMARK  status: ('A' for Active; 'I' for Inactive)
REMARK    1  A    between atoms: C_2  and  C_4
REMARK    2  A    between atoms: N_8  and  C_9
REMARK    3  A    between atoms: C_9  and  C_10
REMARK    4  A    between atoms: C_10  and  C_11
REMARK    5  A    between atoms: C_15  and  C_16
REMARK                            x       y       z     vdW  Elec       q    Type
REMARK                         _______ _______ _______ _____ _____    ______ ____
ROOT
ATOM      1  C   UNL     1      43.387   4.446  11.269  0.00  0.00    +0.000 C 
ENDROOT
BRANCH   1   6
ATOM      2  C   UNL     1      46.436   2.449   7.736  0.00  0.00    +0.000 A 
ATOM      3  C   UNL     1      45.658   1.811   8.697  0.00  0.00    +0.000 A 
ATOM      4  C   UNL     1      44.757   2.566   9.449  0.00  0.00    +0.000 A 
ATOM      5  C   UNL     1      44.665   3.939   9.245  0.00  0.00    +0.000 A 
ATOM      6  N   UNL     1      43.726   4.739   9.880  0.00  0.00    +0.000 N 
ATOM      7  N   UNL     1      45.444   4.573   8.345  0.00  0.00    +0.000 NA
ATOM      8  C   UNL     1      46.315   3.823   7.617  0.00  0.00    +0.000 A 
ATOM      9  H   UNL     1      43.985   5.702   9.678  0.00  0.00    +0.000 HD
BRANCH   2  11
ATOM     10  N   UNL     1      48.451   2.414   6.386  0.00  0.00    +0.000 N 
ATOM     11  C   UNL     1      47.362   1.720   6.844  0.00  0.00    +0.000 C 
ATOM     12  O   UNL     1      47.193   0.544   6.565  0.00  0.00    +0.000 OA
ATOM     13  H   UNL     1      49.142   1.878   5.875  0.00  0.00    +0.000 HD
ATOM     14  H   UNL     1      48.752   3.285   6.797  0.00  0.00    +0.000 HD
ENDBRANCH   2  11
ENDBRANCH   1   6
BRANCH   1  15
ATOM     15  C   UNL     1      43.595   5.684  12.144  0.00  0.00    +0.000 C 
BRANCH  15  16
ATOM     16  C   UNL     1      45.058   5.998  12.358  0.00  0.00    +0.000 A 
ATOM     17  C   UNL     1      45.761   6.702  11.386  0.00  0.00    +0.000 A 
ATOM     18  C   UNL     1      47.110   6.958  11.592  0.00  0.00    +0.000 A 
ATOM     19  C   UNL     1      47.723   6.499  12.753  0.00  0.00    +0.000 A 
ATOM     20  C   UNL     1      46.973   5.788  13.688  0.00  0.00    +0.000 A 
ATOM     21  N   UNL     1      45.653   5.531  13.485  0.00  0.00    +0.000 NA
BRANCH  20  22
ATOM     22  C   UNL     1      47.555   5.245  14.928  0.00  0.00    +0.000 A 
ATOM     23  C   UNL     1      48.638   5.867  15.560  0.00  0.00    +0.000 A 
ATOM     24  N   UNL     1      49.201   5.465  16.733  0.00  0.00    +0.000 NA
ATOM     25  C   UNL     1      48.661   4.371  17.313  0.00  0.00    +0.000 A 
ATOM     26  C   UNL     1      47.610   3.665  16.763  0.00  0.00    +0.000 A 
ATOM     27  F   UNL     1      47.118   2.581  17.376  0.00  0.00    +0.000 F 
ATOM     28  C   UNL     1      47.057   4.096  15.564  0.00  0.00    +0.000 A 
ENDBRANCH  20  22
ENDBRANCH  15  16
ENDBRANCH   1  15
TORSDOF 5
ENDMDL
MODEL 2
REMARK VINA RESULT:    -9.087      2.722      4.005
REMARK INTER + INTRA:         -12.300
REMARK INTER:                 -11.475
REMARK INTRA:                  -0.825
REMARK UNBOUND:                -0.557
REMARK  Name = 
REMARK  5 active torsions:
REMARK  status: ('A' for Active; 'I' for Inactive)
REMARK    1  A    between atoms: C_2  and  C_4
REMARK    2  A    between atoms: N_8  and  C_9
REMARK    3  A    between atoms: C_9  and  C_10
REMARK    4  A    between atoms: C_10  and  C_11
REMARK    5  A    between atoms: C_15  and  C_16
REMARK                            x       y       z     vdW  Elec       q    Type
REMARK                         _______ _______ _______ _____ _____    ______ ____
ROOT
ATOM      1  C   UNL     1      43.252   4.366  11.214  0.00  0.00    +0.000 C 
ENDROOT
BRANCH   1   6
ATOM      2  C   UNL     1      46.478   2.521   7.756  0.00  0.00    +0.000 A 
ATOM      3  C   UNL     1      45.612   1.844   8.608  0.00  0.00    +0.000 A 
ATOM      4  C   UNL     1      44.685   2.575   9.353  0.00  0.00    +0.000 A 
ATOM      5  C   UNL     1      44.655   3.963   9.249  0.00  0.00    +0.000 A 
ATOM      6  N   UNL     1      43.700   4.749   9.878  0.00  0.00    +0.000 N 
ATOM      7  N   UNL     1      45.517   4.630   8.457  0.00  0.00    +0.000 NA
ATOM      8  C   UNL     1      46.413   3.904   7.735  0.00  0.00    +0.000 A 
ATOM      9  H   UNL     1      44.006   5.714   9.770  0.00  0.00    +0.000 HD
BRANCH   2  11
ATOM     10  N   UNL     1      48.521   2.550   6.449  0.00  0.00    +0.000 N 
ATOM     11  C   UNL     1      47.440   1.825   6.877  0.00  0.00    +0.000 C 
ATOM     12  O   UNL     1      47.306   0.648   6.581  0.00  0.00    +0.000 OA
ATOM     13  H   UNL     1      49.236   2.037   5.947  0.00  0.00    +0.000 HD
ATOM     14  H   UNL     1      48.792   3.424   6.876  0.00  0.00    +0.000 HD
ENDBRANCH   2  11
ENDBRANCH   1   6
BRANCH   1  15
ATOM     15  C   UNL     1      43.452   5.522  12.197  0.00  0.00    +0.000 C 
BRANCH  15  16
ATOM     16  C   UNL     1      44.898   5.684  12.607  0.00  0.00    +0.000 A 
ATOM     17  C   UNL     1      45.507   4.710  13.390  0.00  0.00    +0.000 A 
ATOM     18  C   UNL     1      46.828   4.891  13.776  0.00  0.00    +0.000 A 
ATOM     19  C   UNL     1      47.503   6.041  13.381  0.00  0.00    +0.000 A 
ATOM     20  C   UNL     1      46.840   6.992  12.606  0.00  0.00    +0.000 A 
ATOM     21  N   UNL     1      45.544   6.818  12.233  0.00  0.00    +0.000 NA
BRANCH  20  22
ATOM     22  C   UNL     1      47.477   8.247  12.170  0.00  0.00    +0.000 A 
ATOM     23  C   UNL     1      46.776   9.458  12.164  0.00  0.00    +0.000 A 
ATOM     24  N   UNL     1      47.301  10.669  11.828  0.00  0.00    +0.000 NA
ATOM     25  C   UNL     1      48.603  10.679  11.468  0.00  0.00    +0.000 A 
ATOM     26  C   UNL     1      49.380   9.540  11.413  0.00  0.00    +0.000 A 
ATOM     27  F   UNL     1      50.665   9.605  11.041  0.00  0.00    +0.000 F 
ATOM     28  C   UNL     1      48.818   8.317  11.758  0.00  0.00    +0.000 A 
ENDBRANCH  20  22
ENDBRANCH  15  16
ENDBRANCH   1  15
TORSDOF 5
ENDMDL
MODEL 3
REMARK VINA RESULT:    -8.918      3.240      4.839
REMARK INTER + INTRA:         -12.082
REMARK INTER:                 -11.379
REMARK INTRA:                  -0.703
REMARK UNBOUND:                -0.557
REMARK  Name = 
REMARK  5 active torsions:
REMARK  status: ('A' for Active; 'I' for Inactive)
REMARK    1  A    between atoms: C_2  and  C_4
REMARK    2  A    between atoms: N_8  and  C_9
REMARK    3  A    between atoms: C_9  and  C_10
REMARK    4  A    between atoms: C_10  and  C_11
REMARK    5  A    between atoms: C_15  and  C_16
REMARK                            x       y       z     vdW  Elec       q    Type
REMARK                         _______ _______ _______ _____ _____    ______ ____
ROOT
ATOM      1  C   UNL     1      43.332   4.471  11.177  0.00  0.00    +0.000 C 
ENDROOT
BRANCH   1   6
ATOM      2  C   UNL     1      46.451   2.463   7.711  0.00  0.00    +0.000 A 
ATOM      3  C   UNL     1      45.574   1.830   8.586  0.00  0.00    +0.000 A 
ATOM      4  C   UNL     1      44.682   2.603   9.329  0.00  0.00    +0.000 A 
ATOM      5  C   UNL     1      44.695   3.989   9.202  0.00  0.00    +0.000 A 
ATOM      6  N   UNL     1      43.775   4.817   9.829  0.00  0.00    +0.000 N 
ATOM      7  N   UNL     1      45.569   4.615   8.388  0.00  0.00    +0.000 NA
ATOM      8  C   UNL     1      46.430   3.848   7.668  0.00  0.00    +0.000 A 
ATOM      9  H   UNL     1      44.110   5.769   9.700  0.00  0.00    +0.000 HD
BRANCH   2  11
ATOM     10  N   UNL     1      48.442   2.422   6.326  0.00  0.00    +0.000 N 
ATOM     11  C   UNL     1      47.379   1.722   6.832  0.00  0.00    +0.000 C 
ATOM     12  O   UNL     1      47.234   0.532   6.603  0.00  0.00    +0.000 OA
ATOM     13  H   UNL     1      49.137   1.883   5.824  0.00  0.00    +0.000 HD
ATOM     14  H   UNL     1      48.729   3.317   6.696  0.00  0.00    +0.000 HD
ENDBRANCH   2  11
ENDBRANCH   1   6
BRANCH   1  15
ATOM     15  C   UNL     1      44.533   4.148  12.069  0.00  0.00    +0.000 C 
BRANCH  15  16
ATOM     16  C   UNL     1      45.365   5.371  12.380  0.00  0.00    +0.000 A 
ATOM     17  C   UNL     1      46.516   5.244  13.151  0.00  0.00    +0.000 A 
ATOM     18  C   UNL     1      47.251   6.384  13.446  0.00  0.00    +0.000 A 
ATOM     19  C   UNL     1      46.818   7.617  12.972  0.00  0.00    +0.000 A 
ATOM     20  C   UNL     1      45.650   7.688  12.214  0.00  0.00    +0.000 A 
ATOM     21  N   UNL     1      44.925   6.574  11.930  0.00  0.00    +0.000 NA
BRANCH  20  22
ATOM     22  C   UNL     1      45.111   8.960  11.700  0.00  0.00    +0.000 A 
ATOM     23  C   UNL     1      45.734  10.182  11.976  0.00  0.00    +0.000 A 
ATOM     24  N   UNL     1      45.335  11.393  11.498  0.00  0.00    +0.000 NA
ATOM     25  C   UNL     1      44.242  11.394  10.704  0.00  0.00    +0.000 A 
ATOM     26  C   UNL     1      43.535  10.251  10.390  0.00  0.00    +0.000 A 
ATOM     27  F   UNL     1      42.453  10.310   9.604  0.00  0.00    +0.000 F 
ATOM     28  C   UNL     1      43.964   9.029  10.893  0.00  0.00    +0.000 A 
ENDBRANCH  20  22
ENDBRANCH  15  16
ENDBRANCH   1  15
TORSDOF 5
ENDMDL
MODEL 4
REMARK VINA RESULT:    -8.236      2.611      3.270
REMARK INTER + INTRA:         -11.201
REMARK INTER:                 -10.222
REMARK INTRA:                  -0.979
REMARK UNBOUND:                -0.557
REMARK  Name = 
REMARK  5 active torsions:
REMARK  status: ('A' for Active; 'I' for Inactive)
REMARK    1  A    between atoms: C_2  and  C_4
REMARK    2  A    between atoms: N_8  and  C_9
REMARK    3  A    between atoms: C_9  and  C_10
REMARK    4  A    between atoms: C_10  and  C_11
REMARK    5  A    between atoms: C_15  and  C_16
REMARK                            x       y       z     vdW  Elec       q    Type
REMARK                         _______ _______ _______ _____ _____    ______ ____
ROOT
ATOM      1  C   UNL     1      43.344   4.336  11.161  0.00  0.00    +0.000 C 
ENDROOT
BRANCH   1   6
ATOM      2  C   UNL     1      46.565   2.498   7.695  0.00  0.00    +0.000 A 
ATOM      3  C   UNL     1      45.710   1.819   8.557  0.00  0.00    +0.000 A 
ATOM      4  C   UNL     1      44.781   2.546   9.302  0.00  0.00    +0.000 A 
ATOM      5  C   UNL     1      44.738   3.933   9.190  0.00  0.00    +0.000 A 
ATOM      6  N   UNL     1      43.780   4.714   9.820  0.00  0.00    +0.000 N 
ATOM      7  N   UNL     1      45.590   4.604   8.388  0.00  0.00    +0.000 NA
ATOM      8  C   UNL     1      46.487   3.881   7.666  0.00  0.00    +0.000 A 
ATOM      9  H   UNL     1      44.076   5.681   9.704  0.00  0.00    +0.000 HD
BRANCH   2  11
ATOM     10  N   UNL     1      48.603   2.536   6.381  0.00  0.00    +0.000 N 
ATOM     11  C   UNL     1      47.528   1.806   6.814  0.00  0.00    +0.000 C 
ATOM     12  O   UNL     1      47.400   0.627   6.522  0.00  0.00    +0.000 OA
ATOM     13  H   UNL     1      49.320   2.025   5.877  0.00  0.00    +0.000 HD
ATOM     14  H   UNL     1      48.871   3.413   6.804  0.00  0.00    +0.000 HD
ENDBRANCH   2  11
ENDBRANCH   1   6
BRANCH   1  15
ATOM     15  C   UNL     1      42.744   5.542  11.889  0.00  0.00    +0.000 C 
BRANCH  15  16
ATOM     16  C   UNL     1      43.594   6.784  11.741  0.00  0.00    +0.000 A 
ATOM     17  C   UNL     1      43.051   7.926  11.163  0.00  0.00    +0.000 A 
ATOM     18  C   UNL     1      43.856   9.047  11.014  0.00  0.00    +0.000 A 
ATOM     19  C   UNL     1      45.179   8.997  11.437  0.00  0.00    +0.000 A 
ATOM     20  C   UNL     1      45.676   7.822  11.998  0.00  0.00    +0.000 A 
ATOM     21  N   UNL     1      44.891   6.721  12.139  0.00  0.00    +0.000 NA
BRANCH  20  22
ATOM     22  C   UNL     1      47.074   7.682  12.444  0.00  0.00    +0.000 A 
ATOM     23  C   UNL     1      47.410   6.906  13.560  0.00  0.00    +0.000 A 
ATOM     24  N   UNL     1      48.676   6.680  14.007  0.00  0.00    +0.000 NA
ATOM     25  C   UNL     1      49.673   7.268  13.309  0.00  0.00    +0.000 A 
ATOM     26  C   UNL     1      49.452   8.074  12.211  0.00  0.00    +0.000 A 
ATOM     27  F   UNL     1      50.477   8.639  11.560  0.00  0.00    +0.000 F 
ATOM     28  C   UNL     1      48.150   8.290  11.778  0.00  0.00    +0.000 A 
ENDBRANCH  20  22
ENDBRANCH  15  16
ENDBRANCH   1  15
TORSDOF 5
ENDMDL
MODEL 5
REMARK VINA RESULT:    -8.017      3.448      7.961
REMARK INTER + INTRA:         -10.918
REMARK INTER:                 -10.241
REMARK INTRA:                  -0.678
REMARK UNBOUND:                -0.557
REMARK  Name = 
REMARK  5 active torsions:
REMARK  status: ('A' for Active; 'I' for Inactive)
REMARK    1  A    between atoms: C_2  and  C_4
REMARK    2  A    between atoms: N_8  and  C_9
REMARK    3  A    between atoms: C_9  and  C_10
REMARK    4  A    between atoms: C_10  and  C_11
REMARK    5  A    between atoms: C_15  and  C_16
REMARK                            x       y       z     vdW  Elec       q    Type
REMARK                         _______ _______ _______ _____ _____    ______ ____
ROOT
ATOM      1  C   UNL     1      47.178   6.559  12.791  0.00  0.00    +0.000 C 
ENDROOT
BRANCH   1   6
ATOM      2  C   UNL     1      48.648   4.253  17.068  0.00  0.00    +0.000 A 
ATOM      3  C   UNL     1      48.847   5.567  16.657  0.00  0.00    +0.000 A 
ATOM      4  C   UNL     1      48.193   6.026  15.513  0.00  0.00    +0.000 A 
ATOM      5  C   UNL     1      47.373   5.163  14.792  0.00  0.00    +0.000 A 
ATOM      6  N   UNL     1      46.612   5.572  13.706  0.00  0.00    +0.000 N 
ATOM      7  N   UNL     1      47.205   3.877  15.159  0.00  0.00    +0.000 NA
ATOM      8  C   UNL     1      47.847   3.445  16.278  0.00  0.00    +0.000 A 
ATOM      9  H   UNL     1      46.246   4.724  13.277  0.00  0.00    +0.000 HD
BRANCH   2  11
ATOM     10  N   UNL     1      48.377   3.129  19.200  0.00  0.00    +0.000 N 
ATOM     11  C   UNL     1      49.240   3.703  18.304  0.00  0.00    +0.000 C 
ATOM     12  O   UNL     1      50.445   3.715  18.501  0.00  0.00    +0.000 OA
ATOM     13  H   UNL     1      48.799   2.649  19.986  0.00  0.00    +0.000 HD
ATOM     14  H   UNL     1      47.431   2.874  18.956  0.00  0.00    +0.000 HD
ENDBRANCH   2  11
ENDBRANCH   1   6
BRANCH   1  15
ATOM     15  C   UNL     1      46.074   7.199  11.946  0.00  0.00    +0.000 C 
BRANCH  15  16
ATOM     16  C   UNL     1      45.179   6.170  11.293  0.00  0.00    +0.000 A 
ATOM     17  C   UNL     1      43.849   6.065  11.685  0.00  0.00    +0.000 A 
ATOM     18  C   UNL     1      43.052   5.097  11.091  0.00  0.00    +0.000 A 
ATOM     19  C   UNL     1      43.602   4.256  10.129  0.00  0.00    +0.000 A 
ATOM     20  C   UNL     1      44.944   4.398   9.782  0.00  0.00    +0.000 A 
ATOM     21  N   UNL     1      45.729   5.341  10.369  0.00  0.00    +0.000 NA
BRANCH  20  22
ATOM     22  C   UNL     1      45.607   3.528   8.794  0.00  0.00    +0.000 A 
ATOM     23  C   UNL     1      46.310   4.061   7.707  0.00  0.00    +0.000 A 
ATOM     24  N   UNL     1      46.993   3.334   6.781  0.00  0.00    +0.000 NA
ATOM     25  C   UNL     1      46.972   1.992   6.936  0.00  0.00    +0.000 A 
ATOM     26  C   UNL     1      46.288   1.361   7.955  0.00  0.00    +0.000 A 
ATOM     27  F   UNL     1      46.294   0.026   8.058  0.00  0.00    +0.000 F 
ATOM     28  C   UNL     1      45.597   2.127   8.885  0.00  0.00    +0.000 A 
ENDBRANCH  20  22
ENDBRANCH  15  16
ENDBRANCH   1  15
TORSDOF 5
ENDMDL
MODEL 6
REMARK VINA RESULT:    -7.600      3.505      7.596
REMARK INTER + INTRA:         -10.379
REMARK INTER:                  -9.916
REMARK INTRA:                  -0.464
REMARK UNBOUND:                -0.557
REMARK  Name = 
REMARK  5 active torsions:
REMARK  status: ('A' for Active; 'I' for Inactive)
REMARK    1  A    between atoms: C_2  and  C_4
REMARK    2  A    between atoms: N_8  and  C_9
REMARK    3  A    between atoms: C_9  and  C_10
REMARK    4  A    between atoms: C_10  and  C_11
REMARK    5  A    between atoms: C_15  and  C_16
REMARK                            x       y       z     vdW  Elec       q    Type
REMARK                         _______ _______ _______ _____ _____    ______ ____
ROOT
ATOM      1  C   UNL     1      47.387   7.191  11.732  0.00  0.00    +0.000 C 
ENDROOT
BRANCH   1   6
ATOM      2  C   UNL     1      47.584   4.425  15.983  0.00  0.00    +0.000 A 
ATOM      3  C   UNL     1      47.165   4.060  14.709  0.00  0.00    +0.000 A 
ATOM      4  C   UNL     1      47.369   4.944  13.649  0.00  0.00    +0.000 A 
ATOM      5  C   UNL     1      47.966   6.179  13.884  0.00  0.00    +0.000 A 
ATOM      6  N   UNL     1      48.293   7.068  12.870  0.00  0.00    +0.000 N 
ATOM      7  N   UNL     1      48.338   6.559  15.122  0.00  0.00    +0.000 NA
ATOM      8  C   UNL     1      48.135   5.685  16.145  0.00  0.00    +0.000 A 
ATOM      9  H   UNL     1      48.558   7.939  13.325  0.00  0.00    +0.000 HD
BRANCH   2  11
ATOM     10  N   UNL     1      48.590   3.393  17.934  0.00  0.00    +0.000 N 
ATOM     11  C   UNL     1      47.475   3.524  17.150  0.00  0.00    +0.000 C 
ATOM     12  O   UNL     1      46.430   2.960  17.431  0.00  0.00    +0.000 OA
ATOM     13  H   UNL     1      48.475   2.871  18.796  0.00  0.00    +0.000 HD
ATOM     14  H   UNL     1      49.371   4.031  17.881  0.00  0.00    +0.000 HD
ENDBRANCH   2  11
ENDBRANCH   1   6
BRANCH   1  15
ATOM     15  C   UNL     1      45.943   7.353  12.212  0.00  0.00    +0.000 C 
BRANCH  15  16
ATOM     16  C   UNL     1      45.019   6.313  11.621  0.00  0.00    +0.000 A 
ATOM     17  C   UNL     1      43.712   6.209  12.083  0.00  0.00    +0.000 A 
ATOM     18  C   UNL     1      42.888   5.230  11.544  0.00  0.00    +0.000 A 
ATOM     19  C   UNL     1      43.391   4.376  10.569  0.00  0.00    +0.000 A 
ATOM     20  C   UNL     1      44.714   4.516  10.152  0.00  0.00    +0.000 A 
ATOM     21  N   UNL     1      45.524   5.471  10.683  0.00  0.00    +0.000 NA
BRANCH  20  22
ATOM     22  C   UNL     1      45.329   3.633   9.144  0.00  0.00    +0.000 A 
ATOM     23  C   UNL     1      45.382   2.246   9.323  0.00  0.00    +0.000 A 
ATOM     24  N   UNL     1      45.881   1.356   8.422  0.00  0.00    +0.000 NA
ATOM     25  C   UNL     1      46.368   1.875   7.273  0.00  0.00    +0.000 A 
ATOM     26  C   UNL     1      46.390   3.228   7.005  0.00  0.00    +0.000 A 
ATOM     27  F   UNL     1      46.892   3.689   5.853  0.00  0.00    +0.000 F 
ATOM     28  C   UNL     1      45.877   4.114   7.944  0.00  0.00    +0.000 A 
ENDBRANCH  20  22
ENDBRANCH  15  16
ENDBRANCH   1  15
TORSDOF 5
ENDMDL
MODEL 7
REMARK VINA RESULT:    -7.467      3.624      7.177
REMARK INTER + INTRA:         -10.207
REMARK INTER:                  -9.343
REMARK INTRA:                  -0.864
REMARK UNBOUND:                -0.557
REMARK  Name = 
REMARK  5 active torsions:
REMARK  status: ('A' for Active; 'I' for Inactive)
REMARK    1  A    between atoms: C_2  and  C_4
REMARK    2  A    between atoms: N_8  and  C_9
REMARK    3  A    between atoms: C_9  and  C_10
REMARK    4  A    between atoms: C_10  and  C_11
REMARK    5  A    between atoms: C_15  and  C_16
REMARK                            x       y       z     vdW  Elec       q    Type
REMARK                         _______ _______ _______ _____ _____    ______ ____
ROOT
ATOM      1  C   UNL     1      46.899   4.397  13.933  0.00  0.00    +0.000 C 
ENDROOT
BRANCH   1   6
ATOM      2  C   UNL     1      49.457   8.398  12.141  0.00  0.00    +0.000 A 
ATOM      3  C   UNL     1      48.336   7.759  11.621  0.00  0.00    +0.000 A 
ATOM      4  C   UNL     1      47.696   6.784  12.387  0.00  0.00    +0.000 A 
ATOM      5  C   UNL     1      48.197   6.451  13.642  0.00  0.00    +0.000 A 
ATOM      6  N   UNL     1      47.561   5.567  14.501  0.00  0.00    +0.000 N 
ATOM      7  N   UNL     1      49.306   7.036  14.137  0.00  0.00    +0.000 NA
ATOM      8  C   UNL     1      49.917   7.987  13.380  0.00  0.00    +0.000 A 
ATOM      9  H   UNL     1      48.214   5.385  15.261  0.00  0.00    +0.000 HD
BRANCH   2  11
ATOM     10  N   UNL     1      49.393  10.568  11.057  0.00  0.00    +0.000 N 
ATOM     11  C   UNL     1      50.154   9.492  11.433  0.00  0.00    +0.000 C 
ATOM     12  O   UNL     1      51.358   9.465  11.234  0.00  0.00    +0.000 OA
ATOM     13  H   UNL     1      49.894  11.364  10.681  0.00  0.00    +0.000 HD
ATOM     14  H   UNL     1      48.469  10.736  11.428  0.00  0.00    +0.000 HD
ENDBRANCH   2  11
ENDBRANCH   1   6
BRANCH   1  15
ATOM     15  C   UNL     1      45.384   4.490  14.130  0.00  0.00    +0.000 C 
BRANCH  15  16
ATOM     16  C   UNL     1      44.642   4.645  12.822  0.00  0.00    +0.000 A 
ATOM     17  C   UNL     1      43.399   5.268  12.804  0.00  0.00    +0.000 A 
ATOM     18  C   UNL     1      42.723   5.377  11.596  0.00  0.00    +0.000 A 
ATOM     19  C   UNL     1      43.299   4.856  10.443  0.00  0.00    +0.000 A 
ATOM     20  C   UNL     1      44.543   4.231  10.521  0.00  0.00    +0.000 A 
ATOM     21  N   UNL     1      45.203   4.117  11.704  0.00  0.00    +0.000 NA
BRANCH  20  22
ATOM     22  C   UNL     1      45.206   3.630   9.349  0.00  0.00    +0.000 A 
ATOM     23  C   UNL     1      45.691   4.418   8.300  0.00  0.00    +0.000 A 
ATOM     24  N   UNL     1      46.361   3.951   7.211  0.00  0.00    +0.000 NA
ATOM     25  C   UNL     1      46.555   2.615   7.153  0.00  0.00    +0.000 A 
ATOM     26  C   UNL     1      46.094   1.743   8.118  0.00  0.00    +0.000 A 
ATOM     27  F   UNL     1      46.307   0.426   8.007  0.00  0.00    +0.000 F 
ATOM     28  C   UNL     1      45.411   2.247   9.218  0.00  0.00    +0.000 A 
ENDBRANCH  20  22
ENDBRANCH  15  16
ENDBRANCH   1  15
TORSDOF 5
ENDMDL
MODEL 8
REMARK VINA RESULT:    -7.281      4.438      7.826
REMARK INTER + INTRA:          -9.966
REMARK INTER:                  -9.253
REMARK INTRA:                  -0.713
REMARK UNBOUND:                -0.557
REMARK  Name = 
REMARK  5 active torsions:
REMARK  status: ('A' for Active; 'I' for Inactive)
REMARK    1  A    between atoms: C_2  and  C_4
REMARK    2  A    between atoms: N_8  and  C_9
REMARK    3  A    between atoms: C_9  and  C_10
REMARK    4  A    between atoms: C_10  and  C_11
REMARK    5  A    between atoms: C_15  and  C_16
REMARK                            x       y       z     vdW  Elec       q    Type
REMARK                         _______ _______ _______ _____ _____    ______ ____
ROOT
ATOM      1  C   UNL     1      48.776   6.819  16.706  0.00  0.00    +0.000 C 
ENDROOT
BRANCH   1   6
ATOM      2  C   UNL     1      51.302   2.494  17.526  0.00  0.00    +0.000 A 
ATOM      3  C   UNL     1      51.625   3.792  17.905  0.00  0.00    +0.000 A 
ATOM      4  C   UNL     1      50.683   4.805  17.722  0.00  0.00    +0.000 A 
ATOM      5  C   UNL     1      49.451   4.509  17.147  0.00  0.00    +0.000 A 
ATOM      6  N   UNL     1      48.428   5.438  17.025  0.00  0.00    +0.000 N 
ATOM      7  N   UNL     1      49.144   3.261  16.739  0.00  0.00    +0.000 NA
ATOM      8  C   UNL     1      50.071   2.283  16.927  0.00  0.00    +0.000 A 
ATOM      9  H   UNL     1      47.719   5.009  16.434  0.00  0.00    +0.000 HD
BRANCH   2  11
ATOM     10  N   UNL     1      51.622   0.155  18.085  0.00  0.00    +0.000 N 
ATOM     11  C   UNL     1      52.207   1.347  17.749  0.00  0.00    +0.000 C 
ATOM     12  O   UNL     1      53.415   1.442  17.596  0.00  0.00    +0.000 OA
ATOM     13  H   UNL     1      52.234  -0.652  18.118  0.00  0.00    +0.000 HD
ATOM     14  H   UNL     1      50.634  -0.018  17.966  0.00  0.00    +0.000 HD
ENDBRANCH   2  11
ENDBRANCH   1   6
BRANCH   1  15
ATOM     15  C   UNL     1      49.706   6.871  15.491  0.00  0.00    +0.000 C 
BRANCH  15  16
ATOM     16  C   UNL     1      48.944   6.923  14.186  0.00  0.00    +0.000 A 
ATOM     17  C   UNL     1      49.368   7.778  13.174  0.00  0.00    +0.000 A 
ATOM     18  C   UNL     1      48.639   7.828  11.993  0.00  0.00    +0.000 A 
ATOM     19  C   UNL     1      47.506   7.034  11.856  0.00  0.00    +0.000 A 
ATOM     20  C   UNL     1      47.120   6.204  12.907  0.00  0.00    +0.000 A 
ATOM     21  N   UNL     1      47.828   6.159  14.067  0.00  0.00    +0.000 NA
BRANCH  20  22
ATOM     22  C   UNL     1      45.917   5.354  12.849  0.00  0.00    +0.000 A 
ATOM     23  C   UNL     1      46.007   3.958  12.890  0.00  0.00    +0.000 A 
ATOM     24  N   UNL     1      44.947   3.103  12.895  0.00  0.00    +0.000 NA
ATOM     25  C   UNL     1      43.721   3.666  12.849  0.00  0.00    +0.000 A 
ATOM     26  C   UNL     1      43.518   5.030  12.779  0.00  0.00    +0.000 A 
ATOM     27  F   UNL     1      42.279   5.536  12.727  0.00  0.00    +0.000 F 
ATOM     28  C   UNL     1      44.617   5.879  12.772  0.00  0.00    +0.000 A 
ENDBRANCH  20  22
ENDBRANCH  15  16
ENDBRANCH   1  15
TORSDOF 5
ENDMDL
MODEL 9
REMARK VINA RESULT:    -7.195      3.130      5.623
REMARK INTER + INTRA:          -9.855
REMARK INTER:                  -9.096
REMARK INTRA:                  -0.760
REMARK UNBOUND:                -0.557
REMARK  Name = 
REMARK  5 active torsions:
REMARK  status: ('A' for Active; 'I' for Inactive)
REMARK    1  A    between atoms: C_2  and  C_4
REMARK    2  A    between atoms: N_8  and  C_9
REMARK    3  A    between atoms: C_9  and  C_10
REMARK    4  A    between atoms: C_10  and  C_11
REMARK    5  A    between atoms: C_15  and  C_16
REMARK                            x       y       z     vdW  Elec       q    Type
REMARK                         _______ _______ _______ _____ _____    ______ ____
ROOT
ATOM      1  C   UNL     1      48.502   6.596  14.469  0.00  0.00    +0.000 C 
ENDROOT
BRANCH   1   6
ATOM      2  C   UNL     1      44.793   4.775  11.520  0.00  0.00    +0.000 A 
ATOM      3  C   UNL     1      45.590   4.115  12.449  0.00  0.00    +0.000 A 
ATOM      4  C   UNL     1      46.429   4.863  13.276  0.00  0.00    +0.000 A 
ATOM      5  C   UNL     1      46.473   6.248  13.145  0.00  0.00    +0.000 A 
ATOM      6  N   UNL     1      47.204   7.066  13.994  0.00  0.00    +0.000 N 
ATOM      7  N   UNL     1      45.735   6.894  12.220  0.00  0.00    +0.000 NA
ATOM      8  C   UNL     1      44.920   6.151  11.424  0.00  0.00    +0.000 A 
ATOM      9  H   UNL     1      47.191   7.996  13.580  0.00  0.00    +0.000 HD
BRANCH   2  11
ATOM     10  N   UNL     1      43.817   4.414   9.329  0.00  0.00    +0.000 N 
ATOM     11  C   UNL     1      43.823   4.073  10.655  0.00  0.00    +0.000 C 
ATOM     12  O   UNL     1      43.091   3.196  11.089  0.00  0.00    +0.000 OA
ATOM     13  H   UNL     1      43.237   3.848   8.721  0.00  0.00    +0.000 HD
ATOM     14  H   UNL     1      44.569   4.934   8.898  0.00  0.00    +0.000 HD
ENDBRANCH   2  11
ENDBRANCH   1   6
BRANCH   1  15
ATOM     15  C   UNL     1      48.545   6.595  15.999  0.00  0.00    +0.000 C 
BRANCH  15  16
ATOM     16  C   UNL     1      48.583   5.197  16.573  0.00  0.00    +0.000 A 
ATOM     17  C   UNL     1      47.394   4.512  16.799  0.00  0.00    +0.000 A 
ATOM     18  C   UNL     1      47.450   3.239  17.350  0.00  0.00    +0.000 A 
ATOM     19  C   UNL     1      48.686   2.688  17.668  0.00  0.00    +0.000 A 
ATOM     20  C   UNL     1      49.846   3.424  17.432  0.00  0.00    +0.000 A 
ATOM     21  N   UNL     1      49.792   4.673  16.898  0.00  0.00    +0.000 NA
BRANCH  20  22
ATOM     22  C   UNL     1      51.190   2.920  17.767  0.00  0.00    +0.000 A 
ATOM     23  C   UNL     1      52.106   3.702  18.481  0.00  0.00    +0.000 A 
ATOM     24  N   UNL     1      53.344   3.296  18.877  0.00  0.00    +0.000 NA
ATOM     25  C   UNL     1      53.701   2.039  18.537  0.00  0.00    +0.000 A 
ATOM     26  C   UNL     1      52.888   1.193  17.810  0.00  0.00    +0.000 A 
ATOM     27  F   UNL     1      53.295  -0.042  17.493  0.00  0.00    +0.000 F 
ATOM     28  C   UNL     1      51.630   1.634  17.416  0.00  0.00    +0.000 A 
ENDBRANCH  20  22
ENDBRANCH  15  16
ENDBRANCH   1  15
TORSDOF 5
ENDMDL
