MODEL 1
REMARK VINA RESULT:    -9.286      0.000      0.000
REMARK INTER + INTRA:         -12.688
REMARK INTER:                 -11.457
REMARK INTRA:                  -1.232
REMARK UNBOUND:                -1.232
REMARK  Name = 
REMARK  4 active torsions:
REMARK  status: ('A' for Active; 'I' for Inactive)
REMARK    1  A    between atoms: C_2  and  C_4
REMARK    2  A    between atoms: N_8  and  C_9
REMARK    3  A    between atoms: C_9  and  C_10
REMARK    4  A    between atoms: C_14  and  C_15
REMARK                            x       y       z     vdW  Elec       q    Type
REMARK                         _______ _______ _______ _____ _____    ______ ____
ROOT
ATOM      1  C   UNL     1      43.805   4.915  11.343  0.00  0.00    +0.000 C 
ATOM      2  C   UNL     1      42.465   5.232  11.997  0.00  0.00    +0.000 C 
ATOM      3  C   UNL     1      43.039   6.175  10.993  0.00  0.00    +0.000 C 
ENDROOT
BRANCH   1   8
ATOM      4  C   UNL     1      46.598   2.695   7.541  0.00  0.00    +0.000 A 
ATOM      5  C   UNL     1      46.307   4.046   7.724  0.00  0.00    +0.000 A 
ATOM      6  C   UNL     1      45.408   4.423   8.728  0.00  0.00    +0.000 A 
ATOM      7  C   UNL     1      44.814   3.448   9.522  0.00  0.00    +0.000 A 
ATOM      8  N   UNL     1      43.815   3.728  10.464  0.00  0.00    +0.000 N 
ATOM      9  N   UNL     1      45.097   2.137   9.359  0.00  0.00    +0.000 NA
ATOM     10  C   UNL     1      45.973   1.789   8.379  0.00  0.00    +0.000 A 
ATOM     11  H   UNL     1      43.643   2.840  10.934  0.00  0.00    +0.000 HD
BRANCH   4  13
ATOM     12  N   UNL     1      47.744   3.025   5.419  0.00  0.00    +0.000 N 
ATOM     13  C   UNL     1      47.490   2.194   6.476  0.00  0.00    +0.000 C 
ATOM     14  O   UNL     1      47.996   1.081   6.535  0.00  0.00    +0.000 OA
ATOM     15  H   UNL     1      48.413   2.696   4.734  0.00  0.00    +0.000 HD
ATOM     16  H   UNL     1      47.542   4.015   5.433  0.00  0.00    +0.000 HD
ENDBRANCH   4  13
ENDBRANCH   1   8
BRANCH   1  17
ATOM     17  C   UNL     1      45.067   5.037  12.189  0.00  0.00    +0.000 A 
ATOM     18  C   UNL     1      45.557   3.986  12.976  0.00  0.00    +0.000 A 
ATOM     19  C   UNL     1      46.775   4.094  13.647  0.00  0.00    +0.000 A 
ATOM     20  C   UNL     1      47.545   5.248  13.520  0.00  0.00    +0.000 A 
ATOM     21  C   UNL     1      47.117   6.322  12.723  0.00  0.00    +0.000 A 
ATOM     22  C   UNL     1      45.856   6.201  12.111  0.00  0.00    +0.000 A 
BRANCH  21  23
ATOM     23  C   UNL     1      47.983   7.477  12.406  0.00  0.00    +0.000 A 
ATOM     24  C   UNL     1      49.362   7.305  12.177  0.00  0.00    +0.000 A 
ATOM     25  C   UNL     1      50.162   8.349  11.705  0.00  0.00    +0.000 A 
ATOM     26  C   UNL     1      49.595   9.595  11.447  0.00  0.00    +0.000 A 
ATOM     27  C   UNL     1      48.241   9.797  11.697  0.00  0.00    +0.000 A 
ATOM     28 CL   UNL     1      47.527  11.322  11.342  0.00  0.00    +0.000 Cl
ATOM     29  C   UNL     1      47.447   8.759  12.191  0.00  0.00    +0.000 A 
ENDBRANCH  21  23
ENDBRANCH   1  17
TORSDOF 4
ENDMDL
MODEL 2
REMARK VINA RESULT:    -8.895      2.297      3.673
REMARK INTER + INTRA:         -12.207
REMARK INTER:                 -11.543
REMARK INTRA:                  -0.664
REMARK UNBOUND:                -1.232
REMARK  Name = 
REMARK  4 active torsions:
REMARK  status: ('A' for Active; 'I' for Inactive)
REMARK    1  A    between atoms: C_2  and  C_4
REMARK    2  A    between atoms: N_8  and  C_9
REMARK    3  A    between atoms: C_9  and  C_10
REMARK    4  A    between atoms: C_14  and  C_15
REMARK                            x       y       z     vdW  Elec       q    Type
REMARK                         _______ _______ _______ _____ _____    ______ ____
ROOT
ATOM      1  C   UNL     1      43.914   4.868  11.510  0.00  0.00    +0.000 C 
ATOM      2  C   UNL     1      42.767   4.950  12.510  0.00  0.00    +0.000 C 
ATOM      3  C   UNL     1      42.817   5.905  11.366  0.00  0.00    +0.000 C 
ENDROOT
BRANCH   1   8
ATOM      4  C   UNL     1      46.475   2.735   7.500  0.00  0.00    +0.000 A 
ATOM      5  C   UNL     1      46.061   4.057   7.657  0.00  0.00    +0.000 A 
ATOM      6  C   UNL     1      45.248   4.396   8.744  0.00  0.00    +0.000 A 
ATOM      7  C   UNL     1      44.860   3.411   9.647  0.00  0.00    +0.000 A 
ATOM      8  N   UNL     1      43.952   3.641  10.689  0.00  0.00    +0.000 N 
ATOM      9  N   UNL     1      45.264   2.130   9.509  0.00  0.00    +0.000 NA
ATOM     10  C   UNL     1      46.053   1.819   8.447  0.00  0.00    +0.000 A 
ATOM     11  H   UNL     1      43.933   2.767  11.216  0.00  0.00    +0.000 HD
BRANCH   4  13
ATOM     12  N   UNL     1      47.192   2.966   5.186  0.00  0.00    +0.000 N 
ATOM     13  C   UNL     1      47.287   2.268   6.358  0.00  0.00    +0.000 C 
ATOM     14  O   UNL     1      48.030   1.300   6.454  0.00  0.00    +0.000 OA
ATOM     15  H   UNL     1      47.808   2.679   4.436  0.00  0.00    +0.000 HD
ATOM     16  H   UNL     1      46.781   3.888   5.122  0.00  0.00    +0.000 HD
ENDBRANCH   4  13
ENDBRANCH   1   8
BRANCH   1  17
ATOM     17  C   UNL     1      45.297   5.325  11.958  0.00  0.00    +0.000 A 
ATOM     18  C   UNL     1      45.997   6.359  11.322  0.00  0.00    +0.000 A 
ATOM     19  C   UNL     1      47.210   6.828  11.827  0.00  0.00    +0.000 A 
ATOM     20  C   UNL     1      47.733   6.290  13.001  0.00  0.00    +0.000 A 
ATOM     21  C   UNL     1      47.062   5.272  13.696  0.00  0.00    +0.000 A 
ATOM     22  C   UNL     1      45.873   4.783  13.122  0.00  0.00    +0.000 A 
BRANCH  21  23
ATOM     23  C   UNL     1      47.478   4.810  15.038  0.00  0.00    +0.000 A 
ATOM     24  C   UNL     1      47.353   3.457  15.408  0.00  0.00    +0.000 A 
ATOM     25  C   UNL     1      47.900   2.971  16.598  0.00  0.00    +0.000 A 
ATOM     26  C   UNL     1      48.591   3.832  17.447  0.00  0.00    +0.000 A 
ATOM     27  C   UNL     1      48.699   5.179  17.117  0.00  0.00    +0.000 A 
ATOM     28 CL   UNL     1      49.587   6.239  18.142  0.00  0.00    +0.000 Cl
ATOM     29  C   UNL     1      48.132   5.670  15.938  0.00  0.00    +0.000 A 
ENDBRANCH  21  23
ENDBRANCH   1  17
TORSDOF 4
ENDMDL
MODEL 3
REMARK VINA RESULT:    -7.490      4.166      7.124
REMARK INTER + INTRA:         -10.474
REMARK INTER:                  -9.446
REMARK INTRA:                  -1.028
REMARK UNBOUND:                -1.232
REMARK  Name = 
REMARK  4 active torsions:
REMARK  status: ('A' for Active; 'I' for Inactive)
REMARK    1  A    between atoms: C_2  and  C_4
REMARK    2  A    between atoms: N_8  and  C_9
REMARK    3  A    between atoms: C_9  and  C_10
REMARK    4  A    between atoms: C_14  and  C_15
REMARK                            x       y       z     vdW  Elec       q    Type
REMARK                         _______ _______ _______ _____ _____    ______ ____
ROOT
ATOM      1  C   UNL     1      46.278   5.288  13.428  0.00  0.00    +0.000 C 
ATOM      2  C   UNL     1      46.349   4.403  14.667  0.00  0.00    +0.000 C 
ATOM      3  C   UNL     1      47.454   4.361  13.665  0.00  0.00    +0.000 C 
ENDROOT
BRANCH   1   8
ATOM      4  C   UNL     1      48.443   9.638  11.536  0.00  0.00    +0.000 A 
ATOM      5  C   UNL     1      49.011   8.371  11.656  0.00  0.00    +0.000 A 
ATOM      6  C   UNL     1      48.311   7.367  12.335  0.00  0.00    +0.000 A 
ATOM      7  C   UNL     1      47.065   7.649  12.885  0.00  0.00    +0.000 A 
ATOM      8  N   UNL     1      46.355   6.741  13.683  0.00  0.00    +0.000 N 
ATOM      9  N   UNL     1      46.502   8.871  12.767  0.00  0.00    +0.000 NA
ATOM     10  C   UNL     1      47.196   9.833  12.104  0.00  0.00    +0.000 A 
ATOM     11  H   UNL     1      45.461   7.196  13.864  0.00  0.00    +0.000 HD
BRANCH   4  13
ATOM     12  N   UNL     1      50.424  11.020  11.240  0.00  0.00    +0.000 N 
ATOM     13  C   UNL     1      49.125  10.776  10.887  0.00  0.00    +0.000 C 
ATOM     14  O   UNL     1      48.558  11.471  10.055  0.00  0.00    +0.000 OA
ATOM     15  H   UNL     1      50.899  11.757  10.734  0.00  0.00    +0.000 HD
ATOM     16  H   UNL     1      50.997  10.353  11.737  0.00  0.00    +0.000 HD
ENDBRANCH   4  13
ENDBRANCH   1   8
BRANCH   1  17
ATOM     17  C   UNL     1      45.271   4.929  12.341  0.00  0.00    +0.000 A 
ATOM     18  C   UNL     1      43.958   5.419  12.333  0.00  0.00    +0.000 A 
ATOM     19  C   UNL     1      43.099   5.161  11.265  0.00  0.00    +0.000 A 
ATOM     20  C   UNL     1      43.547   4.432  10.165  0.00  0.00    +0.000 A 
ATOM     21  C   UNL     1      44.861   3.941  10.107  0.00  0.00    +0.000 A 
ATOM     22  C   UNL     1      45.679   4.168  11.229  0.00  0.00    +0.000 A 
BRANCH  21  23
ATOM     23  C   UNL     1      45.434   3.335   8.886  0.00  0.00    +0.000 A 
ATOM     24  C   UNL     1      45.928   4.141   7.842  0.00  0.00    +0.000 A 
ATOM     25  C   UNL     1      46.630   3.594   6.765  0.00  0.00    +0.000 A 
ATOM     26  C   UNL     1      46.858   2.222   6.710  0.00  0.00    +0.000 A 
ATOM     27  C   UNL     1      46.351   1.402   7.713  0.00  0.00    +0.000 A 
ATOM     28 CL   UNL     1      46.664  -0.290   7.672  0.00  0.00    +0.000 Cl
ATOM     29  C   UNL     1      45.629   1.946   8.779  0.00  0.00    +0.000 A 
ENDBRANCH  21  23
ENDBRANCH   1  17
TORSDOF 4
ENDMDL
MODEL 4
REMARK VINA RESULT:    -6.943      5.021      8.320
REMARK INTER + INTRA:          -9.799
REMARK INTER:                  -8.691
REMARK INTRA:                  -1.108
REMARK UNBOUND:                -1.232
REMARK  Name = 
REMARK  4 active torsions:
REMARK  status: ('A' for Active; 'I' for Inactive)
REMARK    1  A    between atoms: C_2  and  C_4
REMARK    2  A    between atoms: N_8  and  C_9
REMARK    3  A    between atoms: C_9  and  C_10
REMARK    4  A    between atoms: C_14  and  C_15
REMARK                            x       y       z     vdW  Elec       q    Type
REMARK                         _______ _______ _______ _____ _____    ______ ____
ROOT
ATOM      1  C   UNL     1      49.256   7.973  12.676  0.00  0.00    +0.000 C 
ATOM      2  C   UNL     1      50.197   8.070  11.481  0.00  0.00    +0.000 C 
ATOM      3  C   UNL     1      50.055   9.233  12.405  0.00  0.00    +0.000 C 
ENDROOT
BRANCH   1   8
ATOM      4  C   UNL     1      48.423   6.813  17.691  0.00  0.00    +0.000 A 
ATOM      5  C   UNL     1      48.583   8.070  17.109  0.00  0.00    +0.000 A 
ATOM      6  C   UNL     1      48.952   8.159  15.762  0.00  0.00    +0.000 A 
ATOM      7  C   UNL     1      49.160   6.997  15.026  0.00  0.00    +0.000 A 
ATOM      8  N   UNL     1      49.649   6.998  13.713  0.00  0.00    +0.000 N 
ATOM      9  N   UNL     1      48.999   5.775  15.579  0.00  0.00    +0.000 NA
ATOM     10  C   UNL     1      48.640   5.707  16.888  0.00  0.00    +0.000 A 
ATOM     11  H   UNL     1      49.616   6.020  13.422  0.00  0.00    +0.000 HD
BRANCH   4  13
ATOM     12  N   UNL     1      47.116   5.702  19.416  0.00  0.00    +0.000 N 
ATOM     13  C   UNL     1      48.090   6.615  19.115  0.00  0.00    +0.000 C 
ATOM     14  O   UNL     1      48.667   7.232  20.000  0.00  0.00    +0.000 OA
ATOM     15  H   UNL     1      46.950   5.525  20.400  0.00  0.00    +0.000 HD
ATOM     16  H   UNL     1      46.778   5.016  18.757  0.00  0.00    +0.000 HD
ENDBRANCH   4  13
ENDBRANCH   1   8
BRANCH   1  17
ATOM     17  C   UNL     1      47.754   7.990  12.415  0.00  0.00    +0.000 A 
ATOM     18  C   UNL     1      46.978   9.151  12.530  0.00  0.00    +0.000 A 
ATOM     19  C   UNL     1      45.629   9.156  12.175  0.00  0.00    +0.000 A 
ATOM     20  C   UNL     1      45.035   8.003  11.666  0.00  0.00    +0.000 A 
ATOM     21  C   UNL     1      45.771   6.819  11.503  0.00  0.00    +0.000 A 
ATOM     22  C   UNL     1      47.112   6.836  11.929  0.00  0.00    +0.000 A 
BRANCH  21  23
ATOM     23  C   UNL     1      45.237   5.638  10.791  0.00  0.00    +0.000 A 
ATOM     24  C   UNL     1      45.621   5.358   9.465  0.00  0.00    +0.000 A 
ATOM     25  C   UNL     1      45.269   4.160   8.839  0.00  0.00    +0.000 A 
ATOM     26  C   UNL     1      44.525   3.208   9.530  0.00  0.00    +0.000 A 
ATOM     27  C   UNL     1      44.107   3.476  10.830  0.00  0.00    +0.000 A 
ATOM     28 CL   UNL     1      43.221   2.287  11.704  0.00  0.00    +0.000 Cl
ATOM     29  C   UNL     1      44.439   4.684  11.448  0.00  0.00    +0.000 A 
ENDBRANCH  21  23
ENDBRANCH   1  17
TORSDOF 4
ENDMDL
MODEL 5
REMARK VINA RESULT:    -6.745      4.393      7.582
REMARK INTER + INTRA:          -9.554
REMARK INTER:                  -9.543
REMARK INTRA:                  -0.011
REMARK UNBOUND:                -1.232
REMARK  Name = 
REMARK  4 active torsions:
REMARK  status: ('A' for Active; 'I' for Inactive)
REMARK    1  A    between atoms: C_2  and  C_4
REMARK    2  A    between atoms: N_8  and  C_9
REMARK    3  A    between atoms: C_9  and  C_10
REMARK    4  A    between atoms: C_14  and  C_15
REMARK                            x       y       z     vdW  Elec       q    Type
REMARK                         _______ _______ _______ _____ _____    ______ ____
ROOT
ATOM      1  C   UNL     1      48.501   7.943  12.931  0.00  0.00    +0.000 C 
ATOM      2  C   UNL     1      49.671   7.379  12.132  0.00  0.00    +0.000 C 
ATOM      3  C   UNL     1      49.429   8.852  12.149  0.00  0.00    +0.000 C 
ENDROOT
BRANCH   1   8
ATOM      4  C   UNL     1      48.011   4.348  16.676  0.00  0.00    +0.000 A 
ATOM      5  C   UNL     1      47.218   4.531  15.545  0.00  0.00    +0.000 A 
ATOM      6  C   UNL     1      47.425   5.656  14.737  0.00  0.00    +0.000 A 
ATOM      7  C   UNL     1      48.412   6.575  15.078  0.00  0.00    +0.000 A 
ATOM      8  N   UNL     1      48.602   7.785  14.396  0.00  0.00    +0.000 N 
ATOM      9  N   UNL     1      49.191   6.401  16.167  0.00  0.00    +0.000 NA
ATOM     10  C   UNL     1      48.976   5.304  16.939  0.00  0.00    +0.000 A 
ATOM     11  H   UNL     1      49.434   8.195  14.819  0.00  0.00    +0.000 HD
BRANCH   4  13
ATOM     12  N   UNL     1      48.871   2.936  18.461  0.00  0.00    +0.000 N 
ATOM     13  C   UNL     1      47.834   3.225  17.618  0.00  0.00    +0.000 C 
ATOM     14  O   UNL     1      46.795   2.579  17.657  0.00  0.00    +0.000 OA
ATOM     15  H   UNL     1      48.708   2.212  19.150  0.00  0.00    +0.000 HD
ATOM     16  H   UNL     1      49.643   3.568  18.626  0.00  0.00    +0.000 HD
ENDBRANCH   4  13
ENDBRANCH   1   8
BRANCH   1  17
ATOM     17  C   UNL     1      47.089   7.711  12.404  0.00  0.00    +0.000 A 
ATOM     18  C   UNL     1      46.134   8.733  12.324  0.00  0.00    +0.000 A 
ATOM     19  C   UNL     1      44.890   8.513  11.733  0.00  0.00    +0.000 A 
ATOM     20  C   UNL     1      44.588   7.270  11.180  0.00  0.00    +0.000 A 
ATOM     21  C   UNL     1      45.517   6.219  11.207  0.00  0.00    +0.000 A 
ATOM     22  C   UNL     1      46.736   6.460  11.866  0.00  0.00    +0.000 A 
BRANCH  21  23
ATOM     23  C   UNL     1      45.315   4.954  10.466  0.00  0.00    +0.000 A 
ATOM     24  C   UNL     1      44.485   3.940  10.982  0.00  0.00    +0.000 A 
ATOM     25  C   UNL     1      44.143   2.819  10.222  0.00  0.00    +0.000 A 
ATOM     26  C   UNL     1      44.622   2.689   8.921  0.00  0.00    +0.000 A 
ATOM     27  C   UNL     1      45.469   3.664   8.402  0.00  0.00    +0.000 A 
ATOM     28 CL   UNL     1      46.032   3.530   6.781  0.00  0.00    +0.000 Cl
ATOM     29  C   UNL     1      45.830   4.773   9.171  0.00  0.00    +0.000 A 
ENDBRANCH  21  23
ENDBRANCH   1  17
TORSDOF 4
ENDMDL
MODEL 6
REMARK VINA RESULT:    -6.564      4.163      6.263
REMARK INTER + INTRA:          -9.331
REMARK INTER:                  -8.911
REMARK INTRA:                  -0.419
REMARK UNBOUND:                -1.232
REMARK  Name = 
REMARK  4 active torsions:
REMARK  status: ('A' for Active; 'I' for Inactive)
REMARK    1  A    between atoms: C_2  and  C_4
REMARK    2  A    between atoms: N_8  and  C_9
REMARK    3  A    between atoms: C_9  and  C_10
REMARK    4  A    between atoms: C_14  and  C_15
REMARK                            x       y       z     vdW  Elec       q    Type
REMARK                         _______ _______ _______ _____ _____    ______ ____
ROOT
ATOM      1  C   UNL     1      47.525   8.321  13.319  0.00  0.00    +0.000 C 
ATOM      2  C   UNL     1      47.808   9.591  12.524  0.00  0.00    +0.000 C 
ATOM      3  C   UNL     1      48.414   8.298  12.090  0.00  0.00    +0.000 C 
ENDROOT
BRANCH   1   8
ATOM      4  C   UNL     1      44.551   4.516  11.354  0.00  0.00    +0.000 A 
ATOM      5  C   UNL     1      45.598   5.201  10.738  0.00  0.00    +0.000 A 
ATOM      6  C   UNL     1      46.173   6.300  11.386  0.00  0.00    +0.000 A 
ATOM      7  C   UNL     1      45.689   6.696  12.629  0.00  0.00    +0.000 A 
ATOM      8  N   UNL     1      46.124   7.855  13.287  0.00  0.00    +0.000 N 
ATOM      9  N   UNL     1      44.682   6.034  13.237  0.00  0.00    +0.000 NA
ATOM     10  C   UNL     1      44.136   4.969  12.593  0.00  0.00    +0.000 A 
ATOM     11  H   UNL     1      45.656   7.831  14.193  0.00  0.00    +0.000 HD
BRANCH   4  13
ATOM     12  N   UNL     1      44.135   3.096   9.422  0.00  0.00    +0.000 N 
ATOM     13  C   UNL     1      43.844   3.381  10.728  0.00  0.00    +0.000 C 
ATOM     14  O   UNL     1      43.035   2.708  11.352  0.00  0.00    +0.000 OA
ATOM     15  H   UNL     1      43.697   2.272   9.029  0.00  0.00    +0.000 HD
ATOM     16  H   UNL     1      44.944   3.465   8.942  0.00  0.00    +0.000 HD
ENDBRANCH   4  13
ENDBRANCH   1   8
BRANCH   1  17
ATOM     17  C   UNL     1      48.171   8.170  14.691  0.00  0.00    +0.000 A 
ATOM     18  C   UNL     1      48.259   9.227  15.607  0.00  0.00    +0.000 A 
ATOM     19  C   UNL     1      48.753   9.026  16.896  0.00  0.00    +0.000 A 
ATOM     20  C   UNL     1      49.141   7.751  17.306  0.00  0.00    +0.000 A 
ATOM     21  C   UNL     1      49.049   6.651  16.440  0.00  0.00    +0.000 A 
ATOM     22  C   UNL     1      48.603   6.904  15.129  0.00  0.00    +0.000 A 
BRANCH  21  23
ATOM     23  C   UNL     1      49.264   5.259  16.890  0.00  0.00    +0.000 A 
ATOM     24  C   UNL     1      48.263   4.282  16.720  0.00  0.00    +0.000 A 
ATOM     25  C   UNL     1      48.511   2.930  16.975  0.00  0.00    +0.000 A 
ATOM     26  C   UNL     1      49.771   2.524  17.406  0.00  0.00    +0.000 A 
ATOM     27  C   UNL     1      50.764   3.476  17.611  0.00  0.00    +0.000 A 
ATOM     28 CL   UNL     1      52.336   2.976  18.104  0.00  0.00    +0.000 Cl
ATOM     29  C   UNL     1      50.511   4.830  17.378  0.00  0.00    +0.000 A 
ENDBRANCH  21  23
ENDBRANCH   1  17
TORSDOF 4
ENDMDL
MODEL 7
REMARK VINA RESULT:    -6.495      1.878      2.573
REMARK INTER + INTRA:          -9.245
REMARK INTER:                  -9.251
REMARK INTRA:                   0.005
REMARK UNBOUND:                -1.232
REMARK  Name = 
REMARK  4 active torsions:
REMARK  status: ('A' for Active; 'I' for Inactive)
REMARK    1  A    between atoms: C_2  and  C_4
REMARK    2  A    between atoms: N_8  and  C_9
REMARK    3  A    between atoms: C_9  and  C_10
REMARK    4  A    between atoms: C_14  and  C_15
REMARK                            x       y       z     vdW  Elec       q    Type
REMARK                         _______ _______ _______ _____ _____    ______ ____
ROOT
ATOM      1  C   UNL     1      43.992   4.754  11.774  0.00  0.00    +0.000 C 
ATOM      2  C   UNL     1      44.501   3.822  12.867  0.00  0.00    +0.000 C 
ATOM      3  C   UNL     1      43.164   4.468  13.012  0.00  0.00    +0.000 C 
ENDROOT
BRANCH   1   8
ATOM      4  C   UNL     1      46.365   3.307   7.363  0.00  0.00    +0.000 A 
ATOM      5  C   UNL     1      46.555   4.471   8.104  0.00  0.00    +0.000 A 
ATOM      6  C   UNL     1      45.704   4.744   9.182  0.00  0.00    +0.000 A 
ATOM      7  C   UNL     1      44.681   3.855   9.493  0.00  0.00    +0.000 A 
ATOM      8  N   UNL     1      43.713   4.111  10.474  0.00  0.00    +0.000 N 
ATOM      9  N   UNL     1      44.494   2.719   8.785  0.00  0.00    +0.000 NA
ATOM     10  C   UNL     1      45.330   2.471   7.743  0.00  0.00    +0.000 A 
ATOM     11  H   UNL     1      43.160   3.256  10.524  0.00  0.00    +0.000 HD
BRANCH   4  13
ATOM     12  N   UNL     1      48.491   2.647   6.378  0.00  0.00    +0.000 N 
ATOM     13  C   UNL     1      47.174   2.958   6.177  0.00  0.00    +0.000 C 
ATOM     14  O   UNL     1      46.687   2.936   5.055  0.00  0.00    +0.000 OA
ATOM     15  H   UNL     1      49.013   2.341   5.566  0.00  0.00    +0.000 HD
ATOM     16  H   UNL     1      48.876   2.431   7.287  0.00  0.00    +0.000 HD
ENDBRANCH   4  13
ENDBRANCH   1   8
BRANCH   1  17
ATOM     17  C   UNL     1      44.646   6.123  11.631  0.00  0.00    +0.000 A 
ATOM     18  C   UNL     1      43.913   7.289  11.367  0.00  0.00    +0.000 A 
ATOM     19  C   UNL     1      44.528   8.541  11.355  0.00  0.00    +0.000 A 
ATOM     20  C   UNL     1      45.888   8.655  11.639  0.00  0.00    +0.000 A 
ATOM     21  C   UNL     1      46.665   7.525  11.938  0.00  0.00    +0.000 A 
ATOM     22  C   UNL     1      46.023   6.274  11.880  0.00  0.00    +0.000 A 
BRANCH  21  23
ATOM     23  C   UNL     1      48.055   7.619  12.431  0.00  0.00    +0.000 A 
ATOM     24  C   UNL     1      49.030   8.339  11.714  0.00  0.00    +0.000 A 
ATOM     25  C   UNL     1      50.297   8.587  12.248  0.00  0.00    +0.000 A 
ATOM     26  C   UNL     1      50.617   8.121  13.521  0.00  0.00    +0.000 A 
ATOM     27  C   UNL     1      49.681   7.379  14.234  0.00  0.00    +0.000 A 
ATOM     28 CL   UNL     1      50.056   6.835  15.824  0.00  0.00    +0.000 Cl
ATOM     29  C   UNL     1      48.422   7.112  13.691  0.00  0.00    +0.000 A 
ENDBRANCH  21  23
ENDBRANCH   1  17
TORSDOF 4
ENDMDL
MODEL 8
REMARK VINA RESULT:    -6.300      4.060      6.113
REMARK INTER + INTRA:          -9.005
REMARK INTER:                  -8.540
REMARK INTRA:                  -0.465
REMARK UNBOUND:                -1.232
REMARK  Name = 
REMARK  4 active torsions:
REMARK  status: ('A' for Active; 'I' for Inactive)
REMARK    1  A    between atoms: C_2  and  C_4
REMARK    2  A    between atoms: N_8  and  C_9
REMARK    3  A    between atoms: C_9  and  C_10
REMARK    4  A    between atoms: C_14  and  C_15
REMARK                            x       y       z     vdW  Elec       q    Type
REMARK                         _______ _______ _______ _____ _____    ______ ____
ROOT
ATOM      1  C   UNL     1      47.303   8.577  13.106  0.00  0.00    +0.000 C 
ATOM      2  C   UNL     1      47.393   9.873  12.308  0.00  0.00    +0.000 C 
ATOM      3  C   UNL     1      48.088   8.650  11.811  0.00  0.00    +0.000 C 
ENDROOT
BRANCH   1   8
ATOM      4  C   UNL     1      44.648   4.371  11.543  0.00  0.00    +0.000 A 
ATOM      5  C   UNL     1      45.587   5.115  10.831  0.00  0.00    +0.000 A 
ATOM      6  C   UNL     1      46.076   6.307  11.378  0.00  0.00    +0.000 A 
ATOM      7  C   UNL     1      45.615   6.734  12.619  0.00  0.00    +0.000 A 
ATOM      8  N   UNL     1      45.959   7.972  13.181  0.00  0.00    +0.000 N 
ATOM      9  N   UNL     1      44.712   6.016  13.321  0.00  0.00    +0.000 NA
ATOM     10  C   UNL     1      44.248   4.862  12.774  0.00  0.00    +0.000 A 
ATOM     11  H   UNL     1      45.539   7.961  14.110  0.00  0.00    +0.000 HD
BRANCH   4  13
ATOM     12  N   UNL     1      44.723   2.430  10.077  0.00  0.00    +0.000 N 
ATOM     13  C   UNL     1      44.033   3.132  11.028  0.00  0.00    +0.000 C 
ATOM     14  O   UNL     1      42.951   2.734  11.440  0.00  0.00    +0.000 OA
ATOM     15  H   UNL     1      44.323   1.546   9.787  0.00  0.00    +0.000 HD
ATOM     16  H   UNL     1      45.700   2.587   9.876  0.00  0.00    +0.000 HD
ENDBRANCH   4  13
ENDBRANCH   1   8
BRANCH   1  17
ATOM     17  C   UNL     1      48.069   8.486  14.421  0.00  0.00    +0.000 A 
ATOM     18  C   UNL     1      48.261   9.589  15.264  0.00  0.00    +0.000 A 
ATOM     19  C   UNL     1      48.867   9.446  16.512  0.00  0.00    +0.000 A 
ATOM     20  C   UNL     1      49.267   8.187  16.956  0.00  0.00    +0.000 A 
ATOM     21  C   UNL     1      49.075   7.044  16.166  0.00  0.00    +0.000 A 
ATOM     22  C   UNL     1      48.516   7.236  14.888  0.00  0.00    +0.000 A 
BRANCH  21  23
ATOM     23  C   UNL     1      49.305   5.673  16.672  0.00  0.00    +0.000 A 
ATOM     24  C   UNL     1      50.564   5.289  17.173  0.00  0.00    +0.000 A 
ATOM     25  C   UNL     1      50.752   4.063  17.815  0.00  0.00    +0.000 A 
ATOM     26  C   UNL     1      49.679   3.190  17.975  0.00  0.00    +0.000 A 
ATOM     27  C   UNL     1      48.433   3.535  17.460  0.00  0.00    +0.000 A 
ATOM     28 CL   UNL     1      47.093   2.480  17.689  0.00  0.00    +0.000 Cl
ATOM     29  C   UNL     1      48.250   4.752  16.797  0.00  0.00    +0.000 A 
ENDBRANCH  21  23
ENDBRANCH   1  17
TORSDOF 4
ENDMDL
