MODEL 1
REMARK VINA RESULT:    -9.071      0.000      0.000
REMARK INTER + INTRA:         -12.479
REMARK INTER:                 -11.722
REMARK INTRA:                  -0.757
REMARK UNBOUND:                -0.757
REMARK  Name = 
REMARK  5 active torsions:
REMARK  status: ('A' for Active; 'I' for Inactive)
REMARK    1  A    between atoms: C_2  and  C_4
REMARK    2  A    between atoms: C_8  and  N_9
REMARK    3  A    between atoms: N_9  and  C_10
REMARK    4  A    between atoms: C_10  and  C_11
REMARK    5  A    between atoms: C_15  and  C_16
REMARK                            x       y       z     vdW  Elec       q    Type
REMARK                         _______ _______ _______ _____ _____    ______ ____
ROOT
ATOM      1  C   UNL     1      43.562   6.612  10.963  0.00  0.00    +0.000 C 
ENDROOT
BRANCH   1   2
ATOM      2  C   UNL     1      43.694   5.136  10.744  0.00  0.00    +0.000 A 
ATOM      3  C   UNL     1      43.011   4.232  11.545  0.00  0.00    +0.000 A 
ATOM      4  N   UNL     1      43.086   2.895  11.393  0.00  0.00    +0.000 NA
ATOM      5  C   UNL     1      43.893   2.437  10.404  0.00  0.00    +0.000 A 
ATOM      6  C   UNL     1      44.637   3.237   9.532  0.00  0.00    +0.000 A 
ATOM      7  C   UNL     1      44.516   4.620   9.734  0.00  0.00    +0.000 A 
BRANCH   6   8
ATOM      8  C   UNL     1      45.489   2.670   8.464  0.00  0.00    +0.000 A 
ATOM      9  C   UNL     1      45.943   1.340   8.513  0.00  0.00    +0.000 A 
ATOM     10  C   UNL     1      46.741   0.812   7.497  0.00  0.00    +0.000 A 
ATOM     11  F   UNL     1      47.157  -0.457   7.584  0.00  0.00    +0.000 F 
ATOM     12  C   UNL     1      47.105   1.576   6.401  0.00  0.00    +0.000 A 
ATOM     13  C   UNL     1      46.663   2.883   6.335  0.00  0.00    +0.000 A 
ATOM     14  F   UNL     1      46.995   3.642   5.279  0.00  0.00    +0.000 F 
ATOM     15  C   UNL     1      45.874   3.434   7.344  0.00  0.00    +0.000 A 
ENDBRANCH   6   8
ENDBRANCH   1   2
BRANCH   1  16
ATOM     16  N   UNL     1      44.007   6.960  12.302  0.00  0.00    +0.000 N 
ATOM     17  H   UNL     1      43.297   6.861  13.026  0.00  0.00    +0.000 HD
BRANCH  16  22
ATOM     18  C   UNL     1      46.871   5.205  13.906  0.00  0.00    +0.000 A 
ATOM     19  C   UNL     1      47.906   5.902  13.305  0.00  0.00    +0.000 A 
ATOM     20  N   UNL     1      47.707   6.908  12.423  0.00  0.00    +0.000 NA
ATOM     21  C   UNL     1      46.415   7.226  12.147  0.00  0.00    +0.000 A 
ATOM     22  C   UNL     1      45.293   6.624  12.728  0.00  0.00    +0.000 A 
ATOM     23  C   UNL     1      45.556   5.584  13.620  0.00  0.00    +0.000 A 
BRANCH  18  25
ATOM     24  N   UNL     1      46.970   4.305  16.158  0.00  0.00    +0.000 N 
ATOM     25  C   UNL     1      47.180   4.090  14.823  0.00  0.00    +0.000 C 
ATOM     26  O   UNL     1      47.577   3.010  14.407  0.00  0.00    +0.000 OA
ATOM     27  H   UNL     1      47.083   3.501  16.763  0.00  0.00    +0.000 HD
ATOM     28  H   UNL     1      46.393   5.061  16.500  0.00  0.00    +0.000 HD
ENDBRANCH  18  25
ENDBRANCH  16  22
ENDBRANCH   1  16
TORSDOF 5
ENDMDL
MODEL 2
REMARK VINA RESULT:    -9.043      0.078      1.640
REMARK INTER + INTRA:         -12.443
REMARK INTER:                 -11.694
REMARK INTRA:                  -0.749
REMARK UNBOUND:                -0.757
REMARK  Name = 
REMARK  5 active torsions:
REMARK  status: ('A' for Active; 'I' for Inactive)
REMARK    1  A    between atoms: C_2  and  C_4
REMARK    2  A    between atoms: C_8  and  N_9
REMARK    3  A    between atoms: N_9  and  C_10
REMARK    4  A    between atoms: C_10  and  C_11
REMARK    5  A    between atoms: C_15  and  C_16
REMARK                            x       y       z     vdW  Elec       q    Type
REMARK                         _______ _______ _______ _____ _____    ______ ____
ROOT
ATOM      1  C   UNL     1      43.627   6.686  11.000  0.00  0.00    +0.000 C 
ENDROOT
BRANCH   1   2
ATOM      2  C   UNL     1      43.733   5.208  10.775  0.00  0.00    +0.000 A 
ATOM      3  C   UNL     1      43.040   4.313  11.577  0.00  0.00    +0.000 A 
ATOM      4  N   UNL     1      43.092   2.975  11.421  0.00  0.00    +0.000 NA
ATOM      5  C   UNL     1      43.885   2.508  10.426  0.00  0.00    +0.000 A 
ATOM      6  C   UNL     1      44.639   3.298   9.552  0.00  0.00    +0.000 A 
ATOM      7  C   UNL     1      44.541   4.682   9.759  0.00  0.00    +0.000 A 
BRANCH   6   8
ATOM      8  C   UNL     1      45.475   2.720   8.479  0.00  0.00    +0.000 A 
ATOM      9  C   UNL     1      45.871   3.481   7.364  0.00  0.00    +0.000 A 
ATOM     10  C   UNL     1      46.666   2.928   6.359  0.00  0.00    +0.000 A 
ATOM     11  F   UNL     1      47.017   3.685   5.312  0.00  0.00    +0.000 F 
ATOM     12  C   UNL     1      47.100   1.615   6.428  0.00  0.00    +0.000 A 
ATOM     13  C   UNL     1      46.723   0.856   7.519  0.00  0.00    +0.000 A 
ATOM     14  F   UNL     1      47.137  -0.418   7.613  0.00  0.00    +0.000 F 
ATOM     15  C   UNL     1      45.921   1.384   8.528  0.00  0.00    +0.000 A 
ENDBRANCH   6   8
ENDBRANCH   1   2
BRANCH   1  16
ATOM     16  N   UNL     1      44.106   7.025  12.330  0.00  0.00    +0.000 N 
ATOM     17  H   UNL     1      43.402   6.961  13.064  0.00  0.00    +0.000 HD
BRANCH  16  22
ATOM     18  C   UNL     1      46.914   5.164  13.912  0.00  0.00    +0.000 A 
ATOM     19  C   UNL     1      47.969   5.808  13.286  0.00  0.00    +0.000 A 
ATOM     20  N   UNL     1      47.801   6.812  12.396  0.00  0.00    +0.000 NA
ATOM     21  C   UNL     1      46.520   7.183  12.136  0.00  0.00    +0.000 A 
ATOM     22  C   UNL     1      45.381   6.638  12.740  0.00  0.00    +0.000 A 
ATOM     23  C   UNL     1      45.613   5.597  13.640  0.00  0.00    +0.000 A 
BRANCH  18  25
ATOM     24  N   UNL     1      46.967   4.272  16.168  0.00  0.00    +0.000 N 
ATOM     25  C   UNL     1      47.189   4.047  14.837  0.00  0.00    +0.000 C 
ATOM     26  O   UNL     1      47.567   2.957  14.430  0.00  0.00    +0.000 OA
ATOM     27  H   UNL     1      47.055   3.468  16.778  0.00  0.00    +0.000 HD
ATOM     28  H   UNL     1      46.402   5.042  16.500  0.00  0.00    +0.000 HD
ENDBRANCH  18  25
ENDBRANCH  16  22
ENDBRANCH   1  16
TORSDOF 5
ENDMDL
MODEL 3
REMARK VINA RESULT:    -8.771      1.694      2.873
REMARK INTER + INTRA:         -12.091
REMARK INTER:                 -11.268
REMARK INTRA:                  -0.824
REMARK UNBOUND:                -0.757
REMARK  Name = 
REMARK  5 active torsions:
REMARK  status: ('A' for Active; 'I' for Inactive)
REMARK    1  A    between atoms: C_2  and  C_4
REMARK    2  A    between atoms: C_8  and  N_9
REMARK    3  A    between atoms: N_9  and  C_10
REMARK    4  A    between atoms: C_10  and  C_11
REMARK    5  A    between atoms: C_15  and  C_16
REMARK                            x       y       z     vdW  Elec       q    Type
REMARK                         _______ _______ _______ _____ _____    ______ ____
ROOT
ATOM      1  C   UNL     1      43.643   6.604  11.296  0.00  0.00    +0.000 C 
ENDROOT
BRANCH   1   2
ATOM      2  C   UNL     1      43.736   5.140  10.992  0.00  0.00    +0.000 A 
ATOM      3  C   UNL     1      43.035   4.209  11.745  0.00  0.00    +0.000 A 
ATOM      4  N   UNL     1      43.076   2.881  11.518  0.00  0.00    +0.000 NA
ATOM      5  C   UNL     1      43.865   2.460  10.499  0.00  0.00    +0.000 A 
ATOM      6  C   UNL     1      44.625   3.289   9.668  0.00  0.00    +0.000 A 
ATOM      7  C   UNL     1      44.540   4.661   9.949  0.00  0.00    +0.000 A 
BRANCH   6   8
ATOM      8  C   UNL     1      45.456   2.763   8.565  0.00  0.00    +0.000 A 
ATOM      9  C   UNL     1      45.840   3.573   7.481  0.00  0.00    +0.000 A 
ATOM     10  C   UNL     1      46.630   3.067   6.448  0.00  0.00    +0.000 A 
ATOM     11  F   UNL     1      46.970   3.871   5.432  0.00  0.00    +0.000 F 
ATOM     12  C   UNL     1      47.072   1.755   6.457  0.00  0.00    +0.000 A 
ATOM     13  C   UNL     1      46.707   0.948   7.518  0.00  0.00    +0.000 A 
ATOM     14  F   UNL     1      47.128  -0.326   7.554  0.00  0.00    +0.000 F 
ATOM     15  C   UNL     1      45.909   1.428   8.555  0.00  0.00    +0.000 A 
ENDBRANCH   6   8
ENDBRANCH   1   2
BRANCH   1  16
ATOM     16  N   UNL     1      44.347   6.904  12.532  0.00  0.00    +0.000 N 
ATOM     17  H   UNL     1      43.807   6.741  13.380  0.00  0.00    +0.000 HD
BRANCH  16  22
ATOM     18  C   UNL     1      48.061   7.109  12.395  0.00  0.00    +0.000 A 
ATOM     19  C   UNL     1      48.359   6.021  13.199  0.00  0.00    +0.000 A 
ATOM     20  N   UNL     1      47.414   5.235  13.763  0.00  0.00    +0.000 NA
ATOM     21  C   UNL     1      46.121   5.556  13.495  0.00  0.00    +0.000 A 
ATOM     22  C   UNL     1      45.702   6.600  12.662  0.00  0.00    +0.000 A 
ATOM     23  C   UNL     1      46.719   7.386  12.119  0.00  0.00    +0.000 A 
BRANCH  18  25
ATOM     24  N   UNL     1      50.421   7.421  11.923  0.00  0.00    +0.000 N 
ATOM     25  C   UNL     1      49.157   7.940  11.858  0.00  0.00    +0.000 C 
ATOM     26  O   UNL     1      48.942   9.032  11.349  0.00  0.00    +0.000 OA
ATOM     27  H   UNL     1      51.146   7.952  11.456  0.00  0.00    +0.000 HD
ATOM     28  H   UNL     1      50.595   6.436  12.072  0.00  0.00    +0.000 HD
ENDBRANCH  18  25
ENDBRANCH  16  22
ENDBRANCH   1  16
TORSDOF 5
ENDMDL
MODEL 4
REMARK VINA RESULT:    -8.622      4.066      7.098
REMARK INTER + INTRA:         -11.899
REMARK INTER:                 -11.164
REMARK INTRA:                  -0.735
REMARK UNBOUND:                -0.757
REMARK  Name = 
REMARK  5 active torsions:
REMARK  status: ('A' for Active; 'I' for Inactive)
REMARK    1  A    between atoms: C_2  and  C_4
REMARK    2  A    between atoms: C_8  and  N_9
REMARK    3  A    between atoms: N_9  and  C_10
REMARK    4  A    between atoms: C_10  and  C_11
REMARK    5  A    between atoms: C_15  and  C_16
REMARK                            x       y       z     vdW  Elec       q    Type
REMARK                         _______ _______ _______ _____ _____    ______ ____
ROOT
ATOM      1  C   UNL     1      43.598   4.344  10.574  0.00  0.00    +0.000 C 
ENDROOT
BRANCH   1   2
ATOM      2  C   UNL     1      44.723   4.713  11.492  0.00  0.00    +0.000 A 
ATOM      3  C   UNL     1      45.101   3.874  12.531  0.00  0.00    +0.000 A 
ATOM      4  N   UNL     1      46.106   4.150  13.385  0.00  0.00    +0.000 NA
ATOM      5  C   UNL     1      46.757   5.325  13.203  0.00  0.00    +0.000 A 
ATOM      6  C   UNL     1      46.475   6.260  12.203  0.00  0.00    +0.000 A 
ATOM      7  C   UNL     1      45.422   5.918  11.341  0.00  0.00    +0.000 A 
BRANCH   6   8
ATOM      8  C   UNL     1      47.234   7.520  12.054  0.00  0.00    +0.000 A 
ATOM      9  C   UNL     1      48.597   7.521  11.708  0.00  0.00    +0.000 A 
ATOM     10  C   UNL     1      49.303   8.716  11.564  0.00  0.00    +0.000 A 
ATOM     11  F   UNL     1      50.601   8.674  11.239  0.00  0.00    +0.000 F 
ATOM     12  C   UNL     1      48.686   9.942  11.747  0.00  0.00    +0.000 A 
ATOM     13  C   UNL     1      47.346   9.958  12.083  0.00  0.00    +0.000 A 
ATOM     14  F   UNL     1      46.722  11.133  12.258  0.00  0.00    +0.000 F 
ATOM     15  C   UNL     1      46.624   8.776  12.243  0.00  0.00    +0.000 A 
ENDBRANCH   6   8
ENDBRANCH   1   2
BRANCH   1  16
ATOM     16  N   UNL     1      44.034   4.428   9.190  0.00  0.00    +0.000 N 
ATOM     17  H   UNL     1      44.321   5.359   8.890  0.00  0.00    +0.000 HD
BRANCH  16  22
ATOM     18  C   UNL     1      46.514   2.556   7.142  0.00  0.00    +0.000 A 
ATOM     19  C   UNL     1      46.394   1.318   7.750  0.00  0.00    +0.000 A 
ATOM     20  N   UNL     1      45.545   1.075   8.775  0.00  0.00    +0.000 NA
ATOM     21  C   UNL     1      44.784   2.119   9.191  0.00  0.00    +0.000 A 
ATOM     22  C   UNL     1      44.785   3.399   8.624  0.00  0.00    +0.000 A 
ATOM     23  C   UNL     1      45.690   3.597   7.580  0.00  0.00    +0.000 A 
BRANCH  18  25
ATOM     24  N   UNL     1      48.821   2.598   6.388  0.00  0.00    +0.000 N 
ATOM     25  C   UNL     1      47.500   2.744   6.060  0.00  0.00    +0.000 C 
ATOM     26  O   UNL     1      47.153   2.987   4.912  0.00  0.00    +0.000 OA
ATOM     27  H   UNL     1      49.478   2.622   5.618  0.00  0.00    +0.000 HD
ATOM     28  H   UNL     1      49.119   2.132   7.234  0.00  0.00    +0.000 HD
ENDBRANCH  18  25
ENDBRANCH  16  22
ENDBRANCH   1  16
TORSDOF 5
ENDMDL
MODEL 5
REMARK VINA RESULT:    -8.612      4.061      7.156
REMARK INTER + INTRA:         -11.886
REMARK INTER:                 -11.146
REMARK INTRA:                  -0.740
REMARK UNBOUND:                -0.757
REMARK  Name = 
REMARK  5 active torsions:
REMARK  status: ('A' for Active; 'I' for Inactive)
REMARK    1  A    between atoms: C_2  and  C_4
REMARK    2  A    between atoms: C_8  and  N_9
REMARK    3  A    between atoms: N_9  and  C_10
REMARK    4  A    between atoms: C_10  and  C_11
REMARK    5  A    between atoms: C_15  and  C_16
REMARK                            x       y       z     vdW  Elec       q    Type
REMARK                         _______ _______ _______ _____ _____    ______ ____
ROOT
ATOM      1  C   UNL     1      43.586   4.405  10.503  0.00  0.00    +0.000 C 
ENDROOT
BRANCH   1   2
ATOM      2  C   UNL     1      44.634   4.812  11.493  0.00  0.00    +0.000 A 
ATOM      3  C   UNL     1      44.866   4.061  12.636  0.00  0.00    +0.000 A 
ATOM      4  N   UNL     1      45.796   4.373  13.560  0.00  0.00    +0.000 NA
ATOM      5  C   UNL     1      46.521   5.498  13.340  0.00  0.00    +0.000 A 
ATOM      6  C   UNL     1      46.385   6.345  12.236  0.00  0.00    +0.000 A 
ATOM      7  C   UNL     1      45.405   5.967  11.306  0.00  0.00    +0.000 A 
BRANCH   6   8
ATOM      8  C   UNL     1      47.219   7.552  12.053  0.00  0.00    +0.000 A 
ATOM      9  C   UNL     1      46.697   8.844  12.243  0.00  0.00    +0.000 A 
ATOM     10  C   UNL     1      47.495   9.976  12.074  0.00  0.00    +0.000 A 
ATOM     11  F   UNL     1      46.958  11.188  12.260  0.00  0.00    +0.000 F 
ATOM     12  C   UNL     1      48.830   9.868  11.721  0.00  0.00    +0.000 A 
ATOM     13  C   UNL     1      49.359   8.605  11.535  0.00  0.00    +0.000 A 
ATOM     14  F   UNL     1      50.652   8.473  11.201  0.00  0.00    +0.000 F 
ATOM     15  C   UNL     1      48.578   7.461  11.688  0.00  0.00    +0.000 A 
ENDBRANCH   6   8
ENDBRANCH   1   2
BRANCH   1  16
ATOM     16  N   UNL     1      44.114   4.496   9.152  0.00  0.00    +0.000 N 
ATOM     17  H   UNL     1      44.469   5.416   8.894  0.00  0.00    +0.000 HD
BRANCH  16  22
ATOM     18  C   UNL     1      46.561   2.531   7.151  0.00  0.00    +0.000 A 
ATOM     19  C   UNL     1      46.409   1.307   7.780  0.00  0.00    +0.000 A 
ATOM     20  N   UNL     1      45.549   1.101   8.804  0.00  0.00    +0.000 NA
ATOM     21  C   UNL     1      44.810   2.171   9.198  0.00  0.00    +0.000 A 
ATOM     22  C   UNL     1      44.844   3.439   8.607  0.00  0.00    +0.000 A 
ATOM     23  C   UNL     1      45.759   3.598   7.565  0.00  0.00    +0.000 A 
BRANCH  18  25
ATOM     24  N   UNL     1      48.874   2.529   6.414  0.00  0.00    +0.000 N 
ATOM     25  C   UNL     1      47.557   2.676   6.071  0.00  0.00    +0.000 C 
ATOM     26  O   UNL     1      47.220   2.887   4.914  0.00  0.00    +0.000 OA
ATOM     27  H   UNL     1      49.537   2.524   5.649  0.00  0.00    +0.000 HD
ATOM     28  H   UNL     1      49.161   2.088   7.277  0.00  0.00    +0.000 HD
ENDBRANCH  18  25
ENDBRANCH  16  22
ENDBRANCH   1  16
TORSDOF 5
ENDMDL
MODEL 6
REMARK VINA RESULT:    -8.529      3.882      6.943
REMARK INTER + INTRA:         -11.780
REMARK INTER:                 -11.434
REMARK INTRA:                  -0.346
REMARK UNBOUND:                -0.757
REMARK  Name = 
REMARK  5 active torsions:
REMARK  status: ('A' for Active; 'I' for Inactive)
REMARK    1  A    between atoms: C_2  and  C_4
REMARK    2  A    between atoms: C_8  and  N_9
REMARK    3  A    between atoms: N_9  and  C_10
REMARK    4  A    between atoms: C_10  and  C_11
REMARK    5  A    between atoms: C_15  and  C_16
REMARK                            x       y       z     vdW  Elec       q    Type
REMARK                         _______ _______ _______ _____ _____    ______ ____
ROOT
ATOM      1  C   UNL     1      43.519   3.388  11.460  0.00  0.00    +0.000 C 
ENDROOT
BRANCH   1   2
ATOM      2  C   UNL     1      44.719   3.998  12.119  0.00  0.00    +0.000 A 
ATOM      3  C   UNL     1      45.551   3.238  12.930  0.00  0.00    +0.000 A 
ATOM      4  N   UNL     1      46.644   3.728  13.546  0.00  0.00    +0.000 NA
ATOM      5  C   UNL     1      46.913   5.044  13.356  0.00  0.00    +0.000 A 
ATOM      6  C   UNL     1      46.157   5.919  12.571  0.00  0.00    +0.000 A 
ATOM      7  C   UNL     1      45.033   5.352  11.951  0.00  0.00    +0.000 A 
BRANCH   6   8
ATOM      8  C   UNL     1      46.516   7.343  12.397  0.00  0.00    +0.000 A 
ATOM      9  C   UNL     1      47.846   7.746  12.181  0.00  0.00    +0.000 A 
ATOM     10  C   UNL     1      48.173   9.092  12.011  0.00  0.00    +0.000 A 
ATOM     11  F   UNL     1      49.452   9.434  11.813  0.00  0.00    +0.000 F 
ATOM     12  C   UNL     1      47.200  10.077  12.040  0.00  0.00    +0.000 A 
ATOM     13  C   UNL     1      45.887   9.697  12.247  0.00  0.00    +0.000 A 
ATOM     14  F   UNL     1      44.924  10.631  12.272  0.00  0.00    +0.000 F 
ATOM     15  C   UNL     1      45.540   8.359  12.430  0.00  0.00    +0.000 A 
ENDBRANCH   6   8
ENDBRANCH   1   2
BRANCH   1  16
ATOM     16  N   UNL     1      43.937   2.420  10.459  0.00  0.00    +0.000 N 
ATOM     17  H   UNL     1      43.206   1.778  10.156  0.00  0.00    +0.000 HD
BRANCH  16  22
ATOM     18  C   UNL     1      46.448   2.297   7.715  0.00  0.00    +0.000 A 
ATOM     19  C   UNL     1      46.333   3.603   7.269  0.00  0.00    +0.000 A 
ATOM     20  N   UNL     1      45.493   4.505   7.825  0.00  0.00    +0.000 NA
ATOM     21  C   UNL     1      44.749   4.072   8.876  0.00  0.00    +0.000 A 
ATOM     22  C   UNL     1      44.815   2.793   9.441  0.00  0.00    +0.000 A 
ATOM     23  C   UNL     1      45.689   1.900   8.819  0.00  0.00    +0.000 A 
BRANCH  18  25
ATOM     24  N   UNL     1      48.453   1.911   6.401  0.00  0.00    +0.000 N 
ATOM     25  C   UNL     1      47.359   1.367   7.018  0.00  0.00    +0.000 C 
ATOM     26  O   UNL     1      47.163   0.159   7.018  0.00  0.00    +0.000 OA
ATOM     27  H   UNL     1      49.124   1.255   6.021  0.00  0.00    +0.000 HD
ATOM     28  H   UNL     1      48.787   2.841   6.615  0.00  0.00    +0.000 HD
ENDBRANCH  18  25
ENDBRANCH  16  22
ENDBRANCH   1  16
TORSDOF 5
ENDMDL
MODEL 7
REMARK VINA RESULT:    -8.512      1.786      2.134
REMARK INTER + INTRA:         -11.757
REMARK INTER:                 -11.035
REMARK INTRA:                  -0.722
REMARK UNBOUND:                -0.757
REMARK  Name = 
REMARK  5 active torsions:
REMARK  status: ('A' for Active; 'I' for Inactive)
REMARK    1  A    between atoms: C_2  and  C_4
REMARK    2  A    between atoms: C_8  and  N_9
REMARK    3  A    between atoms: N_9  and  C_10
REMARK    4  A    between atoms: C_10  and  C_11
REMARK    5  A    between atoms: C_15  and  C_16
REMARK                            x       y       z     vdW  Elec       q    Type
REMARK                         _______ _______ _______ _____ _____    ______ ____
ROOT
ATOM      1  C   UNL     1      43.804   6.646  11.288  0.00  0.00    +0.000 C 
ENDROOT
BRANCH   1   2
ATOM      2  C   UNL     1      43.845   5.180  10.976  0.00  0.00    +0.000 A 
ATOM      3  C   UNL     1      43.103   4.273  11.718  0.00  0.00    +0.000 A 
ATOM      4  N   UNL     1      43.096   2.945  11.484  0.00  0.00    +0.000 NA
ATOM      5  C   UNL     1      43.877   2.501  10.468  0.00  0.00    +0.000 A 
ATOM      6  C   UNL     1      44.674   3.305   9.649  0.00  0.00    +0.000 A 
ATOM      7  C   UNL     1      44.638   4.678   9.937  0.00  0.00    +0.000 A 
BRANCH   6   8
ATOM      8  C   UNL     1      45.494   2.754   8.549  0.00  0.00    +0.000 A 
ATOM      9  C   UNL     1      45.926   1.416   8.552  0.00  0.00    +0.000 A 
ATOM     10  C   UNL     1      46.695   0.904   7.505  0.00  0.00    +0.000 A 
ATOM     11  F   UNL     1      47.090  -0.374   7.549  0.00  0.00    +0.000 F 
ATOM     12  C   UNL     1      47.050   1.691   6.423  0.00  0.00    +0.000 A 
ATOM     13  C   UNL     1      46.628   3.007   6.403  0.00  0.00    +0.000 A 
ATOM     14  F   UNL     1      46.953   3.789   5.361  0.00  0.00    +0.000 F 
ATOM     15  C   UNL     1      45.870   3.542   7.442  0.00  0.00    +0.000 A 
ENDBRANCH   6   8
ENDBRANCH   1   2
BRANCH   1  16
ATOM     16  N   UNL     1      44.439   6.902  12.570  0.00  0.00    +0.000 N 
ATOM     17  H   UNL     1      44.412   6.119  13.222  0.00  0.00    +0.000 HD
BRANCH  16  22
ATOM     18  C   UNL     1      48.023   7.862  12.856  0.00  0.00    +0.000 A 
ATOM     19  C   UNL     1      47.910   9.197  12.505  0.00  0.00    +0.000 A 
ATOM     20  N   UNL     1      46.731   9.784  12.196  0.00  0.00    +0.000 NA
ATOM     21  C   UNL     1      45.627   8.994  12.253  0.00  0.00    +0.000 A 
ATOM     22  C   UNL     1      45.615   7.649  12.639  0.00  0.00    +0.000 A 
ATOM     23  C   UNL     1      46.859   7.091  12.934  0.00  0.00    +0.000 A 
BRANCH  18  25
ATOM     24  N   UNL     1      50.218   7.179  12.077  0.00  0.00    +0.000 N 
ATOM     25  C   UNL     1      49.357   7.293  13.134  0.00  0.00    +0.000 C 
ATOM     26  O   UNL     1      49.690   6.967  14.266  0.00  0.00    +0.000 OA
ATOM     27  H   UNL     1      51.162   6.889  12.300  0.00  0.00    +0.000 HD
ATOM     28  H   UNL     1      50.083   7.684  11.212  0.00  0.00    +0.000 HD
ENDBRANCH  18  25
ENDBRANCH  16  22
ENDBRANCH   1  16
TORSDOF 5
ENDMDL
MODEL 8
REMARK VINA RESULT:    -8.236      4.369      7.888
REMARK INTER + INTRA:         -11.401
REMARK INTER:                 -10.711
REMARK INTRA:                  -0.690
REMARK UNBOUND:                -0.757
REMARK  Name = 
REMARK  5 active torsions:
REMARK  status: ('A' for Active; 'I' for Inactive)
REMARK    1  A    between atoms: C_2  and  C_4
REMARK    2  A    between atoms: C_8  and  N_9
REMARK    3  A    between atoms: N_9  and  C_10
REMARK    4  A    between atoms: C_10  and  C_11
REMARK    5  A    between atoms: C_15  and  C_16
REMARK                            x       y       z     vdW  Elec       q    Type
REMARK                         _______ _______ _______ _____ _____    ______ ____
ROOT
ATOM      1  C   UNL     1      44.535   5.171  11.200  0.00  0.00    +0.000 C 
ENDROOT
BRANCH   1   2
ATOM      2  C   UNL     1      45.765   5.656  11.903  0.00  0.00    +0.000 A 
ATOM      3  C   UNL     1      46.624   6.562  11.296  0.00  0.00    +0.000 A 
ATOM      4  N   UNL     1      47.742   7.038  11.879  0.00  0.00    +0.000 NA
ATOM      5  C   UNL     1      48.025   6.577  13.122  0.00  0.00    +0.000 A 
ATOM      6  C   UNL     1      47.250   5.663  13.843  0.00  0.00    +0.000 A 
ATOM      7  C   UNL     1      46.096   5.206  13.188  0.00  0.00    +0.000 A 
BRANCH   6   8
ATOM      8  C   UNL     1      47.612   5.212  15.203  0.00  0.00    +0.000 A 
ATOM      9  C   UNL     1      48.537   5.919  15.992  0.00  0.00    +0.000 A 
ATOM     10  C   UNL     1      48.867   5.488  17.277  0.00  0.00    +0.000 A 
ATOM     11  F   UNL     1      49.756   6.188  17.993  0.00  0.00    +0.000 F 
ATOM     12  C   UNL     1      48.289   4.356  17.826  0.00  0.00    +0.000 A 
ATOM     13  C   UNL     1      47.375   3.652  17.066  0.00  0.00    +0.000 A 
ATOM     14  F   UNL     1      46.795   2.556  17.577  0.00  0.00    +0.000 F 
ATOM     15  C   UNL     1      47.039   4.058  15.775  0.00  0.00    +0.000 A 
ENDBRANCH   6   8
ENDBRANCH   1   2
BRANCH   1  16
ATOM     16  N   UNL     1      44.745   5.179   9.762  0.00  0.00    +0.000 N 
ATOM     17  H   UNL     1      45.183   6.025   9.400  0.00  0.00    +0.000 HD
BRANCH  16  22
ATOM     18  C   UNL     1      46.422   2.821   7.421  0.00  0.00    +0.000 A 
ATOM     19  C   UNL     1      46.052   1.630   8.024  0.00  0.00    +0.000 A 
ATOM     20  N   UNL     1      45.284   1.570   9.135  0.00  0.00    +0.000 NA
ATOM     21  C   UNL     1      44.868   2.757   9.649  0.00  0.00    +0.000 A 
ATOM     22  C   UNL     1      45.140   4.016   9.100  0.00  0.00    +0.000 A 
ATOM     23  C   UNL     1      45.947   4.019   7.962  0.00  0.00    +0.000 A 
BRANCH  18  25
ATOM     24  N   UNL     1      48.621   2.498   6.445  0.00  0.00    +0.000 N 
ATOM     25  C   UNL     1      47.302   2.794   6.235  0.00  0.00    +0.000 C 
ATOM     26  O   UNL     1      46.866   2.997   5.110  0.00  0.00    +0.000 OA
ATOM     27  H   UNL     1      49.189   2.377   5.615  0.00  0.00    +0.000 HD
ATOM     28  H   UNL     1      48.948   2.060   7.295  0.00  0.00    +0.000 HD
ENDBRANCH  18  25
ENDBRANCH  16  22
ENDBRANCH   1  16
TORSDOF 5
ENDMDL
