MODEL 1
REMARK VINA RESULT:    -9.094      0.000      0.000
REMARK INTER + INTRA:         -12.605
REMARK INTER:                 -11.752
REMARK INTRA:                  -0.853
REMARK UNBOUND:                -0.853
REMARK  Name = 
REMARK  5 active torsions:
REMARK  status: ('A' for Active; 'I' for Inactive)
REMARK    1  A    between atoms: C_2  and  C_4
REMARK    2  A    between atoms: N_8  and  C_9
REMARK    3  A    between atoms: C_9  and  C_10
REMARK    4  A    between atoms: C_10  and  C_11
REMARK    5  A    between atoms: C_15  and  C_16
REMARK                            x       y       z     vdW  Elec       q    Type
REMARK                         _______ _______ _______ _____ _____    ______ ____
ROOT
ATOM      1  C   UNL     1      43.332   4.468  11.200  0.00  0.00    +0.000 C 
ENDROOT
BRANCH   1   6
ATOM      2  C   UNL     1      46.471   2.509   7.707  0.00  0.00    +0.000 A 
ATOM      3  C   UNL     1      45.642   1.863   8.618  0.00  0.00    +0.000 A 
ATOM      4  C   UNL     1      44.737   2.613   9.369  0.00  0.00    +0.000 A 
ATOM      5  C   UNL     1      44.678   3.996   9.203  0.00  0.00    +0.000 A 
ATOM      6  N   UNL     1      43.733   4.788   9.837  0.00  0.00    +0.000 N 
ATOM      7  N   UNL     1      45.497   4.639   8.344  0.00  0.00    +0.000 NA
ATOM      8  C   UNL     1      46.377   3.890   7.623  0.00  0.00    +0.000 A 
ATOM      9  H   UNL     1      43.977   5.758   9.650  0.00  0.00    +0.000 HD
BRANCH   2  11
ATOM     10  N   UNL     1      48.521   2.468   6.407  0.00  0.00    +0.000 N 
ATOM     11  C   UNL     1      47.418   1.783   6.840  0.00  0.00    +0.000 C 
ATOM     12  O   UNL     1      47.244   0.607   6.544  0.00  0.00    +0.000 OA
ATOM     13  H   UNL     1      49.216   1.933   5.906  0.00  0.00    +0.000 HD
ATOM     14  H   UNL     1      48.817   3.340   6.826  0.00  0.00    +0.000 HD
ENDBRANCH   2  11
ENDBRANCH   1   6
BRANCH   1  15
ATOM     15  C   UNL     1      43.590   5.659  12.130  0.00  0.00    +0.000 C 
BRANCH  15  16
ATOM     16  C   UNL     1      45.027   5.718  12.576  0.00  0.00    +0.000 A 
ATOM     17  C   UNL     1      45.538   4.798  13.479  0.00  0.00    +0.000 A 
ATOM     18  N   UNL     1      46.807   4.820  13.936  0.00  0.00    +0.000 NA
ATOM     19  C   UNL     1      47.607   5.809  13.466  0.00  0.00    +0.000 A 
ATOM     20  C   UNL     1      47.220   6.806  12.568  0.00  0.00    +0.000 A 
ATOM     21  C   UNL     1      45.887   6.732  12.129  0.00  0.00    +0.000 A 
BRANCH  20  22
ATOM     22  C   UNL     1      48.140   7.877  12.126  0.00  0.00    +0.000 A 
ATOM     23  C   UNL     1      47.717   9.217  12.021  0.00  0.00    +0.000 A 
ATOM     24  C   UNL     1      48.596  10.235  11.641  0.00  0.00    +0.000 A 
ATOM     25  C   UNL     1      49.922   9.937  11.342  0.00  0.00    +0.000 A 
ATOM     26  C   UNL     1      50.365   8.622  11.416  0.00  0.00    +0.000 A 
ATOM     27  C   UNL     1      49.484   7.607  11.805  0.00  0.00    +0.000 A 
ENDBRANCH  20  22
ENDBRANCH  15  16
ENDBRANCH   1  15
TORSDOF 5
ENDMDL
MODEL 2
REMARK VINA RESULT:    -8.495      1.180      1.793
REMARK INTER + INTRA:         -11.832
REMARK INTER:                 -11.041
REMARK INTRA:                  -0.791
REMARK UNBOUND:                -0.853
REMARK  Name = 
REMARK  5 active torsions:
REMARK  status: ('A' for Active; 'I' for Inactive)
REMARK    1  A    between atoms: C_2  and  C_4
REMARK    2  A    between atoms: N_8  and  C_9
REMARK    3  A    between atoms: C_9  and  C_10
REMARK    4  A    between atoms: C_10  and  C_11
REMARK    5  A    between atoms: C_15  and  C_16
REMARK                            x       y       z     vdW  Elec       q    Type
REMARK                         _______ _______ _______ _____ _____    ______ ____
ROOT
ATOM      1  C   UNL     1      43.442   3.368  11.710  0.00  0.00    +0.000 C 
ENDROOT
BRANCH   1   6
ATOM      2  C   UNL     1      46.436   2.766   7.640  0.00  0.00    +0.000 A 
ATOM      3  C   UNL     1      45.780   1.811   8.408  0.00  0.00    +0.000 A 
ATOM      4  C   UNL     1      44.870   2.225   9.382  0.00  0.00    +0.000 A 
ATOM      5  C   UNL     1      44.635   3.585   9.577  0.00  0.00    +0.000 A 
ATOM      6  N   UNL     1      43.670   4.062  10.449  0.00  0.00    +0.000 N 
ATOM      7  N   UNL     1      45.287   4.523   8.858  0.00  0.00    +0.000 NA
ATOM      8  C   UNL     1      46.175   4.100   7.916  0.00  0.00    +0.000 A 
ATOM      9  H   UNL     1      43.781   5.073  10.500  0.00  0.00    +0.000 HD
BRANCH   2  11
ATOM     10  N   UNL     1      47.183   3.008   5.343  0.00  0.00    +0.000 N 
ATOM     11  C   UNL     1      47.373   2.409   6.559  0.00  0.00    +0.000 C 
ATOM     12  O   UNL     1      48.304   1.634   6.746  0.00  0.00    +0.000 OA
ATOM     13  H   UNL     1      47.892   2.841   4.642  0.00  0.00    +0.000 HD
ATOM     14  H   UNL     1      46.593   3.821   5.225  0.00  0.00    +0.000 HD
ENDBRANCH   2  11
ENDBRANCH   1   6
BRANCH   1  15
ATOM     15  C   UNL     1      43.562   4.341  12.889  0.00  0.00    +0.000 C 
BRANCH  15  16
ATOM     16  C   UNL     1      44.911   5.012  12.924  0.00  0.00    +0.000 A 
ATOM     17  C   UNL     1      46.043   4.330  13.344  0.00  0.00    +0.000 A 
ATOM     18  N   UNL     1      47.268   4.887  13.424  0.00  0.00    +0.000 NA
ATOM     19  C   UNL     1      47.370   6.191  13.064  0.00  0.00    +0.000 A 
ATOM     20  C   UNL     1      46.313   6.997  12.636  0.00  0.00    +0.000 A 
ATOM     21  C   UNL     1      45.061   6.362  12.575  0.00  0.00    +0.000 A 
BRANCH  20  22
ATOM     22  C   UNL     1      46.494   8.426  12.292  0.00  0.00    +0.000 A 
ATOM     23  C   UNL     1      47.771   8.972  12.059  0.00  0.00    +0.000 A 
ATOM     24  C   UNL     1      47.939  10.312  11.695  0.00  0.00    +0.000 A 
ATOM     25  C   UNL     1      46.832  11.145  11.570  0.00  0.00    +0.000 A 
ATOM     26  C   UNL     1      45.560  10.640  11.813  0.00  0.00    +0.000 A 
ATOM     27  C   UNL     1      45.395   9.297  12.169  0.00  0.00    +0.000 A 
ENDBRANCH  20  22
ENDBRANCH  15  16
ENDBRANCH   1  15
TORSDOF 5
ENDMDL
MODEL 3
REMARK VINA RESULT:    -8.490      1.967      3.644
REMARK INTER + INTRA:         -11.826
REMARK INTER:                 -11.230
REMARK INTRA:                  -0.596
REMARK UNBOUND:                -0.853
REMARK  Name = 
REMARK  5 active torsions:
REMARK  status: ('A' for Active; 'I' for Inactive)
REMARK    1  A    between atoms: C_2  and  C_4
REMARK    2  A    between atoms: N_8  and  C_9
REMARK    3  A    between atoms: C_9  and  C_10
REMARK    4  A    between atoms: C_10  and  C_11
REMARK    5  A    between atoms: C_15  and  C_16
REMARK                            x       y       z     vdW  Elec       q    Type
REMARK                         _______ _______ _______ _____ _____    ______ ____
ROOT
ATOM      1  C   UNL     1      43.421   4.259  11.093  0.00  0.00    +0.000 C 
ENDROOT
BRANCH   1   6
ATOM      2  C   UNL     1      46.656   2.705   7.485  0.00  0.00    +0.000 A 
ATOM      3  C   UNL     1      45.878   1.958   8.362  0.00  0.00    +0.000 A 
ATOM      4  C   UNL     1      44.931   2.604   9.158  0.00  0.00    +0.000 A 
ATOM      5  C   UNL     1      44.781   3.987   9.068  0.00  0.00    +0.000 A 
ATOM      6  N   UNL     1      43.790   4.679   9.747  0.00  0.00    +0.000 N 
ATOM      7  N   UNL     1      45.549   4.728   8.242  0.00  0.00    +0.000 NA
ATOM      8  C   UNL     1      46.471   4.080   7.478  0.00  0.00    +0.000 A 
ATOM      9  H   UNL     1      43.969   5.672   9.614  0.00  0.00    +0.000 HD
BRANCH   2  11
ATOM     10  N   UNL     1      47.922   2.759   5.415  0.00  0.00    +0.000 N 
ATOM     11  C   UNL     1      47.642   2.092   6.576  0.00  0.00    +0.000 C 
ATOM     12  O   UNL     1      48.212   1.045   6.861  0.00  0.00    +0.000 OA
ATOM     13  H   UNL     1      48.676   2.389   4.852  0.00  0.00    +0.000 HD
ATOM     14  H   UNL     1      47.664   3.726   5.269  0.00  0.00    +0.000 HD
ENDBRANCH   2  11
ENDBRANCH   1   6
BRANCH   1  15
ATOM     15  C   UNL     1      43.564   5.426  12.078  0.00  0.00    +0.000 C 
BRANCH  15  16
ATOM     16  C   UNL     1      45.004   5.681  12.437  0.00  0.00    +0.000 A 
ATOM     17  C   UNL     1      45.834   6.415  11.602  0.00  0.00    +0.000 A 
ATOM     18  N   UNL     1      47.137   6.650  11.857  0.00  0.00    +0.000 NA
ATOM     19  C   UNL     1      47.638   6.128  13.005  0.00  0.00    +0.000 A 
ATOM     20  C   UNL     1      46.920   5.362  13.926  0.00  0.00    +0.000 A 
ATOM     21  C   UNL     1      45.569   5.149  13.606  0.00  0.00    +0.000 A 
BRANCH  20  22
ATOM     22  C   UNL     1      47.544   4.795  15.143  0.00  0.00    +0.000 A 
ATOM     23  C   UNL     1      47.462   3.420  15.441  0.00  0.00    +0.000 A 
ATOM     24  C   UNL     1      48.084   2.878  16.570  0.00  0.00    +0.000 A 
ATOM     25  C   UNL     1      48.793   3.700  17.439  0.00  0.00    +0.000 A 
ATOM     26  C   UNL     1      48.874   5.064  17.183  0.00  0.00    +0.000 A 
ATOM     27  C   UNL     1      48.258   5.602  16.048  0.00  0.00    +0.000 A 
ENDBRANCH  20  22
ENDBRANCH  15  16
ENDBRANCH   1  15
TORSDOF 5
ENDMDL
MODEL 4
REMARK VINA RESULT:    -8.045      4.145      7.757
REMARK INTER + INTRA:         -11.250
REMARK INTER:                 -10.676
REMARK INTRA:                  -0.575
REMARK UNBOUND:                -0.853
REMARK  Name = 
REMARK  5 active torsions:
REMARK  status: ('A' for Active; 'I' for Inactive)
REMARK    1  A    between atoms: C_2  and  C_4
REMARK    2  A    between atoms: N_8  and  C_9
REMARK    3  A    between atoms: C_9  and  C_10
REMARK    4  A    between atoms: C_10  and  C_11
REMARK    5  A    between atoms: C_15  and  C_16
REMARK                            x       y       z     vdW  Elec       q    Type
REMARK                         _______ _______ _______ _____ _____    ______ ____
ROOT
ATOM      1  C   UNL     1      46.213   5.743  13.262  0.00  0.00    +0.000 C 
ENDROOT
BRANCH   1   6
ATOM      2  C   UNL     1      49.070   4.068  17.126  0.00  0.00    +0.000 A 
ATOM      3  C   UNL     1      48.850   5.368  16.682  0.00  0.00    +0.000 A 
ATOM      4  C   UNL     1      47.886   5.601  15.701  0.00  0.00    +0.000 A 
ATOM      5  C   UNL     1      47.161   4.533  15.174  0.00  0.00    +0.000 A 
ATOM      6  N   UNL     1      46.118   4.703  14.278  0.00  0.00    +0.000 N 
ATOM      7  N   UNL     1      47.385   3.263  15.575  0.00  0.00    +0.000 NA
ATOM      8  C   UNL     1      48.333   3.055  16.529  0.00  0.00    +0.000 A 
ATOM      9  H   UNL     1      45.840   3.778  13.957  0.00  0.00    +0.000 HD
BRANCH   2  11
ATOM     10  N   UNL     1      50.770   2.601  18.046  0.00  0.00    +0.000 N 
ATOM     11  C   UNL     1      50.034   3.745  18.193  0.00  0.00    +0.000 C 
ATOM     12  O   UNL     1      50.194   4.484  19.158  0.00  0.00    +0.000 OA
ATOM     13  H   UNL     1      51.502   2.445  18.726  0.00  0.00    +0.000 HD
ATOM     14  H   UNL     1      50.841   2.112  17.164  0.00  0.00    +0.000 HD
ENDBRANCH   2  11
ENDBRANCH   1   6
BRANCH   1  15
ATOM     15  C   UNL     1      44.872   5.911  12.537  0.00  0.00    +0.000 C 
BRANCH  15  16
ATOM     16  C   UNL     1      44.526   4.698  11.714  0.00  0.00    +0.000 A 
ATOM     17  C   UNL     1      43.520   3.826  12.105  0.00  0.00    +0.000 A 
ATOM     18  N   UNL     1      43.188   2.711  11.425  0.00  0.00    +0.000 NA
ATOM     19  C   UNL     1      43.892   2.453  10.295  0.00  0.00    +0.000 A 
ATOM     20  C   UNL     1      44.935   3.236   9.794  0.00  0.00    +0.000 A 
ATOM     21  C   UNL     1      45.237   4.383  10.547  0.00  0.00    +0.000 A 
BRANCH  20  22
ATOM     22  C   UNL     1      45.684   2.872   8.571  0.00  0.00    +0.000 A 
ATOM     23  C   UNL     1      45.986   3.827   7.580  0.00  0.00    +0.000 A 
ATOM     24  C   UNL     1      46.728   3.492   6.443  0.00  0.00    +0.000 A 
ATOM     25  C   UNL     1      47.174   2.187   6.259  0.00  0.00    +0.000 A 
ATOM     26  C   UNL     1      46.874   1.218   7.210  0.00  0.00    +0.000 A 
ATOM     27  C   UNL     1      46.140   1.558   8.350  0.00  0.00    +0.000 A 
ENDBRANCH  20  22
ENDBRANCH  15  16
ENDBRANCH   1  15
TORSDOF 5
ENDMDL
MODEL 5
REMARK VINA RESULT:    -7.972      3.233      6.966
REMARK INTER + INTRA:         -11.156
REMARK INTER:                 -10.487
REMARK INTRA:                  -0.669
REMARK UNBOUND:                -0.853
REMARK  Name = 
REMARK  5 active torsions:
REMARK  status: ('A' for Active; 'I' for Inactive)
REMARK    1  A    between atoms: C_2  and  C_4
REMARK    2  A    between atoms: N_8  and  C_9
REMARK    3  A    between atoms: C_9  and  C_10
REMARK    4  A    between atoms: C_10  and  C_11
REMARK    5  A    between atoms: C_15  and  C_16
REMARK                            x       y       z     vdW  Elec       q    Type
REMARK                         _______ _______ _______ _____ _____    ______ ____
ROOT
ATOM      1  C   UNL     1      44.531   6.321  12.776  0.00  0.00    +0.000 C 
ENDROOT
BRANCH   1   6
ATOM      2  C   UNL     1      49.163   8.414  12.525  0.00  0.00    +0.000 A 
ATOM      3  C   UNL     1      48.588   7.432  11.727  0.00  0.00    +0.000 A 
ATOM      4  C   UNL     1      47.233   7.133  11.879  0.00  0.00    +0.000 A 
ATOM      5  C   UNL     1      46.477   7.815  12.831  0.00  0.00    +0.000 A 
ATOM      6  N   UNL     1      45.107   7.646  12.962  0.00  0.00    +0.000 N 
ATOM      7  N   UNL     1      47.029   8.750  13.633  0.00  0.00    +0.000 NA
ATOM      8  C   UNL     1      48.353   9.024  13.473  0.00  0.00    +0.000 A 
ATOM      9  H   UNL     1      44.818   8.155  13.795  0.00  0.00    +0.000 HD
BRANCH   2  11
ATOM     10  N   UNL     1      51.468   7.864  12.001  0.00  0.00    +0.000 N 
ATOM     11  C   UNL     1      50.573   8.822  12.392  0.00  0.00    +0.000 C 
ATOM     12  O   UNL     1      50.927   9.979  12.592  0.00  0.00    +0.000 OA
ATOM     13  H   UNL     1      52.409   8.178  11.808  0.00  0.00    +0.000 HD
ATOM     14  H   UNL     1      51.178   6.984  11.596  0.00  0.00    +0.000 HD
ENDBRANCH   2  11
ENDBRANCH   1   6
BRANCH   1  15
ATOM     15  C   UNL     1      43.919   6.192  11.376  0.00  0.00    +0.000 C 
BRANCH  15  16
ATOM     16  C   UNL     1      43.997   4.778  10.860  0.00  0.00    +0.000 A 
ATOM     17  C   UNL     1      43.291   3.751  11.469  0.00  0.00    +0.000 A 
ATOM     18  N   UNL     1      43.346   2.464  11.070  0.00  0.00    +0.000 NA
ATOM     19  C   UNL     1      44.144   2.188  10.008  0.00  0.00    +0.000 A 
ATOM     20  C   UNL     1      44.917   3.121   9.312  0.00  0.00    +0.000 A 
ATOM     21  C   UNL     1      44.820   4.444   9.775  0.00  0.00    +0.000 A 
BRANCH  20  22
ATOM     22  C   UNL     1      45.793   2.740   8.182  0.00  0.00    +0.000 A 
ATOM     23  C   UNL     1      46.119   3.654   7.161  0.00  0.00    +0.000 A 
ATOM     24  C   UNL     1      46.978   3.307   6.114  0.00  0.00    +0.000 A 
ATOM     25  C   UNL     1      47.523   2.028   6.053  0.00  0.00    +0.000 A 
ATOM     26  C   UNL     1      47.204   1.097   7.034  0.00  0.00    +0.000 A 
ATOM     27  C   UNL     1      46.351   1.451   8.085  0.00  0.00    +0.000 A 
ENDBRANCH  20  22
ENDBRANCH  15  16
ENDBRANCH   1  15
TORSDOF 5
ENDMDL
MODEL 6
REMARK VINA RESULT:    -7.958      3.492      7.045
REMARK INTER + INTRA:         -11.138
REMARK INTER:                 -10.239
REMARK INTRA:                  -0.899
REMARK UNBOUND:                -0.853
REMARK  Name = 
REMARK  5 active torsions:
REMARK  status: ('A' for Active; 'I' for Inactive)
REMARK    1  A    between atoms: C_2  and  C_4
REMARK    2  A    between atoms: N_8  and  C_9
REMARK    3  A    between atoms: C_9  and  C_10
REMARK    4  A    between atoms: C_10  and  C_11
REMARK    5  A    between atoms: C_15  and  C_16
REMARK                            x       y       z     vdW  Elec       q    Type
REMARK                         _______ _______ _______ _____ _____    ______ ____
ROOT
ATOM      1  C   UNL     1      45.256   7.106  12.764  0.00  0.00    +0.000 C 
ENDROOT
BRANCH   1   6
ATOM      2  C   UNL     1      47.871   3.842  15.664  0.00  0.00    +0.000 A 
ATOM      3  C   UNL     1      46.809   3.606  14.798  0.00  0.00    +0.000 A 
ATOM      4  C   UNL     1      46.357   4.637  13.973  0.00  0.00    +0.000 A 
ATOM      5  C   UNL     1      46.970   5.888  14.031  0.00  0.00    +0.000 A 
ATOM      6  N   UNL     1      46.644   6.924  13.168  0.00  0.00    +0.000 N 
ATOM      7  N   UNL     1      47.982   6.139  14.888  0.00  0.00    +0.000 NA
ATOM      8  C   UNL     1      48.405   5.122  15.688  0.00  0.00    +0.000 A 
ATOM      9  H   UNL     1      47.136   7.753  13.492  0.00  0.00    +0.000 HD
BRANCH   2  11
ATOM     10  N   UNL     1      48.106   2.829  17.857  0.00  0.00    +0.000 N 
ATOM     11  C   UNL     1      48.438   2.793  16.530  0.00  0.00    +0.000 C 
ATOM     12  O   UNL     1      49.153   1.905  16.078  0.00  0.00    +0.000 OA
ATOM     13  H   UNL     1      48.410   2.046  18.420  0.00  0.00    +0.000 HD
ATOM     14  H   UNL     1      47.338   3.384  18.208  0.00  0.00    +0.000 HD
ENDBRANCH   2  11
ENDBRANCH   1   6
BRANCH   1  15
ATOM     15  C   UNL     1      45.124   7.019  11.239  0.00  0.00    +0.000 C 
BRANCH  15  16
ATOM     16  C   UNL     1      44.738   5.634  10.789  0.00  0.00    +0.000 A 
ATOM     17  C   UNL     1      43.700   4.944  11.399  0.00  0.00    +0.000 A 
ATOM     18  N   UNL     1      43.330   3.693  11.059  0.00  0.00    +0.000 NA
ATOM     19  C   UNL     1      44.028   3.101  10.058  0.00  0.00    +0.000 A 
ATOM     20  C   UNL     1      45.100   3.673   9.370  0.00  0.00    +0.000 A 
ATOM     21  C   UNL     1      45.441   4.977   9.770  0.00  0.00    +0.000 A 
BRANCH  20  22
ATOM     22  C   UNL     1      45.840   2.952   8.310  0.00  0.00    +0.000 A 
ATOM     23  C   UNL     1      46.321   3.615   7.165  0.00  0.00    +0.000 A 
ATOM     24  C   UNL     1      47.054   2.942   6.182  0.00  0.00    +0.000 A 
ATOM     25  C   UNL     1      47.312   1.581   6.314  0.00  0.00    +0.000 A 
ATOM     26  C   UNL     1      46.833   0.894   7.424  0.00  0.00    +0.000 A 
ATOM     27  C   UNL     1      46.107   1.573   8.409  0.00  0.00    +0.000 A 
ENDBRANCH  20  22
ENDBRANCH  15  16
ENDBRANCH   1  15
TORSDOF 5
ENDMDL
MODEL 7
REMARK VINA RESULT:    -7.906      1.704      2.355
REMARK INTER + INTRA:         -11.070
REMARK INTER:                 -10.116
REMARK INTRA:                  -0.953
REMARK UNBOUND:                -0.853
REMARK  Name = 
REMARK  5 active torsions:
REMARK  status: ('A' for Active; 'I' for Inactive)
REMARK    1  A    between atoms: C_2  and  C_4
REMARK    2  A    between atoms: N_8  and  C_9
REMARK    3  A    between atoms: C_9  and  C_10
REMARK    4  A    between atoms: C_10  and  C_11
REMARK    5  A    between atoms: C_15  and  C_16
REMARK                            x       y       z     vdW  Elec       q    Type
REMARK                         _______ _______ _______ _____ _____    ______ ____
ROOT
ATOM      1  C   UNL     1      43.325   3.539  11.321  0.00  0.00    +0.000 C 
ENDROOT
BRANCH   1   6
ATOM      2  C   UNL     1      46.477   2.817   7.392  0.00  0.00    +0.000 A 
ATOM      3  C   UNL     1      46.043   4.002   7.976  0.00  0.00    +0.000 A 
ATOM      4  C   UNL     1      45.306   3.950   9.161  0.00  0.00    +0.000 A 
ATOM      5  C   UNL     1      45.010   2.717   9.739  0.00  0.00    +0.000 A 
ATOM      6  N   UNL     1      44.377   2.596  10.966  0.00  0.00    +0.000 N 
ATOM      7  N   UNL     1      45.400   1.558   9.166  0.00  0.00    +0.000 NA
ATOM      8  C   UNL     1      46.113   1.628   8.009  0.00  0.00    +0.000 A 
ATOM      9  H   UNL     1      44.169   1.609  11.104  0.00  0.00    +0.000 HD
BRANCH   2  11
ATOM     10  N   UNL     1      48.645   2.588   6.326  0.00  0.00    +0.000 N 
ATOM     11  C   UNL     1      47.300   2.788   6.170  0.00  0.00    +0.000 C 
ATOM     12  O   UNL     1      46.801   2.907   5.057  0.00  0.00    +0.000 OA
ATOM     13  H   UNL     1      49.184   2.462   5.480  0.00  0.00    +0.000 HD
ATOM     14  H   UNL     1      49.046   2.245   7.189  0.00  0.00    +0.000 HD
ENDBRANCH   2  11
ENDBRANCH   1   6
BRANCH   1  15
ATOM     15  C   UNL     1      43.679   4.277  12.618  0.00  0.00    +0.000 C 
BRANCH  15  16
ATOM     16  C   UNL     1      44.365   5.590  12.344  0.00  0.00    +0.000 A 
ATOM     17  C   UNL     1      43.744   6.584  11.603  0.00  0.00    +0.000 A 
ATOM     18  N   UNL     1      44.320   7.766  11.302  0.00  0.00    +0.000 NA
ATOM     19  C   UNL     1      45.579   7.966  11.765  0.00  0.00    +0.000 A 
ATOM     20  C   UNL     1      46.323   7.048  12.509  0.00  0.00    +0.000 A 
ATOM     21  C   UNL     1      45.672   5.836  12.790  0.00  0.00    +0.000 A 
BRANCH  20  22
ATOM     22  C   UNL     1      47.709   7.323  12.952  0.00  0.00    +0.000 A 
ATOM     23  C   UNL     1      48.145   7.001  14.252  0.00  0.00    +0.000 A 
ATOM     24  C   UNL     1      49.464   7.225  14.658  0.00  0.00    +0.000 A 
ATOM     25  C   UNL     1      50.379   7.791  13.777  0.00  0.00    +0.000 A 
ATOM     26  C   UNL     1      49.974   8.138  12.493  0.00  0.00    +0.000 A 
ATOM     27  C   UNL     1      48.655   7.905  12.088  0.00  0.00    +0.000 A 
ENDBRANCH  20  22
ENDBRANCH  15  16
ENDBRANCH   1  15
TORSDOF 5
ENDMDL
MODEL 8
REMARK VINA RESULT:    -7.277      2.867      6.875
REMARK INTER + INTRA:         -10.257
REMARK INTER:                  -9.375
REMARK INTRA:                  -0.882
REMARK UNBOUND:                -0.853
REMARK  Name = 
REMARK  5 active torsions:
REMARK  status: ('A' for Active; 'I' for Inactive)
REMARK    1  A    between atoms: C_2  and  C_4
REMARK    2  A    between atoms: N_8  and  C_9
REMARK    3  A    between atoms: C_9  and  C_10
REMARK    4  A    between atoms: C_10  and  C_11
REMARK    5  A    between atoms: C_15  and  C_16
REMARK                            x       y       z     vdW  Elec       q    Type
REMARK                         _______ _______ _______ _____ _____    ______ ____
ROOT
ATOM      1  C   UNL     1      46.626   4.191  13.722  0.00  0.00    +0.000 C 
ENDROOT
BRANCH   1   6
ATOM      2  C   UNL     1      49.350   8.203  12.180  0.00  0.00    +0.000 A 
ATOM      3  C   UNL     1      48.268   7.578  11.571  0.00  0.00    +0.000 A 
ATOM      4  C   UNL     1      47.568   6.591  12.267  0.00  0.00    +0.000 A 
ATOM      5  C   UNL     1      47.964   6.241  13.557  0.00  0.00    +0.000 A 
ATOM      6  N   UNL     1      47.252   5.349  14.344  0.00  0.00    +0.000 N 
ATOM      7  N   UNL     1      49.031   6.820  14.149  0.00  0.00    +0.000 NA
ATOM      8  C   UNL     1      49.704   7.776  13.451  0.00  0.00    +0.000 A 
ATOM      9  H   UNL     1      47.807   5.173  15.179  0.00  0.00    +0.000 HD
BRANCH   2  11
ATOM     10  N   UNL     1      49.479  10.494  11.388  0.00  0.00    +0.000 N 
ATOM     11  C   UNL     1      50.109   9.288  11.532  0.00  0.00    +0.000 C 
ATOM     12  O   UNL     1      51.268   9.129  11.163  0.00  0.00    +0.000 OA
ATOM     13  H   UNL     1      50.042  11.259  11.043  0.00  0.00    +0.000 HD
ATOM     14  H   UNL     1      48.635  10.728  11.893  0.00  0.00    +0.000 HD
ENDBRANCH   2  11
ENDBRANCH   1   6
BRANCH   1  15
ATOM     15  C   UNL     1      45.110   4.393  13.610  0.00  0.00    +0.000 C 
BRANCH  15  16
ATOM     16  C   UNL     1      44.662   4.475  12.175  0.00  0.00    +0.000 A 
ATOM     17  C   UNL     1      43.521   5.178  11.817  0.00  0.00    +0.000 A 
ATOM     18  N   UNL     1      43.056   5.262  10.554  0.00  0.00    +0.000 NA
ATOM     19  C   UNL     1      43.766   4.613   9.599  0.00  0.00    +0.000 A 
ATOM     20  C   UNL     1      44.922   3.859   9.820  0.00  0.00    +0.000 A 
ATOM     21  C   UNL     1      45.356   3.808  11.155  0.00  0.00    +0.000 A 
BRANCH  20  22
ATOM     22  C   UNL     1      45.626   3.148   8.730  0.00  0.00    +0.000 A 
ATOM     23  C   UNL     1      46.169   3.838   7.629  0.00  0.00    +0.000 A 
ATOM     24  C   UNL     1      46.869   3.171   6.619  0.00  0.00    +0.000 A 
ATOM     25  C   UNL     1      47.032   1.790   6.678  0.00  0.00    +0.000 A 
ATOM     26  C   UNL     1      46.489   1.078   7.742  0.00  0.00    +0.000 A 
ATOM     27  C   UNL     1      45.797   1.751   8.755  0.00  0.00    +0.000 A 
ENDBRANCH  20  22
ENDBRANCH  15  16
ENDBRANCH   1  15
TORSDOF 5
ENDMDL
MODEL 9
REMARK VINA RESULT:    -6.910      3.764      8.025
REMARK INTER + INTRA:          -9.783
REMARK INTER:                  -9.163
REMARK INTRA:                  -0.620
REMARK UNBOUND:                -0.853
REMARK  Name = 
REMARK  5 active torsions:
REMARK  status: ('A' for Active; 'I' for Inactive)
REMARK    1  A    between atoms: C_2  and  C_4
REMARK    2  A    between atoms: N_8  and  C_9
REMARK    3  A    between atoms: C_9  and  C_10
REMARK    4  A    between atoms: C_10  and  C_11
REMARK    5  A    between atoms: C_15  and  C_16
REMARK                            x       y       z     vdW  Elec       q    Type
REMARK                         _______ _______ _______ _____ _____    ______ ____
ROOT
ATOM      1  C   UNL     1      46.516   7.135  11.720  0.00  0.00    +0.000 C 
ENDROOT
BRANCH   1   6
ATOM      2  C   UNL     1      49.432   8.478  15.669  0.00  0.00    +0.000 A 
ATOM      3  C   UNL     1      48.347   9.138  15.101  0.00  0.00    +0.000 A 
ATOM      4  C   UNL     1      47.590   8.492  14.123  0.00  0.00    +0.000 A 
ATOM      5  C   UNL     1      47.932   7.201  13.723  0.00  0.00    +0.000 A 
ATOM      6  N   UNL     1      47.164   6.461  12.837  0.00  0.00    +0.000 N 
ATOM      7  N   UNL     1      49.000   6.560  14.245  0.00  0.00    +0.000 NA
ATOM      8  C   UNL     1      49.730   7.209  15.194  0.00  0.00    +0.000 A 
ATOM      9  H   UNL     1      47.685   5.615  12.618  0.00  0.00    +0.000 HD
BRANCH   2  11
ATOM     10  N   UNL     1      49.600   9.825  17.681  0.00  0.00    +0.000 N 
ATOM     11  C   UNL     1      50.251   9.072  16.741  0.00  0.00    +0.000 C 
ATOM     12  O   UNL     1      51.459   8.875  16.810  0.00  0.00    +0.000 OA
ATOM     13  H   UNL     1      50.151  10.137  18.470  0.00  0.00    +0.000 HD
ATOM     14  H   UNL     1      48.596   9.802  17.794  0.00  0.00    +0.000 HD
ENDBRANCH   2  11
ENDBRANCH   1   6
BRANCH   1  15
ATOM     15  C   UNL     1      44.997   6.935  11.778  0.00  0.00    +0.000 C 
BRANCH  15  16
ATOM     16  C   UNL     1      44.588   5.600  11.212  0.00  0.00    +0.000 A 
ATOM     17  C   UNL     1      43.522   4.890  11.745  0.00  0.00    +0.000 A 
ATOM     18  N   UNL     1      43.130   3.679  11.299  0.00  0.00    +0.000 NA
ATOM     19  C   UNL     1      43.835   3.151  10.267  0.00  0.00    +0.000 A 
ATOM     20  C   UNL     1      44.934   3.750   9.648  0.00  0.00    +0.000 A 
ATOM     21  C   UNL     1      45.297   5.009  10.157  0.00  0.00    +0.000 A 
BRANCH  20  22
ATOM     22  C   UNL     1      45.679   3.097   8.548  0.00  0.00    +0.000 A 
ATOM     23  C   UNL     1      45.948   1.714   8.559  0.00  0.00    +0.000 A 
ATOM     24  C   UNL     1      46.616   1.089   7.502  0.00  0.00    +0.000 A 
ATOM     25  C   UNL     1      47.047   1.836   6.410  0.00  0.00    +0.000 A 
ATOM     26  C   UNL     1      46.814   3.207   6.379  0.00  0.00    +0.000 A 
ATOM     27  C   UNL     1      46.137   3.826   7.435  0.00  0.00    +0.000 A 
ENDBRANCH  20  22
ENDBRANCH  15  16
ENDBRANCH   1  15
TORSDOF 5
ENDMDL
