MODEL 1
REMARK VINA RESULT:    -9.886      0.000      0.000
REMARK INTER + INTRA:         -13.485
REMARK INTER:                 -12.776
REMARK INTRA:                  -0.709
REMARK UNBOUND:                -0.709
REMARK  Name = 
REMARK  5 active torsions:
REMARK  status: ('A' for Active; 'I' for Inactive)
REMARK    1  A    between atoms: C_2  and  C_4
REMARK    2  A    between atoms: N_8  and  C_9
REMARK    3  A    between atoms: C_9  and  C_10
REMARK    4  A    between atoms: C_10  and  C_13
REMARK    5  A    between atoms: C_17  and  C_18
REMARK                            x       y       z     vdW  Elec       q    Type
REMARK                         _______ _______ _______ _____ _____    ______ ____
ROOT
ATOM      1  C   UNL     1      43.506   5.472  12.170  0.00  0.00    +0.000 C 
ATOM      2  F   UNL     1      43.105   6.683  11.670  0.00  0.00    +0.000 F 
ATOM      3  F   UNL     1      42.609   5.192  13.171  0.00  0.00    +0.000 F 
ENDROOT
BRANCH   1   4
ATOM      4  C   UNL     1      44.915   5.536  12.715  0.00  0.00    +0.000 A 
ATOM      5  C   UNL     1      45.439   4.638  13.655  0.00  0.00    +0.000 A 
ATOM      6  C   UNL     1      46.760   4.746  14.073  0.00  0.00    +0.000 A 
ATOM      7  C   UNL     1      47.572   5.766  13.577  0.00  0.00    +0.000 A 
ATOM      8  C   UNL     1      47.083   6.722  12.669  0.00  0.00    +0.000 A 
ATOM      9  C   UNL     1      45.744   6.572  12.251  0.00  0.00    +0.000 A 
ATOM     10  F   UNL     1      45.213   7.459  11.395  0.00  0.00    +0.000 F 
BRANCH   8  11
ATOM     11  C   UNL     1      47.946   7.839  12.205  0.00  0.00    +0.000 A 
ATOM     12  C   UNL     1      49.257   7.624  11.741  0.00  0.00    +0.000 A 
ATOM     13  C   UNL     1      50.052   8.680  11.276  0.00  0.00    +0.000 A 
ATOM     14  C   UNL     1      49.556   9.978  11.286  0.00  0.00    +0.000 A 
ATOM     15 CL   UNL     1      50.526  11.275  10.710  0.00  0.00    +0.000 Cl
ATOM     16  C   UNL     1      48.274  10.230  11.758  0.00  0.00    +0.000 A 
ATOM     17  C   UNL     1      47.478   9.168  12.205  0.00  0.00    +0.000 A 
ENDBRANCH   8  11
ENDBRANCH   1   4
BRANCH   1  18
ATOM     18  C   UNL     1      43.253   4.410  11.069  0.00  0.00    +0.000 C 
BRANCH  18  23
ATOM     19  C   UNL     1      46.548   2.540   7.662  0.00  0.00    +0.000 A 
ATOM     20  C   UNL     1      45.684   1.872   8.524  0.00  0.00    +0.000 A 
ATOM     21  C   UNL     1      44.765   2.607   9.267  0.00  0.00    +0.000 A 
ATOM     22  C   UNL     1      44.731   3.992   9.142  0.00  0.00    +0.000 A 
ATOM     23  N   UNL     1      43.760   4.770   9.739  0.00  0.00    +0.000 N 
ATOM     24  N   UNL     1      45.604   4.655   8.360  0.00  0.00    +0.000 NA
ATOM     25  C   UNL     1      46.495   3.924   7.640  0.00  0.00    +0.000 A 
ATOM     26  H   UNL     1      43.976   5.750   9.563  0.00  0.00    +0.000 HD
BRANCH  19  28
ATOM     27  N   UNL     1      48.534   2.558   6.279  0.00  0.00    +0.000 N 
ATOM     28  C   UNL     1      47.484   1.831   6.769  0.00  0.00    +0.000 C 
ATOM     29  O   UNL     1      47.353   0.642   6.518  0.00  0.00    +0.000 OA
ATOM     30  H   UNL     1      49.241   2.040   5.770  0.00  0.00    +0.000 HD
ATOM     31  H   UNL     1      48.812   3.445   6.676  0.00  0.00    +0.000 HD
ENDBRANCH  19  28
ENDBRANCH  18  23
ENDBRANCH   1  18
TORSDOF 5
ENDMDL
MODEL 2
REMARK VINA RESULT:    -9.586      2.585      3.908
REMARK INTER + INTRA:         -13.098
REMARK INTER:                 -12.413
REMARK INTRA:                  -0.685
REMARK UNBOUND:                -0.709
REMARK  Name = 
REMARK  5 active torsions:
REMARK  status: ('A' for Active; 'I' for Inactive)
REMARK    1  A    between atoms: C_2  and  C_4
REMARK    2  A    between atoms: N_8  and  C_9
REMARK    3  A    between atoms: C_9  and  C_10
REMARK    4  A    between atoms: C_10  and  C_13
REMARK    5  A    between atoms: C_17  and  C_18
REMARK                            x       y       z     vdW  Elec       q    Type
REMARK                         _______ _______ _______ _____ _____    ______ ____
ROOT
ATOM      1  C   UNL     1      43.602   5.823  11.797  0.00  0.00    +0.000 C 
ATOM      2  F   UNL     1      43.006   6.919  11.230  0.00  0.00    +0.000 F 
ATOM      3  F   UNL     1      42.907   5.611  12.962  0.00  0.00    +0.000 F 
ENDROOT
BRANCH   1   4
ATOM      4  C   UNL     1      45.066   6.073  12.083  0.00  0.00    +0.000 A 
ATOM      5  C   UNL     1      45.916   6.813  11.251  0.00  0.00    +0.000 A 
ATOM      6  C   UNL     1      47.242   7.029  11.611  0.00  0.00    +0.000 A 
ATOM      7  C   UNL     1      47.744   6.489  12.795  0.00  0.00    +0.000 A 
ATOM      8  C   UNL     1      46.946   5.699  13.642  0.00  0.00    +0.000 A 
ATOM      9  C   UNL     1      45.602   5.516  13.257  0.00  0.00    +0.000 A 
ATOM     10  F   UNL     1      44.792   4.762  14.015  0.00  0.00    +0.000 F 
BRANCH   8  11
ATOM     11  C   UNL     1      47.520   5.080  14.864  0.00  0.00    +0.000 A 
ATOM     12  C   UNL     1      47.330   3.719  15.170  0.00  0.00    +0.000 A 
ATOM     13  C   UNL     1      47.903   3.137  16.308  0.00  0.00    +0.000 A 
ATOM     14  C   UNL     1      48.663   3.912  17.176  0.00  0.00    +0.000 A 
ATOM     15 CL   UNL     1      49.373   3.199  18.570  0.00  0.00    +0.000 Cl
ATOM     16  C   UNL     1      48.853   5.263  16.917  0.00  0.00    +0.000 A 
ATOM     17  C   UNL     1      48.292   5.835  15.769  0.00  0.00    +0.000 A 
ENDBRANCH   8  11
ENDBRANCH   1   4
BRANCH   1  18
ATOM     18  C   UNL     1      43.287   4.605  10.891  0.00  0.00    +0.000 C 
BRANCH  18  23
ATOM     19  C   UNL     1      46.462   2.293   7.646  0.00  0.00    +0.000 A 
ATOM     20  C   UNL     1      45.673   1.752   8.655  0.00  0.00    +0.000 A 
ATOM     21  C   UNL     1      44.768   2.573   9.322  0.00  0.00    +0.000 A 
ATOM     22  C   UNL     1      44.673   3.917   8.973  0.00  0.00    +0.000 A 
ATOM     23  N   UNL     1      43.707   4.755   9.492  0.00  0.00    +0.000 N 
ATOM     24  N   UNL     1      45.475   4.466   8.042  0.00  0.00    +0.000 NA
ATOM     25  C   UNL     1      46.354   3.653   7.400  0.00  0.00    +0.000 A 
ATOM     26  H   UNL     1      43.874   5.697   9.145  0.00  0.00    +0.000 HD
BRANCH  19  28
ATOM     27  N   UNL     1      48.503   2.092   6.358  0.00  0.00    +0.000 N 
ATOM     28  C   UNL     1      47.375   1.474   6.826  0.00  0.00    +0.000 C 
ATOM     29  O   UNL     1      47.159   0.290   6.615  0.00  0.00    +0.000 OA
ATOM     30  H   UNL     1      49.186   1.498   5.904  0.00  0.00    +0.000 HD
ATOM     31  H   UNL     1      48.835   2.970   6.733  0.00  0.00    +0.000 HD
ENDBRANCH  19  28
ENDBRANCH  18  23
ENDBRANCH   1  18
TORSDOF 5
ENDMDL
MODEL 3
REMARK VINA RESULT:    -9.085      1.925      2.479
REMARK INTER + INTRA:         -12.449
REMARK INTER:                 -11.884
REMARK INTRA:                  -0.565
REMARK UNBOUND:                -0.709
REMARK  Name = 
REMARK  5 active torsions:
REMARK  status: ('A' for Active; 'I' for Inactive)
REMARK    1  A    between atoms: C_2  and  C_4
REMARK    2  A    between atoms: N_8  and  C_9
REMARK    3  A    between atoms: C_9  and  C_10
REMARK    4  A    between atoms: C_10  and  C_13
REMARK    5  A    between atoms: C_17  and  C_18
REMARK                            x       y       z     vdW  Elec       q    Type
REMARK                         _______ _______ _______ _____ _____    ______ ____
ROOT
ATOM      1  C   UNL     1      44.331   4.711  12.283  0.00  0.00    +0.000 C 
ATOM      2  F   UNL     1      43.693   4.503  13.478  0.00  0.00    +0.000 F 
ATOM      3  F   UNL     1      45.276   3.717  12.214  0.00  0.00    +0.000 F 
ENDROOT
BRANCH   1   4
ATOM      4  C   UNL     1      44.983   6.075  12.232  0.00  0.00    +0.000 A 
ATOM      5  C   UNL     1      44.402   7.205  11.642  0.00  0.00    +0.000 A 
ATOM      6  C   UNL     1      45.054   8.432  11.675  0.00  0.00    +0.000 A 
ATOM      7  C   UNL     1      46.307   8.544  12.278  0.00  0.00    +0.000 A 
ATOM      8  C   UNL     1      46.956   7.431  12.843  0.00  0.00    +0.000 A 
ATOM      9  C   UNL     1      46.258   6.207  12.809  0.00  0.00    +0.000 A 
ATOM     10  F   UNL     1      46.828   5.104  13.319  0.00  0.00    +0.000 F 
BRANCH   8  11
ATOM     11  C   UNL     1      48.319   7.561  13.419  0.00  0.00    +0.000 A 
ATOM     12  C   UNL     1      49.421   7.970  12.644  0.00  0.00    +0.000 A 
ATOM     13  C   UNL     1      50.696   8.120  13.205  0.00  0.00    +0.000 A 
ATOM     14  C   UNL     1      50.898   7.843  14.551  0.00  0.00    +0.000 A 
ATOM     15 CL   UNL     1      52.460   8.032  15.244  0.00  0.00    +0.000 Cl
ATOM     16  C   UNL     1      49.838   7.416  15.341  0.00  0.00    +0.000 A 
ATOM     17  C   UNL     1      48.563   7.285  14.779  0.00  0.00    +0.000 A 
ENDBRANCH   8  11
ENDBRANCH   1   4
BRANCH   1  18
ATOM     18  C   UNL     1      43.313   4.404  11.155  0.00  0.00    +0.000 C 
BRANCH  18  23
ATOM     19  C   UNL     1      46.506   2.498   7.673  0.00  0.00    +0.000 A 
ATOM     20  C   UNL     1      45.676   1.839   8.574  0.00  0.00    +0.000 A 
ATOM     21  C   UNL     1      44.778   2.581   9.335  0.00  0.00    +0.000 A 
ATOM     22  C   UNL     1      44.728   3.964   9.187  0.00  0.00    +0.000 A 
ATOM     23  N   UNL     1      43.773   4.745   9.803  0.00  0.00    +0.000 N 
ATOM     24  N   UNL     1      45.569   4.618   8.365  0.00  0.00    +0.000 NA
ATOM     25  C   UNL     1      46.442   3.882   7.628  0.00  0.00    +0.000 A 
ATOM     26  H   UNL     1      43.975   5.723   9.603  0.00  0.00    +0.000 HD
BRANCH  19  28
ATOM     27  N   UNL     1      48.509   2.472   6.313  0.00  0.00    +0.000 N 
ATOM     28  C   UNL     1      47.417   1.781   6.760  0.00  0.00    +0.000 C 
ATOM     29  O   UNL     1      47.230   0.611   6.457  0.00  0.00    +0.000 OA
ATOM     30  H   UNL     1      49.196   1.940   5.791  0.00  0.00    +0.000 HD
ATOM     31  H   UNL     1      48.826   3.327   6.751  0.00  0.00    +0.000 HD
ENDBRANCH  19  28
ENDBRANCH  18  23
ENDBRANCH   1  18
TORSDOF 5
ENDMDL
MODEL 4
REMARK VINA RESULT:    -8.758      2.158      2.705
REMARK INTER + INTRA:         -12.027
REMARK INTER:                 -10.800
REMARK INTRA:                  -1.228
REMARK UNBOUND:                -0.709
REMARK  Name = 
REMARK  5 active torsions:
REMARK  status: ('A' for Active; 'I' for Inactive)
REMARK    1  A    between atoms: C_2  and  C_4
REMARK    2  A    between atoms: N_8  and  C_9
REMARK    3  A    between atoms: C_9  and  C_10
REMARK    4  A    between atoms: C_10  and  C_13
REMARK    5  A    between atoms: C_17  and  C_18
REMARK                            x       y       z     vdW  Elec       q    Type
REMARK                         _______ _______ _______ _____ _____    ______ ____
ROOT
ATOM      1  C   UNL     1      44.470   5.870  11.789  0.00  0.00    +0.000 C 
ATOM      2  F   UNL     1      45.026   6.832  10.987  0.00  0.00    +0.000 F 
ATOM      3  F   UNL     1      43.581   6.549  12.586  0.00  0.00    +0.000 F 
ENDROOT
BRANCH   1   4
ATOM      4  C   UNL     1      45.518   5.173  12.628  0.00  0.00    +0.000 A 
ATOM      5  C   UNL     1      45.624   3.782  12.762  0.00  0.00    +0.000 A 
ATOM      6  C   UNL     1      46.644   3.223  13.523  0.00  0.00    +0.000 A 
ATOM      7  C   UNL     1      47.560   4.044  14.180  0.00  0.00    +0.000 A 
ATOM      8  C   UNL     1      47.470   5.447  14.118  0.00  0.00    +0.000 A 
ATOM      9  C   UNL     1      46.436   5.980  13.322  0.00  0.00    +0.000 A 
ATOM     10  F   UNL     1      46.288   7.311  13.231  0.00  0.00    +0.000 F 
BRANCH   8  11
ATOM     11  C   UNL     1      48.417   6.301  14.880  0.00  0.00    +0.000 A 
ATOM     12  C   UNL     1      49.206   7.284  14.252  0.00  0.00    +0.000 A 
ATOM     13  C   UNL     1      50.071   8.107  14.984  0.00  0.00    +0.000 A 
ATOM     14  C   UNL     1      50.180   7.948  16.361  0.00  0.00    +0.000 A 
ATOM     15 CL   UNL     1      51.237   8.959  17.263  0.00  0.00    +0.000 Cl
ATOM     16  C   UNL     1      49.434   6.973  17.010  0.00  0.00    +0.000 A 
ATOM     17  C   UNL     1      48.557   6.165  16.275  0.00  0.00    +0.000 A 
ENDBRANCH   8  11
ENDBRANCH   1   4
BRANCH   1  18
ATOM     18  C   UNL     1      43.608   4.954  10.883  0.00  0.00    +0.000 C 
BRANCH  18  23
ATOM     19  C   UNL     1      46.506   2.290   7.647  0.00  0.00    +0.000 A 
ATOM     20  C   UNL     1      45.748   1.853   8.729  0.00  0.00    +0.000 A 
ATOM     21  C   UNL     1      44.915   2.757   9.383  0.00  0.00    +0.000 A 
ATOM     22  C   UNL     1      44.861   4.078   8.949  0.00  0.00    +0.000 A 
ATOM     23  N   UNL     1      43.961   4.992   9.457  0.00  0.00    +0.000 N 
ATOM     24  N   UNL     1      45.637   4.527   7.945  0.00  0.00    +0.000 NA
ATOM     25  C   UNL     1      46.444   3.634   7.316  0.00  0.00    +0.000 A 
ATOM     26  H   UNL     1      44.150   5.901   9.041  0.00  0.00    +0.000 HD
BRANCH  19  28
ATOM     27  N   UNL     1      48.387   1.938   6.165  0.00  0.00    +0.000 N 
ATOM     28  C   UNL     1      47.338   1.377   6.841  0.00  0.00    +0.000 C 
ATOM     29  O   UNL     1      47.129   0.173   6.816  0.00  0.00    +0.000 OA
ATOM     30  H   UNL     1      49.028   1.294   5.716  0.00  0.00    +0.000 HD
ATOM     31  H   UNL     1      48.738   2.861   6.378  0.00  0.00    +0.000 HD
ENDBRANCH  19  28
ENDBRANCH  18  23
ENDBRANCH   1  18
TORSDOF 5
ENDMDL
MODEL 5
REMARK VINA RESULT:    -8.181      4.717      7.676
REMARK INTER + INTRA:         -11.282
REMARK INTER:                 -10.660
REMARK INTRA:                  -0.621
REMARK UNBOUND:                -0.709
REMARK  Name = 
REMARK  5 active torsions:
REMARK  status: ('A' for Active; 'I' for Inactive)
REMARK    1  A    between atoms: C_2  and  C_4
REMARK    2  A    between atoms: N_8  and  C_9
REMARK    3  A    between atoms: C_9  and  C_10
REMARK    4  A    between atoms: C_10  and  C_13
REMARK    5  A    between atoms: C_17  and  C_18
REMARK                            x       y       z     vdW  Elec       q    Type
REMARK                         _______ _______ _______ _____ _____    ______ ____
ROOT
ATOM      1  C   UNL     1      44.989   5.820  12.761  0.00  0.00    +0.000 C 
ATOM      2  F   UNL     1      43.994   6.210  13.620  0.00  0.00    +0.000 F 
ATOM      3  F   UNL     1      45.161   6.891  11.917  0.00  0.00    +0.000 F 
ENDROOT
BRANCH   1   4
ATOM      4  C   UNL     1      44.598   4.583  11.984  0.00  0.00    +0.000 A 
ATOM      5  C   UNL     1      43.637   3.656  12.408  0.00  0.00    +0.000 A 
ATOM      6  C   UNL     1      43.310   2.565  11.612  0.00  0.00    +0.000 A 
ATOM      7  C   UNL     1      43.954   2.371  10.390  0.00  0.00    +0.000 A 
ATOM      8  C   UNL     1      44.959   3.244   9.939  0.00  0.00    +0.000 A 
ATOM      9  C   UNL     1      45.253   4.350  10.762  0.00  0.00    +0.000 A 
ATOM     10  F   UNL     1      46.212   5.214  10.394  0.00  0.00    +0.000 F 
BRANCH   8  11
ATOM     11  C   UNL     1      45.678   2.980   8.666  0.00  0.00    +0.000 A 
ATOM     12  C   UNL     1      45.921   3.995   7.721  0.00  0.00    +0.000 A 
ATOM     13  C   UNL     1      46.627   3.743   6.539  0.00  0.00    +0.000 A 
ATOM     14  C   UNL     1      47.088   2.460   6.267  0.00  0.00    +0.000 A 
ATOM     15 CL   UNL     1      47.961   2.148   4.819  0.00  0.00    +0.000 Cl
ATOM     16  C   UNL     1      46.847   1.429   7.165  0.00  0.00    +0.000 A 
ATOM     17  C   UNL     1      46.155   1.691   8.354  0.00  0.00    +0.000 A 
ENDBRANCH   8  11
ENDBRANCH   1   4
BRANCH   1  18
ATOM     18  C   UNL     1      46.298   5.718  13.585  0.00  0.00    +0.000 C 
BRANCH  18  23
ATOM     19  C   UNL     1      49.349   4.148  17.350  0.00  0.00    +0.000 A 
ATOM     20  C   UNL     1      49.130   5.431  16.860  0.00  0.00    +0.000 A 
ATOM     21  C   UNL     1      48.131   5.633  15.912  0.00  0.00    +0.000 A 
ATOM     22  C   UNL     1      47.375   4.551  15.469  0.00  0.00    +0.000 A 
ATOM     23  N   UNL     1      46.282   4.697  14.640  0.00  0.00    +0.000 N 
ATOM     24  N   UNL     1      47.620   3.296  15.889  0.00  0.00    +0.000 NA
ATOM     25  C   UNL     1      48.598   3.115  16.814  0.00  0.00    +0.000 A 
ATOM     26  H   UNL     1      45.932   3.772  14.398  0.00  0.00    +0.000 HD
BRANCH  19  28
ATOM     27  N   UNL     1      49.947   4.202  19.696  0.00  0.00    +0.000 N 
ATOM     28  C   UNL     1      50.320   3.864  18.424  0.00  0.00    +0.000 C 
ATOM     29  O   UNL     1      51.385   3.309  18.194  0.00  0.00    +0.000 OA
ATOM     30  H   UNL     1      50.559   3.893  20.442  0.00  0.00    +0.000 HD
ATOM     31  H   UNL     1      48.989   4.407  19.943  0.00  0.00    +0.000 HD
ENDBRANCH  19  28
ENDBRANCH  18  23
ENDBRANCH   1  18
TORSDOF 5
ENDMDL
MODEL 6
REMARK VINA RESULT:    -7.621      4.009      6.886
REMARK INTER + INTRA:         -10.558
REMARK INTER:                  -9.752
REMARK INTRA:                  -0.806
REMARK UNBOUND:                -0.709
REMARK  Name = 
REMARK  5 active torsions:
REMARK  status: ('A' for Active; 'I' for Inactive)
REMARK    1  A    between atoms: C_2  and  C_4
REMARK    2  A    between atoms: N_8  and  C_9
REMARK    3  A    between atoms: C_9  and  C_10
REMARK    4  A    between atoms: C_10  and  C_13
REMARK    5  A    between atoms: C_17  and  C_18
REMARK                            x       y       z     vdW  Elec       q    Type
REMARK                         _______ _______ _______ _____ _____    ______ ____
ROOT
ATOM      1  C   UNL     1      44.524   6.101  12.489  0.00  0.00    +0.000 C 
ATOM      2  F   UNL     1      43.526   6.390  13.381  0.00  0.00    +0.000 F 
ATOM      3  F   UNL     1      44.475   7.117  11.566  0.00  0.00    +0.000 F 
ENDROOT
BRANCH   1   4
ATOM      4  C   UNL     1      44.302   4.761  11.822  0.00  0.00    +0.000 A 
ATOM      5  C   UNL     1      43.455   3.764  12.321  0.00  0.00    +0.000 A 
ATOM      6  C   UNL     1      43.277   2.575  11.623  0.00  0.00    +0.000 A 
ATOM      7  C   UNL     1      43.962   2.355  10.428  0.00  0.00    +0.000 A 
ATOM      8  C   UNL     1      44.862   3.303   9.908  0.00  0.00    +0.000 A 
ATOM      9  C   UNL     1      45.003   4.505  10.631  0.00  0.00    +0.000 A 
ATOM     10  F   UNL     1      45.855   5.445  10.195  0.00  0.00    +0.000 F 
BRANCH   8  11
ATOM     11  C   UNL     1      45.630   3.018   8.669  0.00  0.00    +0.000 A 
ATOM     12  C   UNL     1      45.943   4.026   7.737  0.00  0.00    +0.000 A 
ATOM     13  C   UNL     1      46.695   3.754   6.587  0.00  0.00    +0.000 A 
ATOM     14  C   UNL     1      47.134   2.460   6.336  0.00  0.00    +0.000 A 
ATOM     15 CL   UNL     1      48.064   2.123   4.930  0.00  0.00    +0.000 Cl
ATOM     16  C   UNL     1      46.826   1.436   7.223  0.00  0.00    +0.000 A 
ATOM     17  C   UNL     1      46.088   1.718   8.379  0.00  0.00    +0.000 A 
ENDBRANCH   8  11
ENDBRANCH   1   4
BRANCH   1  18
ATOM     18  C   UNL     1      45.873   6.272  13.233  0.00  0.00    +0.000 C 
BRANCH  18  23
ATOM     19  C   UNL     1      50.003   8.971  11.961  0.00  0.00    +0.000 A 
ATOM     20  C   UNL     1      49.388   7.918  11.291  0.00  0.00    +0.000 A 
ATOM     21  C   UNL     1      48.174   7.430  11.767  0.00  0.00    +0.000 A 
ATOM     22  C   UNL     1      47.602   7.997  12.901  0.00  0.00    +0.000 A 
ATOM     23  N   UNL     1      46.340   7.660  13.347  0.00  0.00    +0.000 N 
ATOM     24  N   UNL     1      48.219   8.973  13.594  0.00  0.00    +0.000 NA
ATOM     25  C   UNL     1      49.403   9.439  13.118  0.00  0.00    +0.000 A 
ATOM     26  H   UNL     1      46.164   8.148  14.223  0.00  0.00    +0.000 HD
BRANCH  19  28
ATOM     27  N   UNL     1      51.950   8.926  10.522  0.00  0.00    +0.000 N 
ATOM     28  C   UNL     1      51.239   9.610  11.470  0.00  0.00    +0.000 C 
ATOM     29  O   UNL     1      51.584  10.717  11.856  0.00  0.00    +0.000 OA
ATOM     30  H   UNL     1      52.726   9.421  10.098  0.00  0.00    +0.000 HD
ATOM     31  H   UNL     1      51.556   8.156  10.000  0.00  0.00    +0.000 HD
ENDBRANCH  19  28
ENDBRANCH  18  23
ENDBRANCH   1  18
TORSDOF 5
ENDMDL
MODEL 7
REMARK VINA RESULT:    -7.405      4.253      7.015
REMARK INTER + INTRA:         -10.279
REMARK INTER:                  -9.330
REMARK INTRA:                  -0.949
REMARK UNBOUND:                -0.709
REMARK  Name = 
REMARK  5 active torsions:
REMARK  status: ('A' for Active; 'I' for Inactive)
REMARK    1  A    between atoms: C_2  and  C_4
REMARK    2  A    between atoms: N_8  and  C_9
REMARK    3  A    between atoms: C_9  and  C_10
REMARK    4  A    between atoms: C_10  and  C_13
REMARK    5  A    between atoms: C_17  and  C_18
REMARK                            x       y       z     vdW  Elec       q    Type
REMARK                         _______ _______ _______ _____ _____    ______ ____
ROOT
ATOM      1  C   UNL     1      45.658   7.772  12.515  0.00  0.00    +0.000 C 
ATOM      2  F   UNL     1      44.905   8.642  13.259  0.00  0.00    +0.000 F 
ATOM      3  F   UNL     1      46.176   8.538  11.499  0.00  0.00    +0.000 F 
ENDROOT
BRANCH   1   4
ATOM      4  C   UNL     1      44.816   6.645  11.960  0.00  0.00    +0.000 A 
ATOM      5  C   UNL     1      43.516   6.347  12.388  0.00  0.00    +0.000 A 
ATOM      6  C   UNL     1      42.796   5.316  11.795  0.00  0.00    +0.000 A 
ATOM      7  C   UNL     1      43.373   4.552  10.781  0.00  0.00    +0.000 A 
ATOM      8  C   UNL     1      44.692   4.777  10.347  0.00  0.00    +0.000 A 
ATOM      9  C   UNL     1      45.386   5.843  10.956  0.00  0.00    +0.000 A 
ATOM     10  F   UNL     1      46.652   6.102  10.595  0.00  0.00    +0.000 F 
BRANCH   8  11
ATOM     11  C   UNL     1      45.308   3.908   9.312  0.00  0.00    +0.000 A 
ATOM     12  C   UNL     1      45.970   4.439   8.189  0.00  0.00    +0.000 A 
ATOM     13  C   UNL     1      46.576   3.611   7.235  0.00  0.00    +0.000 A 
ATOM     14  C   UNL     1      46.513   2.230   7.376  0.00  0.00    +0.000 A 
ATOM     15 CL   UNL     1      47.261   1.210   6.212  0.00  0.00    +0.000 Cl
ATOM     16  C   UNL     1      45.849   1.670   8.460  0.00  0.00    +0.000 A 
ATOM     17  C   UNL     1      45.260   2.503   9.419  0.00  0.00    +0.000 A 
ENDBRANCH   8  11
ENDBRANCH   1   4
BRANCH   1  18
ATOM     18  C   UNL     1      46.870   7.348  13.384  0.00  0.00    +0.000 C 
BRANCH  18  23
ATOM     19  C   UNL     1      51.658   8.280  11.914  0.00  0.00    +0.000 A 
ATOM     20  C   UNL     1      50.617   7.673  11.220  0.00  0.00    +0.000 A 
ATOM     21  C   UNL     1      49.344   7.661  11.782  0.00  0.00    +0.000 A 
ATOM     22  C   UNL     1      49.136   8.248  13.027  0.00  0.00    +0.000 A 
ATOM     23  N   UNL     1      47.881   8.395  13.580  0.00  0.00    +0.000 N 
ATOM     24  N   UNL     1      50.148   8.782  13.736  0.00  0.00    +0.000 NA
ATOM     25  C   UNL     1      51.385   8.787  13.175  0.00  0.00    +0.000 A 
ATOM     26  H   UNL     1      47.982   8.787  14.515  0.00  0.00    +0.000 HD
BRANCH  19  28
ATOM     27  N   UNL     1      53.888   7.397  11.584  0.00  0.00    +0.000 N 
ATOM     28  C   UNL     1      53.013   8.422  11.349  0.00  0.00    +0.000 C 
ATOM     29  O   UNL     1      53.325   9.386  10.665  0.00  0.00    +0.000 OA
ATOM     30  H   UNL     1      54.772   7.438  11.092  0.00  0.00    +0.000 HD
ATOM     31  H   UNL     1      53.584   6.488  11.906  0.00  0.00    +0.000 HD
ENDBRANCH  19  28
ENDBRANCH  18  23
ENDBRANCH   1  18
TORSDOF 5
ENDMDL
MODEL 8
REMARK VINA RESULT:    -7.239      5.004      7.119
REMARK INTER + INTRA:         -10.064
REMARK INTER:                  -8.531
REMARK INTRA:                  -1.533
REMARK UNBOUND:                -0.709
REMARK  Name = 
REMARK  5 active torsions:
REMARK  status: ('A' for Active; 'I' for Inactive)
REMARK    1  A    between atoms: C_2  and  C_4
REMARK    2  A    between atoms: N_8  and  C_9
REMARK    3  A    between atoms: C_9  and  C_10
REMARK    4  A    between atoms: C_10  and  C_13
REMARK    5  A    between atoms: C_17  and  C_18
REMARK                            x       y       z     vdW  Elec       q    Type
REMARK                         _______ _______ _______ _____ _____    ______ ____
ROOT
ATOM      1  C   UNL     1      49.099   9.560  14.819  0.00  0.00    +0.000 C 
ATOM      2  F   UNL     1      50.439   9.596  14.536  0.00  0.00    +0.000 F 
ATOM      3  F   UNL     1      48.740  10.876  14.979  0.00  0.00    +0.000 F 
ENDROOT
BRANCH   1   4
ATOM      4  C   UNL     1      48.819   8.772  16.079  0.00  0.00    +0.000 A 
ATOM      5  C   UNL     1      48.110   9.269  17.180  0.00  0.00    +0.000 A 
ATOM      6  C   UNL     1      47.863   8.461  18.284  0.00  0.00    +0.000 A 
ATOM      7  C   UNL     1      48.341   7.151  18.315  0.00  0.00    +0.000 A 
ATOM      8  C   UNL     1      49.100   6.618  17.258  0.00  0.00    +0.000 A 
ATOM      9  C   UNL     1      49.316   7.458  16.146  0.00  0.00    +0.000 A 
ATOM     10  F   UNL     1      50.043   7.013  15.110  0.00  0.00    +0.000 F 
BRANCH   8  11
ATOM     11  C   UNL     1      49.656   5.243  17.342  0.00  0.00    +0.000 A 
ATOM     12  C   UNL     1      48.851   4.101  17.167  0.00  0.00    +0.000 A 
ATOM     13  C   UNL     1      49.391   2.809  17.217  0.00  0.00    +0.000 A 
ATOM     14  C   UNL     1      50.747   2.633  17.464  0.00  0.00    +0.000 A 
ATOM     15 CL   UNL     1      51.414   1.050  17.519  0.00  0.00    +0.000 Cl
ATOM     16  C   UNL     1      51.567   3.737  17.664  0.00  0.00    +0.000 A 
ATOM     17  C   UNL     1      51.025   5.026  17.596  0.00  0.00    +0.000 A 
ENDBRANCH   8  11
ENDBRANCH   1   4
BRANCH   1  18
ATOM     18  C   UNL     1      48.368   9.076  13.541  0.00  0.00    +0.000 C 
BRANCH  18  23
ATOM     19  C   UNL     1      45.333   5.044  12.842  0.00  0.00    +0.000 A 
ATOM     20  C   UNL     1      46.663   5.096  13.244  0.00  0.00    +0.000 A 
ATOM     21  C   UNL     1      47.244   6.334  13.507  0.00  0.00    +0.000 A 
ATOM     22  C   UNL     1      46.488   7.493  13.359  0.00  0.00    +0.000 A 
ATOM     23  N   UNL     1      46.952   8.738  13.733  0.00  0.00    +0.000 N 
ATOM     24  N   UNL     1      45.220   7.459  12.909  0.00  0.00    +0.000 NA
ATOM     25  C   UNL     1      44.667   6.245  12.656  0.00  0.00    +0.000 A 
ATOM     26  H   UNL     1      46.259   9.435  13.470  0.00  0.00    +0.000 HD
BRANCH  19  28
ATOM     27  N   UNL     1      45.168   2.890  11.749  0.00  0.00    +0.000 N 
ATOM     28  C   UNL     1      44.615   3.772  12.637  0.00  0.00    +0.000 C 
ATOM     29  O   UNL     1      43.602   3.499  13.265  0.00  0.00    +0.000 OA
ATOM     30  H   UNL     1      44.744   1.971  11.705  0.00  0.00    +0.000 HD
ATOM     31  H   UNL     1      46.123   2.971  11.429  0.00  0.00    +0.000 HD
ENDBRANCH  19  28
ENDBRANCH  18  23
ENDBRANCH   1  18
TORSDOF 5
ENDMDL
MODEL 9
REMARK VINA RESULT:    -7.149      5.622      7.498
REMARK INTER + INTRA:          -9.948
REMARK INTER:                  -8.676
REMARK INTRA:                  -1.271
REMARK UNBOUND:                -0.709
REMARK  Name = 
REMARK  5 active torsions:
REMARK  status: ('A' for Active; 'I' for Inactive)
REMARK    1  A    between atoms: C_2  and  C_4
REMARK    2  A    between atoms: N_8  and  C_9
REMARK    3  A    between atoms: C_9  and  C_10
REMARK    4  A    between atoms: C_10  and  C_13
REMARK    5  A    between atoms: C_17  and  C_18
REMARK                            x       y       z     vdW  Elec       q    Type
REMARK                         _______ _______ _______ _____ _____    ______ ____
ROOT
ATOM      1  C   UNL     1      49.041   7.906  16.222  0.00  0.00    +0.000 C 
ATOM      2  F   UNL     1      50.232   8.553  16.420  0.00  0.00    +0.000 F 
ATOM      3  F   UNL     1      48.081   8.856  16.470  0.00  0.00    +0.000 F 
ENDROOT
BRANCH   1   4
ATOM      4  C   UNL     1      48.886   6.729  17.159  0.00  0.00    +0.000 A 
ATOM      5  C   UNL     1      47.854   6.598  18.097  0.00  0.00    +0.000 A 
ATOM      6  C   UNL     1      47.763   5.463  18.893  0.00  0.00    +0.000 A 
ATOM      7  C   UNL     1      48.716   4.450  18.780  0.00  0.00    +0.000 A 
ATOM      8  C   UNL     1      49.800   4.552  17.889  0.00  0.00    +0.000 A 
ATOM      9  C   UNL     1      49.850   5.708  17.084  0.00  0.00    +0.000 A 
ATOM     10  F   UNL     1      50.865   5.872  16.222  0.00  0.00    +0.000 F 
BRANCH   8  11
ATOM     11  C   UNL     1      50.839   3.492  17.835  0.00  0.00    +0.000 A 
ATOM     12  C   UNL     1      50.567   2.206  17.330  0.00  0.00    +0.000 A 
ATOM     13  C   UNL     1      51.562   1.223  17.253  0.00  0.00    +0.000 A 
ATOM     14  C   UNL     1      52.848   1.502  17.700  0.00  0.00    +0.000 A 
ATOM     15 CL   UNL     1      54.073   0.300  17.601  0.00  0.00    +0.000 Cl
ATOM     16  C   UNL     1      53.146   2.753  18.225  0.00  0.00    +0.000 A 
ATOM     17  C   UNL     1      52.152   3.737  18.283  0.00  0.00    +0.000 A 
ENDBRANCH   8  11
ENDBRANCH   1   4
BRANCH   1  18
ATOM     18  C   UNL     1      48.935   7.586  14.709  0.00  0.00    +0.000 C 
BRANCH  18  23
ATOM     19  C   UNL     1      45.609   4.324  12.646  0.00  0.00    +0.000 A 
ATOM     20  C   UNL     1      46.536   4.124  13.664  0.00  0.00    +0.000 A 
ATOM     21  C   UNL     1      47.242   5.216  14.161  0.00  0.00    +0.000 A 
ATOM     22  C   UNL     1      47.013   6.482  13.631  0.00  0.00    +0.000 A 
ATOM     23  N   UNL     1      47.571   7.625  14.166  0.00  0.00    +0.000 N 
ATOM     24  N   UNL     1      46.166   6.678  12.604  0.00  0.00    +0.000 NA
ATOM     25  C   UNL     1      45.484   5.603  12.128  0.00  0.00    +0.000 A 
ATOM     26  H   UNL     1      47.318   8.416  13.577  0.00  0.00    +0.000 HD
BRANCH  19  28
ATOM     27  N   UNL     1      45.028   2.786  10.869  0.00  0.00    +0.000 N 
ATOM     28  C   UNL     1      44.751   3.241  12.129  0.00  0.00    +0.000 C 
ATOM     29  O   UNL     1      43.868   2.742  12.812  0.00  0.00    +0.000 OA
ATOM     30  H   UNL     1      44.522   1.962  10.567  0.00  0.00    +0.000 HD
ATOM     31  H   UNL     1      45.900   2.987  10.400  0.00  0.00    +0.000 HD
ENDBRANCH  19  28
ENDBRANCH  18  23
ENDBRANCH   1  18
TORSDOF 5
ENDMDL
