MODEL 1
REMARK VINA RESULT:    -9.590      0.000      0.000
REMARK INTER + INTRA:         -12.150
REMARK INTER:                 -12.113
REMARK INTRA:                  -0.037
REMARK UNBOUND:                -0.037
REMARK  Name = 
REMARK  5 active torsions:
REMARK  status: ('A' for Active; 'I' for Inactive)
REMARK    1  A    between atoms: C_2  and  C_4
REMARK    2  A    between atoms: N_8  and  C_9
REMARK    3  A    between atoms: C_9  and  C_10
REMARK    4  A    between atoms: C_14  and  C_15
REMARK    5  A    between atoms: C_19  and  O_20
REMARK                            x       y       z     vdW  Elec       q    Type
REMARK                         _______ _______ _______ _____ _____    ______ ____
ROOT
ATOM      1  C   UNL     1      44.111   4.740  11.507  0.00  0.00    +0.000 C 
ATOM      2  C   UNL     1      42.816   5.044  12.244  0.00  0.00    +0.000 C 
ATOM      3  C   UNL     1      43.174   5.860  11.049  0.00  0.00    +0.000 C 
ENDROOT
BRANCH   1   8
ATOM      4  C   UNL     1      46.574   2.716   7.386  0.00  0.00    +0.000 A 
ATOM      5  C   UNL     1      46.370   4.043   7.742  0.00  0.00    +0.000 A 
ATOM      6  C   UNL     1      45.588   4.345   8.864  0.00  0.00    +0.000 A 
ATOM      7  C   UNL     1      45.032   3.313   9.616  0.00  0.00    +0.000 A 
ATOM      8  N   UNL     1      44.189   3.516  10.709  0.00  0.00    +0.000 N 
ATOM      9  N   UNL     1      45.245   2.019   9.293  0.00  0.00    +0.000 NA
ATOM     10  C   UNL     1      45.995   1.747   8.192  0.00  0.00    +0.000 A 
ATOM     11  H   UNL     1      43.979   2.618  11.131  0.00  0.00    +0.000 HD
BRANCH   4  13
ATOM     12  N   UNL     1      47.148   2.996   5.032  0.00  0.00    +0.000 N 
ATOM     13  C   UNL     1      47.325   2.284   6.187  0.00  0.00    +0.000 C 
ATOM     14  O   UNL     1      48.099   1.337   6.228  0.00  0.00    +0.000 OA
ATOM     15  H   UNL     1      47.734   2.730   4.251  0.00  0.00    +0.000 HD
ATOM     16  H   UNL     1      46.713   3.904   5.006  0.00  0.00    +0.000 HD
ENDBRANCH   4  13
ENDBRANCH   1   8
BRANCH   1  17
ATOM     17  C   UNL     1      45.447   5.283  12.003  0.00  0.00    +0.000 A 
ATOM     18  C   UNL     1      46.092   6.337  11.335  0.00  0.00    +0.000 A 
ATOM     19  C   UNL     1      47.181   6.996  11.904  0.00  0.00    +0.000 A 
ATOM     20  C   UNL     1      47.656   6.605  13.156  0.00  0.00    +0.000 A 
ATOM     21  C   UNL     1      47.078   5.523  13.837  0.00  0.00    +0.000 A 
ATOM     22  C   UNL     1      45.999   4.863  13.225  0.00  0.00    +0.000 A 
BRANCH  21  23
ATOM     23  C   UNL     1      47.506   5.128  15.190  0.00  0.00    +0.000 A 
ATOM     24  C   UNL     1      48.452   5.865  15.908  0.00  0.00    +0.000 A 
ATOM     25  N   UNL     1      48.842   5.603  17.181  0.00  0.00    +0.000 NA
ATOM     26  C   UNL     1      48.248   4.553  17.787  0.00  0.00    +0.000 A 
ATOM     27  C   UNL     1      47.296   3.757  17.172  0.00  0.00    +0.000 A 
ATOM     28  C   UNL     1      46.933   4.040  15.864  0.00  0.00    +0.000 A 
BRANCH  27  29
ATOM     29  O   UNL     1      46.686   2.711  17.797  0.00  0.00    +0.000 OA
ATOM     30  H   UNL     1      46.191   3.046  18.564  0.00  0.00    +0.000 HD
ENDBRANCH  27  29
ENDBRANCH  21  23
ENDBRANCH   1  17
TORSDOF 5
ENDMDL
MODEL 2
REMARK VINA RESULT:    -8.842      2.784      3.889
REMARK INTER + INTRA:         -11.205
REMARK INTER:                 -10.959
REMARK INTRA:                  -0.246
REMARK UNBOUND:                -0.037
REMARK  Name = 
REMARK  5 active torsions:
REMARK  status: ('A' for Active; 'I' for Inactive)
REMARK    1  A    between atoms: C_2  and  C_4
REMARK    2  A    between atoms: N_8  and  C_9
REMARK    3  A    between atoms: C_9  and  C_10
REMARK    4  A    between atoms: C_14  and  C_15
REMARK    5  A    between atoms: C_19  and  O_20
REMARK                            x       y       z     vdW  Elec       q    Type
REMARK                         _______ _______ _______ _____ _____    ______ ____
ROOT
ATOM      1  C   UNL     1      43.744   4.857  11.536  0.00  0.00    +0.000 C 
ATOM      2  C   UNL     1      42.371   5.334  11.980  0.00  0.00    +0.000 C 
ATOM      3  C   UNL     1      43.088   6.092  10.916  0.00  0.00    +0.000 C 
ENDROOT
BRANCH   1   8
ATOM      4  C   UNL     1      46.404   2.756   7.578  0.00  0.00    +0.000 A 
ATOM      5  C   UNL     1      46.222   4.089   7.925  0.00  0.00    +0.000 A 
ATOM      6  C   UNL     1      45.378   4.416   8.994  0.00  0.00    +0.000 A 
ATOM      7  C   UNL     1      44.739   3.401   9.704  0.00  0.00    +0.000 A 
ATOM      8  N   UNL     1      43.834   3.632  10.740  0.00  0.00    +0.000 N 
ATOM      9  N   UNL     1      44.930   2.102   9.392  0.00  0.00    +0.000 NA
ATOM     10  C   UNL     1      45.741   1.806   8.341  0.00  0.00    +0.000 A 
ATOM     11  H   UNL     1      43.566   2.740  11.145  0.00  0.00    +0.000 HD
BRANCH   4  13
ATOM     12  N   UNL     1      47.148   3.025   5.271  0.00  0.00    +0.000 N 
ATOM     13  C   UNL     1      47.217   2.300   6.430  0.00  0.00    +0.000 C 
ATOM     14  O   UNL     1      47.948   1.323   6.516  0.00  0.00    +0.000 OA
ATOM     15  H   UNL     1      47.776   2.741   4.530  0.00  0.00    +0.000 HD
ATOM     16  H   UNL     1      46.753   3.951   5.224  0.00  0.00    +0.000 HD
ENDBRANCH   4  13
ENDBRANCH   1   8
BRANCH   1  17
ATOM     17  C   UNL     1      44.998   5.215  12.327  0.00  0.00    +0.000 A 
ATOM     18  C   UNL     1      45.572   4.300  13.225  0.00  0.00    +0.000 A 
ATOM     19  C   UNL     1      46.836   4.518  13.772  0.00  0.00    +0.000 A 
ATOM     20  C   UNL     1      47.550   5.668  13.438  0.00  0.00    +0.000 A 
ATOM     21  C   UNL     1      46.996   6.637  12.588  0.00  0.00    +0.000 A 
ATOM     22  C   UNL     1      45.709   6.399  12.074  0.00  0.00    +0.000 A 
BRANCH  21  23
ATOM     23  C   UNL     1      47.748   7.827  12.157  0.00  0.00    +0.000 A 
ATOM     24  C   UNL     1      47.178   9.104  12.171  0.00  0.00    +0.000 A 
ATOM     25  N   UNL     1      47.829  10.252  11.856  0.00  0.00    +0.000 NA
ATOM     26  C   UNL     1      49.130  10.131  11.518  0.00  0.00    +0.000 A 
ATOM     27  C   UNL     1      49.797   8.917  11.474  0.00  0.00    +0.000 A 
ATOM     28  C   UNL     1      49.098   7.760  11.784  0.00  0.00    +0.000 A 
BRANCH  27  29
ATOM     29  O   UNL     1      51.116   8.806  11.152  0.00  0.00    +0.000 OA
ATOM     30  H   UNL     1      51.197   8.333  10.306  0.00  0.00    +0.000 HD
ENDBRANCH  27  29
ENDBRANCH  21  23
ENDBRANCH   1  17
TORSDOF 5
ENDMDL
MODEL 3
REMARK VINA RESULT:    -7.941      1.899      7.916
REMARK INTER + INTRA:         -10.067
REMARK INTER:                  -9.930
REMARK INTRA:                  -0.137
REMARK UNBOUND:                -0.037
REMARK  Name = 
REMARK  5 active torsions:
REMARK  status: ('A' for Active; 'I' for Inactive)
REMARK    1  A    between atoms: C_2  and  C_4
REMARK    2  A    between atoms: N_8  and  C_9
REMARK    3  A    between atoms: C_9  and  C_10
REMARK    4  A    between atoms: C_14  and  C_15
REMARK    5  A    between atoms: C_19  and  O_20
REMARK                            x       y       z     vdW  Elec       q    Type
REMARK                         _______ _______ _______ _____ _____    ______ ____
ROOT
ATOM      1  C   UNL     1      48.554   7.664  12.836  0.00  0.00    +0.000 C 
ATOM      2  C   UNL     1      49.713   7.459  11.874  0.00  0.00    +0.000 C 
ATOM      3  C   UNL     1      49.195   8.838  12.094  0.00  0.00    +0.000 C 
ENDROOT
BRANCH   1   8
ATOM      4  C   UNL     1      47.910   4.292  16.756  0.00  0.00    +0.000 A 
ATOM      5  C   UNL     1      47.246   4.386  15.539  0.00  0.00    +0.000 A 
ATOM      6  C   UNL     1      47.537   5.448  14.673  0.00  0.00    +0.000 A 
ATOM      7  C   UNL     1      48.494   6.392  15.036  0.00  0.00    +0.000 A 
ATOM      8  N   UNL     1      48.804   7.516  14.270  0.00  0.00    +0.000 N 
ATOM      9  N   UNL     1      49.163   6.296  16.205  0.00  0.00    +0.000 NA
ATOM     10  C   UNL     1      48.857   5.267  17.038  0.00  0.00    +0.000 A 
ATOM     11  H   UNL     1      49.580   8.005  14.706  0.00  0.00    +0.000 HD
BRANCH   4  13
ATOM     12  N   UNL     1      48.463   3.196  18.863  0.00  0.00    +0.000 N 
ATOM     13  C   UNL     1      47.637   3.254  17.774  0.00  0.00    +0.000 C 
ATOM     14  O   UNL     1      46.690   2.487  17.662  0.00  0.00    +0.000 OA
ATOM     15  H   UNL     1      48.205   2.533  19.582  0.00  0.00    +0.000 HD
ATOM     16  H   UNL     1      49.098   3.937  19.113  0.00  0.00    +0.000 HD
ENDBRANCH   4  13
ENDBRANCH   1   8
BRANCH   1  17
ATOM     17  C   UNL     1      47.113   7.430  12.396  0.00  0.00    +0.000 A 
ATOM     18  C   UNL     1      46.148   8.445  12.509  0.00  0.00    +0.000 A 
ATOM     19  C   UNL     1      44.900   8.328  11.900  0.00  0.00    +0.000 A 
ATOM     20  C   UNL     1      44.586   7.183  11.169  0.00  0.00    +0.000 A 
ATOM     21  C   UNL     1      45.496   6.120  11.072  0.00  0.00    +0.000 A 
ATOM     22  C   UNL     1      46.736   6.257  11.720  0.00  0.00    +0.000 A 
BRANCH  21  23
ATOM     23  C   UNL     1      45.227   4.927  10.251  0.00  0.00    +0.000 A 
ATOM     24  C   UNL     1      44.389   3.900  10.696  0.00  0.00    +0.000 A 
ATOM     25  N   UNL     1      44.041   2.809   9.969  0.00  0.00    +0.000 NA
ATOM     26  C   UNL     1      44.541   2.735   8.718  0.00  0.00    +0.000 A 
ATOM     27  C   UNL     1      45.378   3.697   8.174  0.00  0.00    +0.000 A 
ATOM     28  C   UNL     1      45.730   4.791   8.949  0.00  0.00    +0.000 A 
BRANCH  27  29
ATOM     29  O   UNL     1      45.862   3.626   6.903  0.00  0.00    +0.000 OA
ATOM     30  H   UNL     1      46.754   4.013   6.882  0.00  0.00    +0.000 HD
ENDBRANCH  27  29
ENDBRANCH  21  23
ENDBRANCH   1  17
TORSDOF 5
ENDMDL
MODEL 4
REMARK VINA RESULT:    -7.865      2.096      7.779
REMARK INTER + INTRA:          -9.971
REMARK INTER:                  -9.794
REMARK INTRA:                  -0.177
REMARK UNBOUND:                -0.037
REMARK  Name = 
REMARK  5 active torsions:
REMARK  status: ('A' for Active; 'I' for Inactive)
REMARK    1  A    between atoms: C_2  and  C_4
REMARK    2  A    between atoms: N_8  and  C_9
REMARK    3  A    between atoms: C_9  and  C_10
REMARK    4  A    between atoms: C_14  and  C_15
REMARK    5  A    between atoms: C_19  and  O_20
REMARK                            x       y       z     vdW  Elec       q    Type
REMARK                         _______ _______ _______ _____ _____    ______ ____
ROOT
ATOM      1  C   UNL     1      48.632   7.679  12.928  0.00  0.00    +0.000 C 
ATOM      2  C   UNL     1      49.770   7.486  11.938  0.00  0.00    +0.000 C 
ATOM      3  C   UNL     1      49.273   8.865  12.204  0.00  0.00    +0.000 C 
ENDROOT
BRANCH   1   8
ATOM      4  C   UNL     1      47.925   4.261  16.796  0.00  0.00    +0.000 A 
ATOM      5  C   UNL     1      47.239   4.409  15.597  0.00  0.00    +0.000 A 
ATOM      6  C   UNL     1      47.558   5.474  14.745  0.00  0.00    +0.000 A 
ATOM      7  C   UNL     1      48.565   6.367  15.104  0.00  0.00    +0.000 A 
ATOM      8  N   UNL     1      48.907   7.492  14.353  0.00  0.00    +0.000 N 
ATOM      9  N   UNL     1      49.255   6.218  16.254  0.00  0.00    +0.000 NA
ATOM     10  C   UNL     1      48.921   5.186  17.075  0.00  0.00    +0.000 A 
ATOM     11  H   UNL     1      49.714   7.936  14.779  0.00  0.00    +0.000 HD
BRANCH   4  13
ATOM     12  N   UNL     1      48.433   3.146  18.905  0.00  0.00    +0.000 N 
ATOM     13  C   UNL     1      47.629   3.216  17.800  0.00  0.00    +0.000 C 
ATOM     14  O   UNL     1      46.683   2.453  17.663  0.00  0.00    +0.000 OA
ATOM     15  H   UNL     1      48.159   2.478  19.613  0.00  0.00    +0.000 HD
ATOM     16  H   UNL     1      49.065   3.883  19.173  0.00  0.00    +0.000 HD
ENDBRANCH   4  13
ENDBRANCH   1   8
BRANCH   1  17
ATOM     17  C   UNL     1      47.180   7.473  12.509  0.00  0.00    +0.000 A 
ATOM     18  C   UNL     1      46.215   8.470  12.732  0.00  0.00    +0.000 A 
ATOM     19  C   UNL     1      44.951   8.397  12.149  0.00  0.00    +0.000 A 
ATOM     20  C   UNL     1      44.621   7.313  11.336  0.00  0.00    +0.000 A 
ATOM     21  C   UNL     1      45.531   6.266  11.128  0.00  0.00    +0.000 A 
ATOM     22  C   UNL     1      46.789   6.358  11.751  0.00  0.00    +0.000 A 
BRANCH  21  23
ATOM     23  C   UNL     1      45.244   5.143  10.220  0.00  0.00    +0.000 A 
ATOM     24  C   UNL     1      45.711   5.124   8.902  0.00  0.00    +0.000 A 
ATOM     25  N   UNL     1      45.547   4.096   8.032  0.00  0.00    +0.000 NA
ATOM     26  C   UNL     1      44.891   3.012   8.500  0.00  0.00    +0.000 A 
ATOM     27  C   UNL     1      44.388   2.923   9.788  0.00  0.00    +0.000 A 
ATOM     28  C   UNL     1      44.557   3.998  10.647  0.00  0.00    +0.000 A 
BRANCH  27  29
ATOM     29  O   UNL     1      43.745   1.818  10.259  0.00  0.00    +0.000 OA
ATOM     30  H   UNL     1      43.924   1.070   9.664  0.00  0.00    +0.000 HD
ENDBRANCH  27  29
ENDBRANCH  21  23
ENDBRANCH   1  17
TORSDOF 5
ENDMDL
MODEL 5
REMARK VINA RESULT:    -7.437      2.581      3.421
REMARK INTER + INTRA:          -9.430
REMARK INTER:                  -8.626
REMARK INTRA:                  -0.804
REMARK UNBOUND:                -0.037
REMARK  Name = 
REMARK  5 active torsions:
REMARK  status: ('A' for Active; 'I' for Inactive)
REMARK    1  A    between atoms: C_2  and  C_4
REMARK    2  A    between atoms: N_8  and  C_9
REMARK    3  A    between atoms: C_9  and  C_10
REMARK    4  A    between atoms: C_14  and  C_15
REMARK    5  A    between atoms: C_19  and  O_20
REMARK                            x       y       z     vdW  Elec       q    Type
REMARK                         _______ _______ _______ _____ _____    ______ ____
ROOT
ATOM      1  C   UNL     1      44.428   5.488  11.058  0.00  0.00    +0.000 C 
ATOM      2  C   UNL     1      43.038   4.873  11.031  0.00  0.00    +0.000 C 
ATOM      3  C   UNL     1      43.170   6.348  11.192  0.00  0.00    +0.000 C 
ENDROOT
BRANCH   1   8
ATOM      4  C   UNL     1      46.562   2.397   7.446  0.00  0.00    +0.000 A 
ATOM      5  C   UNL     1      46.212   2.124   8.763  0.00  0.00    +0.000 A 
ATOM      6  C   UNL     1      45.731   3.156   9.578  0.00  0.00    +0.000 A 
ATOM      7  C   UNL     1      45.599   4.442   9.059  0.00  0.00    +0.000 A 
ATOM      8  N   UNL     1      45.190   5.544   9.810  0.00  0.00    +0.000 N 
ATOM      9  N   UNL     1      45.912   4.713   7.774  0.00  0.00    +0.000 NA
ATOM     10  C   UNL     1      46.391   3.701   7.002  0.00  0.00    +0.000 A 
ATOM     11  H   UNL     1      45.100   6.345   9.193  0.00  0.00    +0.000 HD
BRANCH   4  13
ATOM     12  N   UNL     1      48.069   1.840   5.613  0.00  0.00    +0.000 N 
ATOM     13  C   UNL     1      47.141   1.403   6.518  0.00  0.00    +0.000 C 
ATOM     14  O   UNL     1      46.822   0.223   6.569  0.00  0.00    +0.000 OA
ATOM     15  H   UNL     1      48.509   1.125   5.046  0.00  0.00    +0.000 HD
ATOM     16  H   UNL     1      48.530   2.733   5.683  0.00  0.00    +0.000 HD
ENDBRANCH   4  13
ENDBRANCH   1   8
BRANCH   1  17
ATOM     17  C   UNL     1      45.262   5.496  12.335  0.00  0.00    +0.000 A 
ATOM     18  C   UNL     1      45.271   4.389  13.199  0.00  0.00    +0.000 A 
ATOM     19  C   UNL     1      46.200   4.286  14.234  0.00  0.00    +0.000 A 
ATOM     20  C   UNL     1      47.136   5.300  14.433  0.00  0.00    +0.000 A 
ATOM     21  C   UNL     1      47.132   6.450  13.630  0.00  0.00    +0.000 A 
ATOM     22  C   UNL     1      46.166   6.535  12.611  0.00  0.00    +0.000 A 
BRANCH  21  23
ATOM     23  C   UNL     1      48.149   7.507  13.764  0.00  0.00    +0.000 A 
ATOM     24  C   UNL     1      49.401   7.406  13.149  0.00  0.00    +0.000 A 
ATOM     25  N   UNL     1      50.359   8.367  13.169  0.00  0.00    +0.000 NA
ATOM     26  C   UNL     1      50.054   9.504  13.829  0.00  0.00    +0.000 A 
ATOM     27  C   UNL     1      48.844   9.713  14.471  0.00  0.00    +0.000 A 
ATOM     28  C   UNL     1      47.893   8.704  14.447  0.00  0.00    +0.000 A 
BRANCH  27  29
ATOM     29  O   UNL     1      48.536  10.872  15.117  0.00  0.00    +0.000 OA
ATOM     30  H   UNL     1      48.705  10.759  16.068  0.00  0.00    +0.000 HD
ENDBRANCH  27  29
ENDBRANCH  21  23
ENDBRANCH   1  17
TORSDOF 5
ENDMDL
MODEL 6
REMARK VINA RESULT:    -7.365      3.204      5.094
REMARK INTER + INTRA:          -9.340
REMARK INTER:                  -8.499
REMARK INTRA:                  -0.841
REMARK UNBOUND:                -0.037
REMARK  Name = 
REMARK  5 active torsions:
REMARK  status: ('A' for Active; 'I' for Inactive)
REMARK    1  A    between atoms: C_2  and  C_4
REMARK    2  A    between atoms: N_8  and  C_9
REMARK    3  A    between atoms: C_9  and  C_10
REMARK    4  A    between atoms: C_14  and  C_15
REMARK    5  A    between atoms: C_19  and  O_20
REMARK                            x       y       z     vdW  Elec       q    Type
REMARK                         _______ _______ _______ _____ _____    ______ ____
ROOT
ATOM      1  C   UNL     1      48.559   8.611  12.757  0.00  0.00    +0.000 C 
ATOM      2  C   UNL     1      48.241   9.987  12.196  0.00  0.00    +0.000 C 
ATOM      3  C   UNL     1      49.651   9.508  12.172  0.00  0.00    +0.000 C 
ENDROOT
BRANCH   1   8
ATOM      4  C   UNL     1      44.323   5.780  11.667  0.00  0.00    +0.000 A 
ATOM      5  C   UNL     1      44.573   6.643  12.727  0.00  0.00    +0.000 A 
ATOM      6  C   UNL     1      45.838   7.228  12.857  0.00  0.00    +0.000 A 
ATOM      7  C   UNL     1      46.829   6.949  11.918  0.00  0.00    +0.000 A 
ATOM      8  N   UNL     1      48.134   7.433  12.000  0.00  0.00    +0.000 N 
ATOM      9  N   UNL     1      46.589   6.132  10.871  0.00  0.00    +0.000 NA
ATOM     10  C   UNL     1      45.358   5.561  10.769  0.00  0.00    +0.000 A 
ATOM     11  H   UNL     1      48.640   7.154  11.165  0.00  0.00    +0.000 HD
BRANCH   4  13
ATOM     12  N   UNL     1      41.888   5.711  11.778  0.00  0.00    +0.000 N 
ATOM     13  C   UNL     1      43.049   5.056  11.468  0.00  0.00    +0.000 C 
ATOM     14  O   UNL     1      43.027   3.919  11.017  0.00  0.00    +0.000 OA
ATOM     15  H   UNL     1      41.029   5.224  11.555  0.00  0.00    +0.000 HD
ATOM     16  H   UNL     1      41.839   6.706  11.925  0.00  0.00    +0.000 HD
ENDBRANCH   4  13
ENDBRANCH   1   8
BRANCH   1  17
ATOM     17  C   UNL     1      48.742   8.394  14.256  0.00  0.00    +0.000 A 
ATOM     18  C   UNL     1      48.578   9.453  15.165  0.00  0.00    +0.000 A 
ATOM     19  C   UNL     1      48.509   9.223  16.538  0.00  0.00    +0.000 A 
ATOM     20  C   UNL     1      48.614   7.924  17.034  0.00  0.00    +0.000 A 
ATOM     21  C   UNL     1      48.832   6.841  16.170  0.00  0.00    +0.000 A 
ATOM     22  C   UNL     1      48.923   7.108  14.792  0.00  0.00    +0.000 A 
BRANCH  21  23
ATOM     23  C   UNL     1      48.876   5.449  16.649  0.00  0.00    +0.000 A 
ATOM     24  C   UNL     1      50.081   4.821  16.977  0.00  0.00    +0.000 A 
ATOM     25  N   UNL     1      50.193   3.569  17.490  0.00  0.00    +0.000 NA
ATOM     26  C   UNL     1      49.040   2.902  17.704  0.00  0.00    +0.000 A 
ATOM     27  C   UNL     1      47.790   3.429  17.419  0.00  0.00    +0.000 A 
ATOM     28  C   UNL     1      47.710   4.704  16.879  0.00  0.00    +0.000 A 
BRANCH  27  29
ATOM     29  O   UNL     1      46.629   2.758  17.657  0.00  0.00    +0.000 OA
ATOM     30  H   UNL     1      45.909   3.401  17.770  0.00  0.00    +0.000 HD
ENDBRANCH  27  29
ENDBRANCH  21  23
ENDBRANCH   1  17
TORSDOF 5
ENDMDL
MODEL 7
REMARK VINA RESULT:    -7.315      3.875      8.722
REMARK INTER + INTRA:          -9.276
REMARK INTER:                  -8.745
REMARK INTRA:                  -0.531
REMARK UNBOUND:                -0.037
REMARK  Name = 
REMARK  5 active torsions:
REMARK  status: ('A' for Active; 'I' for Inactive)
REMARK    1  A    between atoms: C_2  and  C_4
REMARK    2  A    between atoms: N_8  and  C_9
REMARK    3  A    between atoms: C_9  and  C_10
REMARK    4  A    between atoms: C_14  and  C_15
REMARK    5  A    between atoms: C_19  and  O_20
REMARK                            x       y       z     vdW  Elec       q    Type
REMARK                         _______ _______ _______ _____ _____    ______ ____
ROOT
ATOM      1  C   UNL     1      48.244   3.408  17.146  0.00  0.00    +0.000 C 
ATOM      2  C   UNL     1      47.931   3.556  18.626  0.00  0.00    +0.000 C 
ATOM      3  C   UNL     1      46.928   2.901  17.740  0.00  0.00    +0.000 C 
ENDROOT
BRANCH   1   8
ATOM      4  C   UNL     1      53.168   2.006  18.118  0.00  0.00    +0.000 A 
ATOM      5  C   UNL     1      52.522   3.216  18.341  0.00  0.00    +0.000 A 
ATOM      6  C   UNL     1      51.201   3.385  17.907  0.00  0.00    +0.000 A 
ATOM      7  C   UNL     1      50.546   2.336  17.265  0.00  0.00    +0.000 A 
ATOM      8  N   UNL     1      49.257   2.432  16.741  0.00  0.00    +0.000 N 
ATOM      9  N   UNL     1      51.156   1.149  17.065  0.00  0.00    +0.000 NA
ATOM     10  C   UNL     1      52.443   1.009  17.481  0.00  0.00    +0.000 A 
ATOM     11  H   UNL     1      48.976   1.520  16.394  0.00  0.00    +0.000 HD
BRANCH   4  13
ATOM     12  N   UNL     1      54.823   0.922  19.543  0.00  0.00    +0.000 N 
ATOM     13  C   UNL     1      54.578   1.739  18.473  0.00  0.00    +0.000 C 
ATOM     14  O   UNL     1      55.499   2.211  17.820  0.00  0.00    +0.000 OA
ATOM     15  H   UNL     1      55.793   0.690  19.713  0.00  0.00    +0.000 HD
ATOM     16  H   UNL     1      54.119   0.333  19.958  0.00  0.00    +0.000 HD
ENDBRANCH   4  13
ENDBRANCH   1   8
BRANCH   1  17
ATOM     17  C   UNL     1      48.024   4.562  16.174  0.00  0.00    +0.000 A 
ATOM     18  C   UNL     1      48.791   5.737  16.260  0.00  0.00    +0.000 A 
ATOM     19  C   UNL     1      48.766   6.693  15.246  0.00  0.00    +0.000 A 
ATOM     20  C   UNL     1      47.961   6.498  14.124  0.00  0.00    +0.000 A 
ATOM     21  C   UNL     1      47.137   5.368  14.018  0.00  0.00    +0.000 A 
ATOM     22  C   UNL     1      47.165   4.435  15.070  0.00  0.00    +0.000 A 
BRANCH  21  23
ATOM     23  C   UNL     1      46.329   5.093  12.818  0.00  0.00    +0.000 A 
ATOM     24  C   UNL     1      46.274   5.990  11.746  0.00  0.00    +0.000 A 
ATOM     25  N   UNL     1      45.611   5.774  10.583  0.00  0.00    +0.000 NA
ATOM     26  C   UNL     1      44.971   4.591  10.467  0.00  0.00    +0.000 A 
ATOM     27  C   UNL     1      44.962   3.628  11.463  0.00  0.00    +0.000 A 
ATOM     28  C   UNL     1      45.635   3.887  12.648  0.00  0.00    +0.000 A 
BRANCH  27  29
ATOM     29  O   UNL     1      44.331   2.428  11.331  0.00  0.00    +0.000 OA
ATOM     30  H   UNL     1      44.793   1.901  10.658  0.00  0.00    +0.000 HD
ENDBRANCH  27  29
ENDBRANCH  21  23
ENDBRANCH   1  17
TORSDOF 5
ENDMDL
MODEL 8
REMARK VINA RESULT:    -7.207      3.353      7.434
REMARK INTER + INTRA:          -9.140
REMARK INTER:                  -8.558
REMARK INTRA:                  -0.582
REMARK UNBOUND:                -0.037
REMARK  Name = 
REMARK  5 active torsions:
REMARK  status: ('A' for Active; 'I' for Inactive)
REMARK    1  A    between atoms: C_2  and  C_4
REMARK    2  A    between atoms: N_8  and  C_9
REMARK    3  A    between atoms: C_9  and  C_10
REMARK    4  A    between atoms: C_14  and  C_15
REMARK    5  A    between atoms: C_19  and  O_20
REMARK                            x       y       z     vdW  Elec       q    Type
REMARK                         _______ _______ _______ _____ _____    ______ ____
ROOT
ATOM      1  C   UNL     1      44.125   6.683  11.772  0.00  0.00    +0.000 C 
ATOM      2  C   UNL     1      43.697   7.673  10.701  0.00  0.00    +0.000 C 
ATOM      3  C   UNL     1      42.682   7.181  11.676  0.00  0.00    +0.000 C 
ENDROOT
BRANCH   1   8
ATOM      4  C   UNL     1      48.998   8.211  12.807  0.00  0.00    +0.000 A 
ATOM      5  C   UNL     1      48.509   7.422  11.773  0.00  0.00    +0.000 A 
ATOM      6  C   UNL     1      47.155   7.067  11.756  0.00  0.00    +0.000 A 
ATOM      7  C   UNL     1      46.310   7.517  12.769  0.00  0.00    +0.000 A 
ATOM      8  N   UNL     1      44.965   7.164  12.871  0.00  0.00    +0.000 N 
ATOM      9  N   UNL     1      46.770   8.305  13.764  0.00  0.00    +0.000 NA
ATOM     10  C   UNL     1      48.091   8.627  13.771  0.00  0.00    +0.000 A 
ATOM     11  H   UNL     1      44.550   7.676  13.643  0.00  0.00    +0.000 HD
BRANCH   4  13
ATOM     12  N   UNL     1      51.213   7.791  13.737  0.00  0.00    +0.000 N 
ATOM     13  C   UNL     1      50.419   8.591  12.961  0.00  0.00    +0.000 C 
ATOM     14  O   UNL     1      50.880   9.573  12.395  0.00  0.00    +0.000 OA
ATOM     15  H   UNL     1      52.197   8.026  13.759  0.00  0.00    +0.000 HD
ATOM     16  H   UNL     1      50.945   6.863  14.026  0.00  0.00    +0.000 HD
ENDBRANCH   4  13
ENDBRANCH   1   8
BRANCH   1  17
ATOM     17  C   UNL     1      44.235   5.192  11.470  0.00  0.00    +0.000 A 
ATOM     18  C   UNL     1      43.469   4.252  12.181  0.00  0.00    +0.000 A 
ATOM     19  C   UNL     1      43.380   2.926  11.762  0.00  0.00    +0.000 A 
ATOM     20  C   UNL     1      44.069   2.507  10.624  0.00  0.00    +0.000 A 
ATOM     21  C   UNL     1      44.889   3.395   9.912  0.00  0.00    +0.000 A 
ATOM     22  C   UNL     1      44.977   4.720  10.376  0.00  0.00    +0.000 A 
BRANCH  21  23
ATOM     23  C   UNL     1      45.573   3.008   8.667  0.00  0.00    +0.000 A 
ATOM     24  C   UNL     1      45.928   3.952   7.698  0.00  0.00    +0.000 A 
ATOM     25  N   UNL     1      46.620   3.681   6.563  0.00  0.00    +0.000 NA
ATOM     26  C   UNL     1      46.995   2.397   6.380  0.00  0.00    +0.000 A 
ATOM     27  C   UNL     1      46.699   1.382   7.276  0.00  0.00    +0.000 A 
ATOM     28  C   UNL     1      45.975   1.689   8.418  0.00  0.00    +0.000 A 
BRANCH  27  29
ATOM     29  O   UNL     1      47.099   0.092   7.095  0.00  0.00    +0.000 OA
ATOM     30  H   UNL     1      47.818  -0.107   7.718  0.00  0.00    +0.000 HD
ENDBRANCH  27  29
ENDBRANCH  21  23
ENDBRANCH   1  17
TORSDOF 5
ENDMDL
MODEL 9
REMARK VINA RESULT:    -7.078      3.673      7.224
REMARK INTER + INTRA:          -8.977
REMARK INTER:                  -8.236
REMARK INTRA:                  -0.741
REMARK UNBOUND:                -0.037
REMARK  Name = 
REMARK  5 active torsions:
REMARK  status: ('A' for Active; 'I' for Inactive)
REMARK    1  A    between atoms: C_2  and  C_4
REMARK    2  A    between atoms: N_8  and  C_9
REMARK    3  A    between atoms: C_9  and  C_10
REMARK    4  A    between atoms: C_14  and  C_15
REMARK    5  A    between atoms: C_19  and  O_20
REMARK                            x       y       z     vdW  Elec       q    Type
REMARK                         _______ _______ _______ _____ _____    ______ ____
ROOT
ATOM      1  C   UNL     1      45.771   4.310  12.896  0.00  0.00    +0.000 C 
ATOM      2  C   UNL     1      44.333   3.861  13.104  0.00  0.00    +0.000 C 
ATOM      3  C   UNL     1      44.963   3.662  11.769  0.00  0.00    +0.000 C 
ENDROOT
BRANCH   1   8
ATOM      4  C   UNL     1      48.272   3.779  17.436  0.00  0.00    +0.000 A 
ATOM      5  C   UNL     1      47.539   4.849  16.939  0.00  0.00    +0.000 A 
ATOM      6  C   UNL     1      47.029   4.792  15.636  0.00  0.00    +0.000 A 
ATOM      7  C   UNL     1      47.253   3.660  14.856  0.00  0.00    +0.000 A 
ATOM      8  N   UNL     1      46.841   3.538  13.529  0.00  0.00    +0.000 N 
ATOM      9  N   UNL     1      47.942   2.604  15.338  0.00  0.00    +0.000 NA
ATOM     10  C   UNL     1      48.442   2.684  16.600  0.00  0.00    +0.000 A 
ATOM     11  H   UNL     1      47.053   2.599  13.205  0.00  0.00    +0.000 HD
BRANCH   4  13
ATOM     12  N   UNL     1      48.349   2.966  19.734  0.00  0.00    +0.000 N 
ATOM     13  C   UNL     1      48.911   3.757  18.769  0.00  0.00    +0.000 C 
ATOM     14  O   UNL     1      49.924   4.404  18.999  0.00  0.00    +0.000 OA
ATOM     15  H   UNL     1      48.853   2.906  20.609  0.00  0.00    +0.000 HD
ATOM     16  H   UNL     1      47.670   2.249  19.532  0.00  0.00    +0.000 HD
ENDBRANCH   4  13
ENDBRANCH   1   8
BRANCH   1  17
ATOM     17  C   UNL     1      46.106   5.766  12.592  0.00  0.00    +0.000 A 
ATOM     18  C   UNL     1      45.114   6.761  12.634  0.00  0.00    +0.000 A 
ATOM     19  C   UNL     1      45.444   8.114  12.594  0.00  0.00    +0.000 A 
ATOM     20  C   UNL     1      46.780   8.503  12.498  0.00  0.00    +0.000 A 
ATOM     21  C   UNL     1      47.802   7.547  12.400  0.00  0.00    +0.000 A 
ATOM     22  C   UNL     1      47.434   6.190  12.417  0.00  0.00    +0.000 A 
BRANCH  21  23
ATOM     23  C   UNL     1      49.227   7.918  12.370  0.00  0.00    +0.000 A 
ATOM     24  C   UNL     1      49.904   8.331  13.522  0.00  0.00    +0.000 A 
ATOM     25  N   UNL     1      51.228   8.621  13.586  0.00  0.00    +0.000 NA
ATOM     26  C   UNL     1      51.929   8.480  12.442  0.00  0.00    +0.000 A 
ATOM     27  C   UNL     1      51.361   8.075  11.244  0.00  0.00    +0.000 A 
ATOM     28  C   UNL     1      50.002   7.804  11.208  0.00  0.00    +0.000 A 
BRANCH  27  29
ATOM     29  O   UNL     1      52.080   7.916  10.098  0.00  0.00    +0.000 OA
ATOM     30  H   UNL     1      52.108   8.763   9.622  0.00  0.00    +0.000 HD
ENDBRANCH  27  29
ENDBRANCH  21  23
ENDBRANCH   1  17
TORSDOF 5
ENDMDL
