MODEL 1
REMARK VINA RESULT:    -9.332      0.000      0.000
REMARK INTER + INTRA:         -12.784
REMARK INTER:                 -12.059
REMARK INTRA:                  -0.724
REMARK UNBOUND:                -0.724
REMARK  Name = 
REMARK  5 active torsions:
REMARK  status: ('A' for Active; 'I' for Inactive)
REMARK    1  A    between atoms: C_2  and  C_4
REMARK    2  A    between atoms: C_7  and  N_8
REMARK    3  A    between atoms: N_8  and  C_9
REMARK    4  A    between atoms: C_9  and  C_10
REMARK    5  A    between atoms: C_14  and  C_15
REMARK                            x       y       z     vdW  Elec       q    Type
REMARK                         _______ _______ _______ _____ _____    ______ ____
ROOT
ATOM      1  C   UNL     1      43.951   4.959  11.494  0.00  0.00    +0.000 C 
ATOM      2  C   UNL     1      43.222   4.040  12.472  0.00  0.00    +0.000 C 
ATOM      3  C   UNL     1      42.745   5.441  12.290  0.00  0.00    +0.000 C 
ENDROOT
BRANCH   1   4
ATOM      4  C   UNL     1      45.317   5.497  11.925  0.00  0.00    +0.000 A 
ATOM      5  C   UNL     1      45.933   6.587  11.292  0.00  0.00    +0.000 A 
ATOM      6  C   UNL     1      47.102   7.153  11.806  0.00  0.00    +0.000 A 
ATOM      7  C   UNL     1      47.674   6.645  12.976  0.00  0.00    +0.000 A 
ATOM      8  C   UNL     1      47.107   5.547  13.638  0.00  0.00    +0.000 A 
ATOM      9  C   UNL     1      45.965   4.969  13.059  0.00  0.00    +0.000 A 
BRANCH   8  10
ATOM     10  C   UNL     1      47.585   5.079  14.954  0.00  0.00    +0.000 A 
ATOM     11  C   UNL     1      47.170   3.852  15.489  0.00  0.00    +0.000 A 
ATOM     12  C   UNL     1      47.728   3.363  16.669  0.00  0.00    +0.000 A 
ATOM     13  C   UNL     1      48.702   4.120  17.295  0.00  0.00    +0.000 A 
ATOM     14  N   UNL     1      49.127   5.314  16.840  0.00  0.00    +0.000 NA
ATOM     15  C   UNL     1      48.557   5.763  15.692  0.00  0.00    +0.000 A 
ENDBRANCH   8  10
ENDBRANCH   1   4
BRANCH   1  16
ATOM     16  N   UNL     1      43.793   4.766  10.044  0.00  0.00    +0.000 N 
ATOM     17  H   UNL     1      42.904   5.004   9.614  0.00  0.00    +0.000 HD
BRANCH  16  21
ATOM     18  C   UNL     1      46.381   2.290   7.790  0.00  0.00    +0.000 A 
ATOM     19  C   UNL     1      45.505   1.722   8.711  0.00  0.00    +0.000 A 
ATOM     20  C   UNL     1      44.651   2.540   9.449  0.00  0.00    +0.000 A 
ATOM     21  C   UNL     1      44.612   3.927   9.269  0.00  0.00    +0.000 A 
ATOM     22  C   UNL     1      45.509   4.486   8.348  0.00  0.00    +0.000 A 
ATOM     23  C   UNL     1      46.392   3.677   7.615  0.00  0.00    +0.000 A 
BRANCH  18  25
ATOM     24  N   UNL     1      48.453   2.055   6.525  0.00  0.00    +0.000 N 
ATOM     25  C   UNL     1      47.339   1.442   7.023  0.00  0.00    +0.000 C 
ATOM     26  O   UNL     1      47.140   0.247   6.856  0.00  0.00    +0.000 OA
ATOM     27  H   UNL     1      49.117   1.467   6.038  0.00  0.00    +0.000 HD
ATOM     28  H   UNL     1      48.760   2.969   6.819  0.00  0.00    +0.000 HD
ENDBRANCH  18  25
ENDBRANCH  16  21
ENDBRANCH   1  16
TORSDOF 5
ENDMDL
MODEL 2
REMARK VINA RESULT:    -9.145      2.069      3.457
REMARK INTER + INTRA:         -12.543
REMARK INTER:                 -11.279
REMARK INTRA:                  -1.264
REMARK UNBOUND:                -0.724
REMARK  Name = 
REMARK  5 active torsions:
REMARK  status: ('A' for Active; 'I' for Inactive)
REMARK    1  A    between atoms: C_2  and  C_4
REMARK    2  A    between atoms: C_7  and  N_8
REMARK    3  A    between atoms: N_8  and  C_9
REMARK    4  A    between atoms: C_9  and  C_10
REMARK    5  A    between atoms: C_14  and  C_15
REMARK                            x       y       z     vdW  Elec       q    Type
REMARK                         _______ _______ _______ _____ _____    ______ ____
ROOT
ATOM      1  C   UNL     1      43.665   4.899  11.446  0.00  0.00    +0.000 C 
ATOM      2  C   UNL     1      42.393   5.407  12.121  0.00  0.00    +0.000 C 
ATOM      3  C   UNL     1      43.004   6.204  11.020  0.00  0.00    +0.000 C 
ENDROOT
BRANCH   1   4
ATOM      4  C   UNL     1      44.971   5.019  12.235  0.00  0.00    +0.000 A 
ATOM      5  C   UNL     1      45.508   3.953  12.972  0.00  0.00    +0.000 A 
ATOM      6  C   UNL     1      46.776   4.043  13.550  0.00  0.00    +0.000 A 
ATOM      7  C   UNL     1      47.541   5.201  13.392  0.00  0.00    +0.000 A 
ATOM      8  C   UNL     1      47.045   6.301  12.679  0.00  0.00    +0.000 A 
ATOM      9  C   UNL     1      45.743   6.195  12.161  0.00  0.00    +0.000 A 
BRANCH   8  10
ATOM     10  C   UNL     1      47.873   7.479  12.355  0.00  0.00    +0.000 A 
ATOM     11  C   UNL     1      49.239   7.357  12.070  0.00  0.00    +0.000 A 
ATOM     12  C   UNL     1      49.979   8.458  11.639  0.00  0.00    +0.000 A 
ATOM     13  C   UNL     1      49.329   9.670  11.501  0.00  0.00    +0.000 A 
ATOM     14  N   UNL     1      48.024   9.853  11.779  0.00  0.00    +0.000 NA
ATOM     15  C   UNL     1      47.335   8.762  12.202  0.00  0.00    +0.000 A 
ENDBRANCH   8  10
ENDBRANCH   1   4
BRANCH   1  16
ATOM     16  N   UNL     1      43.604   3.756  10.522  0.00  0.00    +0.000 N 
ATOM     17  H   UNL     1      42.979   2.986  10.740  0.00  0.00    +0.000 HD
BRANCH  16  21
ATOM     18  C   UNL     1      46.503   2.778   7.598  0.00  0.00    +0.000 A 
ATOM     19  C   UNL     1      46.130   4.106   7.789  0.00  0.00    +0.000 A 
ATOM     20  C   UNL     1      45.178   4.425   8.756  0.00  0.00    +0.000 A 
ATOM     21  C   UNL     1      44.602   3.452   9.581  0.00  0.00    +0.000 A 
ATOM     22  C   UNL     1      44.977   2.118   9.368  0.00  0.00    +0.000 A 
ATOM     23  C   UNL     1      45.917   1.779   8.381  0.00  0.00    +0.000 A 
BRANCH  18  25
ATOM     24  N   UNL     1      47.405   3.079   5.353  0.00  0.00    +0.000 N 
ATOM     25  C   UNL     1      47.483   2.405   6.538  0.00  0.00    +0.000 C 
ATOM     26  O   UNL     1      48.326   1.539   6.724  0.00  0.00    +0.000 OA
ATOM     27  H   UNL     1      48.096   2.848   4.651  0.00  0.00    +0.000 HD
ATOM     28  H   UNL     1      46.882   3.933   5.236  0.00  0.00    +0.000 HD
ENDBRANCH  18  25
ENDBRANCH  16  21
ENDBRANCH   1  16
TORSDOF 5
ENDMDL
MODEL 3
REMARK VINA RESULT:    -8.571      1.574      2.489
REMARK INTER + INTRA:         -11.801
REMARK INTER:                 -11.129
REMARK INTRA:                  -0.672
REMARK UNBOUND:                -0.724
REMARK  Name = 
REMARK  5 active torsions:
REMARK  status: ('A' for Active; 'I' for Inactive)
REMARK    1  A    between atoms: C_2  and  C_4
REMARK    2  A    between atoms: C_7  and  N_8
REMARK    3  A    between atoms: N_8  and  C_9
REMARK    4  A    between atoms: C_9  and  C_10
REMARK    5  A    between atoms: C_14  and  C_15
REMARK                            x       y       z     vdW  Elec       q    Type
REMARK                         _______ _______ _______ _____ _____    ______ ____
ROOT
ATOM      1  C   UNL     1      44.064   5.035  11.650  0.00  0.00    +0.000 C 
ATOM      2  C   UNL     1      44.236   4.036  12.793  0.00  0.00    +0.000 C 
ATOM      3  C   UNL     1      42.988   4.848  12.713  0.00  0.00    +0.000 C 
ENDROOT
BRANCH   1   4
ATOM      4  C   UNL     1      44.880   6.327  11.721  0.00  0.00    +0.000 A 
ATOM      5  C   UNL     1      44.340   7.580  11.394  0.00  0.00    +0.000 A 
ATOM      6  C   UNL     1      45.059   8.756  11.619  0.00  0.00    +0.000 A 
ATOM      7  C   UNL     1      46.333   8.703  12.189  0.00  0.00    +0.000 A 
ATOM      8  C   UNL     1      46.926   7.476  12.518  0.00  0.00    +0.000 A 
ATOM      9  C   UNL     1      46.195   6.312  12.225  0.00  0.00    +0.000 A 
BRANCH   8  10
ATOM     10  C   UNL     1      48.198   7.381  13.261  0.00  0.00    +0.000 A 
ATOM     11  C   UNL     1      49.308   8.162  12.915  0.00  0.00    +0.000 A 
ATOM     12  C   UNL     1      50.458   8.157  13.704  0.00  0.00    +0.000 A 
ATOM     13  C   UNL     1      50.471   7.363  14.836  0.00  0.00    +0.000 A 
ATOM     14  N   UNL     1      49.443   6.577  15.209  0.00  0.00    +0.000 NA
ATOM     15  C   UNL     1      48.342   6.601  14.415  0.00  0.00    +0.000 A 
ENDBRANCH   8  10
ENDBRANCH   1   4
BRANCH   1  16
ATOM     16  N   UNL     1      43.784   4.555  10.287  0.00  0.00    +0.000 N 
ATOM     17  H   UNL     1      42.817   4.440   9.999  0.00  0.00    +0.000 HD
BRANCH  16  21
ATOM     18  C   UNL     1      46.482   2.461   7.788  0.00  0.00    +0.000 A 
ATOM     19  C   UNL     1      46.454   3.853   7.766  0.00  0.00    +0.000 A 
ATOM     20  C   UNL     1      45.567   4.540   8.594  0.00  0.00    +0.000 A 
ATOM     21  C   UNL     1      44.718   3.876   9.487  0.00  0.00    +0.000 A 
ATOM     22  C   UNL     1      44.748   2.474   9.487  0.00  0.00    +0.000 A 
ATOM     23  C   UNL     1      45.619   1.768   8.641  0.00  0.00    +0.000 A 
BRANCH  18  25
ATOM     24  N   UNL     1      48.411   2.394   6.298  0.00  0.00    +0.000 N 
ATOM     25  C   UNL     1      47.387   1.702   6.877  0.00  0.00    +0.000 C 
ATOM     26  O   UNL     1      47.224   0.508   6.665  0.00  0.00    +0.000 OA
ATOM     27  H   UNL     1      49.044   1.866   5.711  0.00  0.00    +0.000 HD
ATOM     28  H   UNL     1      48.708   3.306   6.609  0.00  0.00    +0.000 HD
ENDBRANCH  18  25
ENDBRANCH  16  21
ENDBRANCH   1  16
TORSDOF 5
ENDMDL
MODEL 4
REMARK VINA RESULT:    -7.866      3.018      7.476
REMARK INTER + INTRA:         -10.890
REMARK INTER:                  -9.861
REMARK INTRA:                  -1.029
REMARK UNBOUND:                -0.724
REMARK  Name = 
REMARK  5 active torsions:
REMARK  status: ('A' for Active; 'I' for Inactive)
REMARK    1  A    between atoms: C_2  and  C_4
REMARK    2  A    between atoms: C_7  and  N_8
REMARK    3  A    between atoms: N_8  and  C_9
REMARK    4  A    between atoms: C_9  and  C_10
REMARK    5  A    between atoms: C_14  and  C_15
REMARK                            x       y       z     vdW  Elec       q    Type
REMARK                         _______ _______ _______ _____ _____    ______ ____
ROOT
ATOM      1  C   UNL     1      46.288   7.332  12.316  0.00  0.00    +0.000 C 
ATOM      2  C   UNL     1      46.256   8.756  11.765  0.00  0.00    +0.000 C 
ATOM      3  C   UNL     1      45.695   8.484  13.119  0.00  0.00    +0.000 C 
ENDROOT
BRANCH   1   4
ATOM      4  C   UNL     1      45.297   6.329  11.722  0.00  0.00    +0.000 A 
ATOM      5  C   UNL     1      43.910   6.440  11.906  0.00  0.00    +0.000 A 
ATOM      6  C   UNL     1      43.024   5.603  11.224  0.00  0.00    +0.000 A 
ATOM      7  C   UNL     1      43.508   4.643  10.332  0.00  0.00    +0.000 A 
ATOM      8  C   UNL     1      44.885   4.481  10.124  0.00  0.00    +0.000 A 
ATOM      9  C   UNL     1      45.747   5.302  10.871  0.00  0.00    +0.000 A 
BRANCH   8  10
ATOM     10  C   UNL     1      45.433   3.592   9.081  0.00  0.00    +0.000 A 
ATOM     11  C   UNL     1      46.083   4.103   7.951  0.00  0.00    +0.000 A 
ATOM     12  C   UNL     1      46.709   3.252   7.041  0.00  0.00    +0.000 A 
ATOM     13  C   UNL     1      46.671   1.891   7.285  0.00  0.00    +0.000 A 
ATOM     14  N   UNL     1      46.045   1.340   8.343  0.00  0.00    +0.000 NA
ATOM     15  C   UNL     1      45.440   2.198   9.205  0.00  0.00    +0.000 A 
ENDBRANCH   8  10
ENDBRANCH   1   4
BRANCH   1  16
ATOM     16  N   UNL     1      47.558   6.748  12.775  0.00  0.00    +0.000 N 
ATOM     17  H   UNL     1      48.294   6.584  12.094  0.00  0.00    +0.000 HD
BRANCH  16  21
ATOM     18  C   UNL     1      47.923   4.728  16.475  0.00  0.00    +0.000 A 
ATOM     19  C   UNL     1      47.131   4.188  15.465  0.00  0.00    +0.000 A 
ATOM     20  C   UNL     1      47.016   4.854  14.245  0.00  0.00    +0.000 A 
ATOM     21  C   UNL     1      47.708   6.042  13.980  0.00  0.00    +0.000 A 
ATOM     22  C   UNL     1      48.490   6.580  15.011  0.00  0.00    +0.000 A 
ATOM     23  C   UNL     1      48.595   5.933  16.253  0.00  0.00    +0.000 A 
BRANCH  18  25
ATOM     24  N   UNL     1      47.241   2.961  18.011  0.00  0.00    +0.000 N 
ATOM     25  C   UNL     1      48.024   4.060  17.805  0.00  0.00    +0.000 C 
ATOM     26  O   UNL     1      48.782   4.474  18.671  0.00  0.00    +0.000 OA
ATOM     27  H   UNL     1      47.341   2.490  18.900  0.00  0.00    +0.000 HD
ATOM     28  H   UNL     1      46.776   2.465  17.266  0.00  0.00    +0.000 HD
ENDBRANCH  18  25
ENDBRANCH  16  21
ENDBRANCH   1  16
TORSDOF 5
ENDMDL
MODEL 5
REMARK VINA RESULT:    -7.606      2.605      3.638
REMARK INTER + INTRA:         -10.554
REMARK INTER:                  -9.802
REMARK INTRA:                  -0.752
REMARK UNBOUND:                -0.724
REMARK  Name = 
REMARK  5 active torsions:
REMARK  status: ('A' for Active; 'I' for Inactive)
REMARK    1  A    between atoms: C_2  and  C_4
REMARK    2  A    between atoms: C_7  and  N_8
REMARK    3  A    between atoms: N_8  and  C_9
REMARK    4  A    between atoms: C_9  and  C_10
REMARK    5  A    between atoms: C_14  and  C_15
REMARK                            x       y       z     vdW  Elec       q    Type
REMARK                         _______ _______ _______ _____ _____    ______ ____
ROOT
ATOM      1  C   UNL     1      45.058   5.309  11.799  0.00  0.00    +0.000 C 
ATOM      2  C   UNL     1      45.732   4.196  12.598  0.00  0.00    +0.000 C 
ATOM      3  C   UNL     1      44.388   4.686  13.017  0.00  0.00    +0.000 C 
ENDROOT
BRANCH   1   4
ATOM      4  C   UNL     1      45.609   6.726  11.971  0.00  0.00    +0.000 A 
ATOM      5  C   UNL     1      44.870   7.756  12.573  0.00  0.00    +0.000 A 
ATOM      6  C   UNL     1      45.455   8.992  12.857  0.00  0.00    +0.000 A 
ATOM      7  C   UNL     1      46.800   9.220  12.554  0.00  0.00    +0.000 A 
ATOM      8  C   UNL     1      47.578   8.231  11.937  0.00  0.00    +0.000 A 
ATOM      9  C   UNL     1      46.940   7.021  11.615  0.00  0.00    +0.000 A 
BRANCH   8  10
ATOM     10  C   UNL     1      49.034   8.371  11.741  0.00  0.00    +0.000 A 
ATOM     11  C   UNL     1      49.815   7.309  11.264  0.00  0.00    +0.000 A 
ATOM     12  C   UNL     1      51.163   7.495  10.962  0.00  0.00    +0.000 A 
ATOM     13  C   UNL     1      51.708   8.752  11.143  0.00  0.00    +0.000 A 
ATOM     14  N   UNL     1      51.014   9.805  11.616  0.00  0.00    +0.000 NA
ATOM     15  C   UNL     1      49.705   9.588  11.907  0.00  0.00    +0.000 A 
ENDBRANCH   8  10
ENDBRANCH   1   4
BRANCH   1  16
ATOM     16  N   UNL     1      44.489   5.024  10.472  0.00  0.00    +0.000 N 
ATOM     17  H   UNL     1      43.481   5.054  10.357  0.00  0.00    +0.000 HD
BRANCH  16  21
ATOM     18  C   UNL     1      46.687   2.987   7.483  0.00  0.00    +0.000 A 
ATOM     19  C   UNL     1      45.858   2.272   8.345  0.00  0.00    +0.000 A 
ATOM     20  C   UNL     1      45.133   2.946   9.325  0.00  0.00    +0.000 A 
ATOM     21  C   UNL     1      45.175   4.339   9.455  0.00  0.00    +0.000 A 
ATOM     22  C   UNL     1      46.025   5.044   8.590  0.00  0.00    +0.000 A 
ATOM     23  C   UNL     1      46.780   4.375   7.613  0.00  0.00    +0.000 A 
BRANCH  18  25
ATOM     24  N   UNL     1      47.650   2.897   5.245  0.00  0.00    +0.000 N 
ATOM     25  C   UNL     1      47.510   2.284   6.458  0.00  0.00    +0.000 C 
ATOM     26  O   UNL     1      48.045   1.211   6.695  0.00  0.00    +0.000 OA
ATOM     27  H   UNL     1      48.240   2.434   4.566  0.00  0.00    +0.000 HD
ATOM     28  H   UNL     1      47.415   3.863   5.083  0.00  0.00    +0.000 HD
ENDBRANCH  18  25
ENDBRANCH  16  21
ENDBRANCH   1  16
TORSDOF 5
ENDMDL
MODEL 6
REMARK VINA RESULT:    -7.285      3.291      7.667
REMARK INTER + INTRA:         -10.139
REMARK INTER:                  -9.343
REMARK INTRA:                  -0.796
REMARK UNBOUND:                -0.724
REMARK  Name = 
REMARK  5 active torsions:
REMARK  status: ('A' for Active; 'I' for Inactive)
REMARK    1  A    between atoms: C_2  and  C_4
REMARK    2  A    between atoms: C_7  and  N_8
REMARK    3  A    between atoms: N_8  and  C_9
REMARK    4  A    between atoms: C_9  and  C_10
REMARK    5  A    between atoms: C_14  and  C_15
REMARK                            x       y       z     vdW  Elec       q    Type
REMARK                         _______ _______ _______ _____ _____    ______ ____
ROOT
ATOM      1  C   UNL     1      44.169   5.566  11.198  0.00  0.00    +0.000 C 
ATOM      2  C   UNL     1      42.742   6.102  11.291  0.00  0.00    +0.000 C 
ATOM      3  C   UNL     1      43.468   5.734  12.540  0.00  0.00    +0.000 C 
ENDROOT
BRANCH   1   4
ATOM      4  C   UNL     1      44.348   4.133  10.693  0.00  0.00    +0.000 A 
ATOM      5  C   UNL     1      43.565   3.066  11.157  0.00  0.00    +0.000 A 
ATOM      6  C   UNL     1      43.643   1.803  10.566  0.00  0.00    +0.000 A 
ATOM      7  C   UNL     1      44.501   1.585   9.485  0.00  0.00    +0.000 A 
ATOM      8  C   UNL     1      45.317   2.613   8.993  0.00  0.00    +0.000 A 
ATOM      9  C   UNL     1      45.252   3.853   9.650  0.00  0.00    +0.000 A 
BRANCH   8  10
ATOM     10  C   UNL     1      46.119   2.471   7.762  0.00  0.00    +0.000 A 
ATOM     11  C   UNL     1      46.154   3.481   6.791  0.00  0.00    +0.000 A 
ATOM     12  C   UNL     1      47.015   3.390   5.698  0.00  0.00    +0.000 A 
ATOM     13  C   UNL     1      47.833   2.280   5.600  0.00  0.00    +0.000 A 
ATOM     14  N   UNL     1      47.830   1.269   6.490  0.00  0.00    +0.000 NA
ATOM     15  C   UNL     1      46.975   1.386   7.538  0.00  0.00    +0.000 A 
ENDBRANCH   8  10
ENDBRANCH   1   4
BRANCH   1  16
ATOM     16  N   UNL     1      45.279   6.478  10.876  0.00  0.00    +0.000 N 
ATOM     17  H   UNL     1      45.666   6.463   9.937  0.00  0.00    +0.000 HD
BRANCH  16  21
ATOM     18  C   UNL     1      47.652   8.274  13.885  0.00  0.00    +0.000 A 
ATOM     19  C   UNL     1      48.002   7.024  13.378  0.00  0.00    +0.000 A 
ATOM     20  C   UNL     1      47.220   6.437  12.385  0.00  0.00    +0.000 A 
ATOM     21  C   UNL     1      46.104   7.082  11.840  0.00  0.00    +0.000 A 
ATOM     22  C   UNL     1      45.756   8.333  12.370  0.00  0.00    +0.000 A 
ATOM     23  C   UNL     1      46.520   8.925  13.388  0.00  0.00    +0.000 A 
BRANCH  18  25
ATOM     24  N   UNL     1      47.764   9.269  16.108  0.00  0.00    +0.000 N 
ATOM     25  C   UNL     1      48.444   8.901  14.982  0.00  0.00    +0.000 C 
ATOM     26  O   UNL     1      49.651   9.071  14.882  0.00  0.00    +0.000 OA
ATOM     27  H   UNL     1      48.312   9.660  16.863  0.00  0.00    +0.000 HD
ATOM     28  H   UNL     1      46.829   8.955  16.318  0.00  0.00    +0.000 HD
ENDBRANCH  18  25
ENDBRANCH  16  21
ENDBRANCH   1  16
TORSDOF 5
ENDMDL
MODEL 7
REMARK VINA RESULT:    -7.111      2.780      4.525
REMARK INTER + INTRA:          -9.914
REMARK INTER:                  -8.729
REMARK INTRA:                  -1.185
REMARK UNBOUND:                -0.724
REMARK  Name = 
REMARK  5 active torsions:
REMARK  status: ('A' for Active; 'I' for Inactive)
REMARK    1  A    between atoms: C_2  and  C_4
REMARK    2  A    between atoms: C_7  and  N_8
REMARK    3  A    between atoms: N_8  and  C_9
REMARK    4  A    between atoms: C_9  and  C_10
REMARK    5  A    between atoms: C_14  and  C_15
REMARK                            x       y       z     vdW  Elec       q    Type
REMARK                         _______ _______ _______ _____ _____    ______ ____
ROOT
ATOM      1  C   UNL     1      47.728   8.122  12.902  0.00  0.00    +0.000 C 
ATOM      2  C   UNL     1      48.479   9.098  11.998  0.00  0.00    +0.000 C 
ATOM      3  C   UNL     1      48.721   7.634  11.853  0.00  0.00    +0.000 C 
ENDROOT
BRANCH   1   4
ATOM      4  C   UNL     1      48.176   8.035  14.362  0.00  0.00    +0.000 A 
ATOM      5  C   UNL     1      48.123   9.132  15.235  0.00  0.00    +0.000 A 
ATOM      6  C   UNL     1      48.390   8.982  16.598  0.00  0.00    +0.000 A 
ATOM      7  C   UNL     1      48.703   7.725  17.120  0.00  0.00    +0.000 A 
ATOM      8  C   UNL     1      48.786   6.599  16.288  0.00  0.00    +0.000 A 
ATOM      9  C   UNL     1      48.568   6.800  14.914  0.00  0.00    +0.000 A 
BRANCH   8  10
ATOM     10  C   UNL     1      48.960   5.231  16.815  0.00  0.00    +0.000 A 
ATOM     11  C   UNL     1      47.971   4.253  16.652  0.00  0.00    +0.000 A 
ATOM     12  C   UNL     1      48.203   2.933  17.040  0.00  0.00    +0.000 A 
ATOM     13  C   UNL     1      49.433   2.618  17.586  0.00  0.00    +0.000 A 
ATOM     14  N   UNL     1      50.415   3.518  17.785  0.00  0.00    +0.000 NA
ATOM     15  C   UNL     1      50.153   4.795  17.403  0.00  0.00    +0.000 A 
ENDBRANCH   8  10
ENDBRANCH   1   4
BRANCH   1  16
ATOM     16  N   UNL     1      46.298   7.861  12.678  0.00  0.00    +0.000 N 
ATOM     17  H   UNL     1      45.616   8.475  13.112  0.00  0.00    +0.000 HD
BRANCH  16  21
ATOM     18  C   UNL     1      44.615   4.181  11.439  0.00  0.00    +0.000 A 
ATOM     19  C   UNL     1      44.879   5.175  10.500  0.00  0.00    +0.000 A 
ATOM     20  C   UNL     1      45.437   6.384  10.910  0.00  0.00    +0.000 A 
ATOM     21  C   UNL     1      45.783   6.627  12.245  0.00  0.00    +0.000 A 
ATOM     22  C   UNL     1      45.499   5.623  13.181  0.00  0.00    +0.000 A 
ATOM     23  C   UNL     1      44.914   4.409  12.785  0.00  0.00    +0.000 A 
BRANCH  18  25
ATOM     24  N   UNL     1      44.553   2.209  10.006  0.00  0.00    +0.000 N 
ATOM     25  C   UNL     1      43.973   2.897  11.033  0.00  0.00    +0.000 C 
ATOM     26  O   UNL     1      42.976   2.475  11.601  0.00  0.00    +0.000 OA
ATOM     27  H   UNL     1      44.136   1.321   9.760  0.00  0.00    +0.000 HD
ATOM     28  H   UNL     1      45.481   2.404   9.663  0.00  0.00    +0.000 HD
ENDBRANCH  18  25
ENDBRANCH  16  21
ENDBRANCH   1  16
TORSDOF 5
ENDMDL
MODEL 8
REMARK VINA RESULT:    -6.968      3.345      7.144
REMARK INTER + INTRA:          -9.729
REMARK INTER:                  -8.549
REMARK INTRA:                  -1.179
REMARK UNBOUND:                -0.724
REMARK  Name = 
REMARK  5 active torsions:
REMARK  status: ('A' for Active; 'I' for Inactive)
REMARK    1  A    between atoms: C_2  and  C_4
REMARK    2  A    between atoms: C_7  and  N_8
REMARK    3  A    between atoms: N_8  and  C_9
REMARK    4  A    between atoms: C_9  and  C_10
REMARK    5  A    between atoms: C_14  and  C_15
REMARK                            x       y       z     vdW  Elec       q    Type
REMARK                         _______ _______ _______ _____ _____    ______ ____
ROOT
ATOM      1  C   UNL     1      46.137   5.190  13.475  0.00  0.00    +0.000 C 
ATOM      2  C   UNL     1      46.030   4.288  14.703  0.00  0.00    +0.000 C 
ATOM      3  C   UNL     1      47.184   4.124  13.774  0.00  0.00    +0.000 C 
ENDROOT
BRANCH   1   4
ATOM      4  C   UNL     1      45.183   4.906  12.313  0.00  0.00    +0.000 A 
ATOM      5  C   UNL     1      43.930   5.528  12.196  0.00  0.00    +0.000 A 
ATOM      6  C   UNL     1      43.152   5.369  11.047  0.00  0.00    +0.000 A 
ATOM      7  C   UNL     1      43.618   4.593   9.983  0.00  0.00    +0.000 A 
ATOM      8  C   UNL     1      44.855   3.937  10.056  0.00  0.00    +0.000 A 
ATOM      9  C   UNL     1      45.583   4.074  11.250  0.00  0.00    +0.000 A 
BRANCH   8  10
ATOM     10  C   UNL     1      45.454   3.238   8.902  0.00  0.00    +0.000 A 
ATOM     11  C   UNL     1      45.987   3.943   7.815  0.00  0.00    +0.000 A 
ATOM     12  C   UNL     1      46.665   3.275   6.796  0.00  0.00    +0.000 A 
ATOM     13  C   UNL     1      46.798   1.902   6.888  0.00  0.00    +0.000 A 
ATOM     14  N   UNL     1      46.290   1.169   7.897  0.00  0.00    +0.000 NA
ATOM     15  C   UNL     1      45.630   1.850   8.869  0.00  0.00    +0.000 A 
ENDBRANCH   8  10
ENDBRANCH   1   4
BRANCH   1  16
ATOM     16  N   UNL     1      46.521   6.602  13.630  0.00  0.00    +0.000 N 
ATOM     17  H   UNL     1      45.791   7.293  13.775  0.00  0.00    +0.000 HD
BRANCH  16  21
ATOM     18  C   UNL     1      50.300   8.062  12.406  0.00  0.00    +0.000 A 
ATOM     19  C   UNL     1      49.332   7.755  11.452  0.00  0.00    +0.000 A 
ATOM     20  C   UNL     1      48.087   7.277  11.859  0.00  0.00    +0.000 A 
ATOM     21  C   UNL     1      47.753   7.131  13.210  0.00  0.00    +0.000 A 
ATOM     22  C   UNL     1      48.742   7.431  14.158  0.00  0.00    +0.000 A 
ATOM     23  C   UNL     1      50.009   7.889  13.762  0.00  0.00    +0.000 A 
BRANCH  18  25
ATOM     24  N   UNL     1      52.354   7.728  11.136  0.00  0.00    +0.000 N 
ATOM     25  C   UNL     1      51.656   8.528  11.995  0.00  0.00    +0.000 C 
ATOM     26  O   UNL     1      52.118   9.584  12.402  0.00  0.00    +0.000 OA
ATOM     27  H   UNL     1      53.258   8.067  10.831  0.00  0.00    +0.000 HD
ATOM     28  H   UNL     1      51.933   6.976  10.614  0.00  0.00    +0.000 HD
ENDBRANCH  18  25
ENDBRANCH  16  21
ENDBRANCH   1  16
TORSDOF 5
ENDMDL
MODEL 9
REMARK VINA RESULT:    -6.847      2.891      7.526
REMARK INTER + INTRA:          -9.572
REMARK INTER:                  -9.396
REMARK INTRA:                  -0.176
REMARK UNBOUND:                -0.724
REMARK  Name = 
REMARK  5 active torsions:
REMARK  status: ('A' for Active; 'I' for Inactive)
REMARK    1  A    between atoms: C_2  and  C_4
REMARK    2  A    between atoms: C_7  and  N_8
REMARK    3  A    between atoms: N_8  and  C_9
REMARK    4  A    between atoms: C_9  and  C_10
REMARK    5  A    between atoms: C_14  and  C_15
REMARK                            x       y       z     vdW  Elec       q    Type
REMARK                         _______ _______ _______ _____ _____    ______ ____
ROOT
ATOM      1  C   UNL     1      48.649   7.917  12.631  0.00  0.00    +0.000 C 
ATOM      2  C   UNL     1      49.678   7.434  11.611  0.00  0.00    +0.000 C 
ATOM      3  C   UNL     1      49.419   8.895  11.752  0.00  0.00    +0.000 C 
ENDROOT
BRANCH   1   4
ATOM      4  C   UNL     1      47.172   7.706  12.289  0.00  0.00    +0.000 A 
ATOM      5  C   UNL     1      46.207   8.709  12.460  0.00  0.00    +0.000 A 
ATOM      6  C   UNL     1      44.901   8.540  11.994  0.00  0.00    +0.000 A 
ATOM      7  C   UNL     1      44.537   7.363  11.334  0.00  0.00    +0.000 A 
ATOM      8  C   UNL     1      45.459   6.323  11.152  0.00  0.00    +0.000 A 
ATOM      9  C   UNL     1      46.746   6.507  11.685  0.00  0.00    +0.000 A 
BRANCH   8  10
ATOM     10  C   UNL     1      45.164   5.133  10.329  0.00  0.00    +0.000 A 
ATOM     11  C   UNL     1      45.683   4.992   9.035  0.00  0.00    +0.000 A 
ATOM     12  C   UNL     1      45.504   3.808   8.321  0.00  0.00    +0.000 A 
ATOM     13  C   UNL     1      44.804   2.779   8.924  0.00  0.00    +0.000 A 
ATOM     14  N   UNL     1      44.267   2.863  10.156  0.00  0.00    +0.000 NA
ATOM     15  C   UNL     1      44.453   4.032  10.821  0.00  0.00    +0.000 A 
ENDBRANCH   8  10
ENDBRANCH   1   4
BRANCH   1  16
ATOM     16  N   UNL     1      48.962   7.881  14.068  0.00  0.00    +0.000 N 
ATOM     17  H   UNL     1      49.687   8.497  14.425  0.00  0.00    +0.000 HD
BRANCH  16  21
ATOM     18  C   UNL     1      47.868   4.755  16.702  0.00  0.00    +0.000 A 
ATOM     19  C   UNL     1      47.435   4.731  15.378  0.00  0.00    +0.000 A 
ATOM     20  C   UNL     1      47.801   5.760  14.512  0.00  0.00    +0.000 A 
ATOM     21  C   UNL     1      48.630   6.812  14.917  0.00  0.00    +0.000 A 
ATOM     22  C   UNL     1      49.046   6.831  16.256  0.00  0.00    +0.000 A 
ATOM     23  C   UNL     1      48.666   5.813  17.146  0.00  0.00    +0.000 A 
BRANCH  18  25
ATOM     24  N   UNL     1      48.080   3.665  18.873  0.00  0.00    +0.000 N 
ATOM     25  C   UNL     1      47.451   3.692  17.661  0.00  0.00    +0.000 C 
ATOM     26  O   UNL     1      46.577   2.884  17.378  0.00  0.00    +0.000 OA
ATOM     27  H   UNL     1      47.767   2.965  19.533  0.00  0.00    +0.000 HD
ATOM     28  H   UNL     1      48.636   4.428  19.225  0.00  0.00    +0.000 HD
ENDBRANCH  18  25
ENDBRANCH  16  21
ENDBRANCH   1  16
TORSDOF 5
ENDMDL
