MODEL 1
REMARK VINA RESULT:    -9.383      0.000      0.000
REMARK INTER + INTRA:         -12.791
REMARK INTER:                 -12.126
REMARK INTRA:                  -0.665
REMARK UNBOUND:                -0.665
REMARK  Name = 
REMARK  5 active torsions:
REMARK  status: ('A' for Active; 'I' for Inactive)
REMARK    1  A    between atoms: C_2  and  C_4
REMARK    2  A    between atoms: C_7  and  N_8
REMARK    3  A    between atoms: N_8  and  C_9
REMARK    4  A    between atoms: C_9  and  C_10
REMARK    5  A    between atoms: C_14  and  C_15
REMARK                            x       y       z     vdW  Elec       q    Type
REMARK                         _______ _______ _______ _____ _____    ______ ____
ROOT
ATOM      1  C   UNL     1      43.913   4.840  11.380  0.00  0.00    +0.000 C 
ATOM      2  C   UNL     1      43.167   3.800  12.193  0.00  0.00    +0.000 C 
ATOM      3  C   UNL     1      42.677   5.210  12.180  0.00  0.00    +0.000 C 
ENDROOT
BRANCH   1   4
ATOM      4  C   UNL     1      45.270   5.364  11.837  0.00  0.00    +0.000 A 
ATOM      5  C   UNL     1      45.780   6.573  11.342  0.00  0.00    +0.000 A 
ATOM      6  C   UNL     1      46.853   7.210  11.957  0.00  0.00    +0.000 A 
ATOM      7  C   UNL     1      47.435   6.648  13.093  0.00  0.00    +0.000 A 
ATOM      8  C   UNL     1      46.996   5.416  13.606  0.00  0.00    +0.000 A 
ATOM      9  C   UNL     1      45.936   4.774  12.933  0.00  0.00    +0.000 A 
BRANCH   8  10
ATOM     10  C   UNL     1      47.548   4.891  14.869  0.00  0.00    +0.000 A 
ATOM     11  C   UNL     1      48.310   5.647  15.758  0.00  0.00    +0.000 A 
ATOM     12  N   UNL     1      48.872   5.137  16.886  0.00  0.00    +0.000 NA
ATOM     13  C   UNL     1      48.642   3.824  17.100  0.00  0.00    +0.000 A 
ATOM     14  C   UNL     1      47.881   3.060  16.235  0.00  0.00    +0.000 A 
ATOM     15  N   UNL     1      47.319   3.572  15.117  0.00  0.00    +0.000 NA
ENDBRANCH   8  10
ENDBRANCH   1   4
BRANCH   1  16
ATOM     16  N   UNL     1      43.836   4.796   9.902  0.00  0.00    +0.000 N 
ATOM     17  H   UNL     1      42.914   4.809   9.483  0.00  0.00    +0.000 HD
BRANCH  16  21
ATOM     18  C   UNL     1      46.397   2.319   7.818  0.00  0.00    +0.000 A 
ATOM     19  C   UNL     1      46.407   3.685   7.599  0.00  0.00    +0.000 A 
ATOM     20  N   UNL     1      45.585   4.537   8.268  0.00  0.00    +0.000 NA
ATOM     21  C   UNL     1      44.746   3.992   9.178  0.00  0.00    +0.000 A 
ATOM     22  C   UNL     1      44.736   2.604   9.365  0.00  0.00    +0.000 A 
ATOM     23  N   UNL     1      45.553   1.733   8.711  0.00  0.00    +0.000 NA
BRANCH  18  25
ATOM     24  N   UNL     1      48.433   2.070   6.530  0.00  0.00    +0.000 N 
ATOM     25  C   UNL     1      47.336   1.443   7.064  0.00  0.00    +0.000 C 
ATOM     26  O   UNL     1      47.153   0.242   6.936  0.00  0.00    +0.000 OA
ATOM     27  H   UNL     1      49.123   1.520   6.044  0.00  0.00    +0.000 HD
ATOM     28  H   UNL     1      48.583   3.057   6.697  0.00  0.00    +0.000 HD
ENDBRANCH  18  25
ENDBRANCH  16  21
ENDBRANCH   1  16
TORSDOF 5
ENDMDL
MODEL 2
REMARK VINA RESULT:    -8.556      2.201      3.446
REMARK INTER + INTRA:         -11.722
REMARK INTER:                 -11.209
REMARK INTRA:                  -0.513
REMARK UNBOUND:                -0.665
REMARK  Name = 
REMARK  5 active torsions:
REMARK  status: ('A' for Active; 'I' for Inactive)
REMARK    1  A    between atoms: C_2  and  C_4
REMARK    2  A    between atoms: C_7  and  N_8
REMARK    3  A    between atoms: N_8  and  C_9
REMARK    4  A    between atoms: C_9  and  C_10
REMARK    5  A    between atoms: C_14  and  C_15
REMARK                            x       y       z     vdW  Elec       q    Type
REMARK                         _______ _______ _______ _____ _____    ______ ____
ROOT
ATOM      1  C   UNL     1      43.888   4.857  11.298  0.00  0.00    +0.000 C 
ATOM      2  C   UNL     1      43.011   3.684  11.686  0.00  0.00    +0.000 C 
ATOM      3  C   UNL     1      42.491   5.073  11.850  0.00  0.00    +0.000 C 
ENDROOT
BRANCH   1   4
ATOM      4  C   UNL     1      45.087   5.254  12.152  0.00  0.00    +0.000 A 
ATOM      5  C   UNL     1      45.722   4.320  12.983  0.00  0.00    +0.000 A 
ATOM      6  C   UNL     1      46.976   4.574  13.529  0.00  0.00    +0.000 A 
ATOM      7  C   UNL     1      47.627   5.776  13.245  0.00  0.00    +0.000 A 
ATOM      8  C   UNL     1      47.018   6.768  12.457  0.00  0.00    +0.000 A 
ATOM      9  C   UNL     1      45.729   6.497  11.956  0.00  0.00    +0.000 A 
BRANCH   8  10
ATOM     10  C   UNL     1      47.763   7.982  12.077  0.00  0.00    +0.000 A 
ATOM     11  C   UNL     1      49.109   7.989  11.718  0.00  0.00    +0.000 A 
ATOM     12  N   UNL     1      49.805   9.122  11.434  0.00  0.00    +0.000 NA
ATOM     13  C   UNL     1      49.098  10.268  11.523  0.00  0.00    +0.000 A 
ATOM     14  C   UNL     1      47.759  10.282  11.869  0.00  0.00    +0.000 A 
ATOM     15  N   UNL     1      47.069   9.152  12.144  0.00  0.00    +0.000 NA
ENDBRANCH   8  10
ENDBRANCH   1   4
BRANCH   1  16
ATOM     16  N   UNL     1      44.152   5.121   9.865  0.00  0.00    +0.000 N 
ATOM     17  H   UNL     1      43.385   5.475   9.308  0.00  0.00    +0.000 HD
BRANCH  16  21
ATOM     18  C   UNL     1      46.495   2.447   7.769  0.00  0.00    +0.000 A 
ATOM     19  C   UNL     1      46.596   3.807   7.532  0.00  0.00    +0.000 A 
ATOM     20  N   UNL     1      45.849   4.722   8.204  0.00  0.00    +0.000 NA
ATOM     21  C   UNL     1      44.990   4.248   9.136  0.00  0.00    +0.000 A 
ATOM     22  C   UNL     1      44.888   2.866   9.342  0.00  0.00    +0.000 A 
ATOM     23  N   UNL     1      45.629   1.932   8.684  0.00  0.00    +0.000 NA
BRANCH  18  25
ATOM     24  N   UNL     1      48.493   2.038   6.461  0.00  0.00    +0.000 N 
ATOM     25  C   UNL     1      47.357   1.499   7.010  0.00  0.00    +0.000 C 
ATOM     26  O   UNL     1      47.082   0.315   6.891  0.00  0.00    +0.000 OA
ATOM     27  H   UNL     1      49.133   1.435   5.971  0.00  0.00    +0.000 HD
ATOM     28  H   UNL     1      48.719   3.011   6.621  0.00  0.00    +0.000 HD
ENDBRANCH  18  25
ENDBRANCH  16  21
ENDBRANCH   1  16
TORSDOF 5
ENDMDL
MODEL 3
REMARK VINA RESULT:    -8.418      1.546      2.154
REMARK INTER + INTRA:         -11.544
REMARK INTER:                 -10.957
REMARK INTRA:                  -0.587
REMARK UNBOUND:                -0.665
REMARK  Name = 
REMARK  5 active torsions:
REMARK  status: ('A' for Active; 'I' for Inactive)
REMARK    1  A    between atoms: C_2  and  C_4
REMARK    2  A    between atoms: C_7  and  N_8
REMARK    3  A    between atoms: N_8  and  C_9
REMARK    4  A    between atoms: C_9  and  C_10
REMARK    5  A    between atoms: C_14  and  C_15
REMARK                            x       y       z     vdW  Elec       q    Type
REMARK                         _______ _______ _______ _____ _____    ______ ____
ROOT
ATOM      1  C   UNL     1      44.079   5.048  11.462  0.00  0.00    +0.000 C 
ATOM      2  C   UNL     1      44.208   3.883  12.423  0.00  0.00    +0.000 C 
ATOM      3  C   UNL     1      43.011   4.770  12.504  0.00  0.00    +0.000 C 
ENDROOT
BRANCH   1   4
ATOM      4  C   UNL     1      44.951   6.289  11.616  0.00  0.00    +0.000 A 
ATOM      5  C   UNL     1      44.457   7.562  11.297  0.00  0.00    +0.000 A 
ATOM      6  C   UNL     1      45.117   8.716  11.707  0.00  0.00    +0.000 A 
ATOM      7  C   UNL     1      46.290   8.617  12.456  0.00  0.00    +0.000 A 
ATOM      8  C   UNL     1      46.856   7.369  12.765  0.00  0.00    +0.000 A 
ATOM      9  C   UNL     1      46.186   6.219  12.297  0.00  0.00    +0.000 A 
BRANCH   8  10
ATOM     10  C   UNL     1      48.032   7.279  13.649  0.00  0.00    +0.000 A 
ATOM     11  C   UNL     1      48.227   6.264  14.585  0.00  0.00    +0.000 A 
ATOM     12  N   UNL     1      49.281   6.225  15.443  0.00  0.00    +0.000 NA
ATOM     13  C   UNL     1      50.149   7.252  15.332  0.00  0.00    +0.000 A 
ATOM     14  C   UNL     1      49.979   8.264  14.405  0.00  0.00    +0.000 A 
ATOM     15  N   UNL     1      48.933   8.295  13.549  0.00  0.00    +0.000 NA
ENDBRANCH   8  10
ENDBRANCH   1   4
BRANCH   1  16
ATOM     16  N   UNL     1      43.790   4.781  10.035  0.00  0.00    +0.000 N 
ATOM     17  H   UNL     1      42.833   4.565   9.786  0.00  0.00    +0.000 HD
BRANCH  16  21
ATOM     18  C   UNL     1      46.428   2.551   7.776  0.00  0.00    +0.000 A 
ATOM     19  C   UNL     1      46.380   3.928   7.646  0.00  0.00    +0.000 A 
ATOM     20  N   UNL     1      45.532   4.701   8.374  0.00  0.00    +0.000 NA
ATOM     21  C   UNL     1      44.725   4.064   9.254  0.00  0.00    +0.000 A 
ATOM     22  C   UNL     1      44.774   2.668   9.352  0.00  0.00    +0.000 A 
ATOM     23  N   UNL     1      45.619   1.875   8.637  0.00  0.00    +0.000 NA
BRANCH  18  25
ATOM     24  N   UNL     1      48.475   2.463   6.484  0.00  0.00    +0.000 N 
ATOM     25  C   UNL     1      47.396   1.765   6.961  0.00  0.00    +0.000 C 
ATOM     26  O   UNL     1      47.248   0.573   6.738  0.00  0.00    +0.000 OA
ATOM     27  H   UNL     1      49.182   1.973   5.960  0.00  0.00    +0.000 HD
ATOM     28  H   UNL     1      48.596   3.437   6.729  0.00  0.00    +0.000 HD
ENDBRANCH  18  25
ENDBRANCH  16  21
ENDBRANCH   1  16
TORSDOF 5
ENDMDL
MODEL 4
REMARK VINA RESULT:    -7.034      2.598      7.326
REMARK INTER + INTRA:          -9.755
REMARK INTER:                 -10.065
REMARK INTRA:                   0.310
REMARK UNBOUND:                -0.665
REMARK  Name = 
REMARK  5 active torsions:
REMARK  status: ('A' for Active; 'I' for Inactive)
REMARK    1  A    between atoms: C_2  and  C_4
REMARK    2  A    between atoms: C_7  and  N_8
REMARK    3  A    between atoms: N_8  and  C_9
REMARK    4  A    between atoms: C_9  and  C_10
REMARK    5  A    between atoms: C_14  and  C_15
REMARK                            x       y       z     vdW  Elec       q    Type
REMARK                         _______ _______ _______ _____ _____    ______ ____
ROOT
ATOM      1  C   UNL     1      46.494   7.307  12.459  0.00  0.00    +0.000 C 
ATOM      2  C   UNL     1      46.631   8.715  11.914  0.00  0.00    +0.000 C 
ATOM      3  C   UNL     1      45.979   8.502  13.239  0.00  0.00    +0.000 C 
ENDROOT
BRANCH   1   4
ATOM      4  C   UNL     1      45.489   6.331  11.859  0.00  0.00    +0.000 A 
ATOM      5  C   UNL     1      44.110   6.534  12.006  0.00  0.00    +0.000 A 
ATOM      6  C   UNL     1      43.190   5.838  11.227  0.00  0.00    +0.000 A 
ATOM      7  C   UNL     1      43.638   4.924  10.273  0.00  0.00    +0.000 A 
ATOM      8  C   UNL     1      45.006   4.646  10.115  0.00  0.00    +0.000 A 
ATOM      9  C   UNL     1      45.909   5.335  10.950  0.00  0.00    +0.000 A 
BRANCH   8  10
ATOM     10  C   UNL     1      45.469   3.760   9.030  0.00  0.00    +0.000 A 
ATOM     11  C   UNL     1      45.492   2.369   9.117  0.00  0.00    +0.000 A 
ATOM     12  N   UNL     1      45.982   1.564   8.139  0.00  0.00    +0.000 NA
ATOM     13  C   UNL     1      46.458   2.206   7.050  0.00  0.00    +0.000 A 
ATOM     14  C   UNL     1      46.435   3.584   6.941  0.00  0.00    +0.000 A 
ATOM     15  N   UNL     1      45.940   4.382   7.914  0.00  0.00    +0.000 NA
ENDBRANCH   8  10
ENDBRANCH   1   4
BRANCH   1  16
ATOM     16  N   UNL     1      47.702   6.594  12.934  0.00  0.00    +0.000 N 
ATOM     17  H   UNL     1      48.290   6.157  12.235  0.00  0.00    +0.000 HD
BRANCH  16  21
ATOM     18  C   UNL     1      47.487   4.290  16.352  0.00  0.00    +0.000 A 
ATOM     19  C   UNL     1      48.300   5.409  16.308  0.00  0.00    +0.000 A 
ATOM     20  N   UNL     1      48.395   6.199  15.206  0.00  0.00    +0.000 NA
ATOM     21  C   UNL     1      47.647   5.849  14.134  0.00  0.00    +0.000 A 
ATOM     22  C   UNL     1      46.850   4.699  14.193  0.00  0.00    +0.000 A 
ATOM     23  N   UNL     1      46.736   3.897  15.287  0.00  0.00    +0.000 NA
BRANCH  18  25
ATOM     24  N   UNL     1      48.172   3.933  18.648  0.00  0.00    +0.000 N 
ATOM     25  C   UNL     1      47.415   3.478  17.598  0.00  0.00    +0.000 C 
ATOM     26  O   UNL     1      46.719   2.478  17.689  0.00  0.00    +0.000 OA
ATOM     27  H   UNL     1      48.130   3.445  19.528  0.00  0.00    +0.000 HD
ATOM     28  H   UNL     1      48.697   4.792  18.558  0.00  0.00    +0.000 HD
ENDBRANCH  18  25
ENDBRANCH  16  21
ENDBRANCH   1  16
TORSDOF 5
ENDMDL
MODEL 5
REMARK VINA RESULT:    -6.697      2.855      7.492
REMARK INTER + INTRA:          -9.320
REMARK INTER:                  -9.416
REMARK INTRA:                   0.096
REMARK UNBOUND:                -0.665
REMARK  Name = 
REMARK  5 active torsions:
REMARK  status: ('A' for Active; 'I' for Inactive)
REMARK    1  A    between atoms: C_2  and  C_4
REMARK    2  A    between atoms: C_7  and  N_8
REMARK    3  A    between atoms: N_8  and  C_9
REMARK    4  A    between atoms: C_9  and  C_10
REMARK    5  A    between atoms: C_14  and  C_15
REMARK                            x       y       z     vdW  Elec       q    Type
REMARK                         _______ _______ _______ _____ _____    ______ ____
ROOT
ATOM      1  C   UNL     1      48.653   7.743  12.740  0.00  0.00    +0.000 C 
ATOM      2  C   UNL     1      49.727   7.195  11.822  0.00  0.00    +0.000 C 
ATOM      3  C   UNL     1      49.433   8.658  11.813  0.00  0.00    +0.000 C 
ENDROOT
BRANCH   1   4
ATOM      4  C   UNL     1      47.177   7.492  12.455  0.00  0.00    +0.000 A 
ATOM      5  C   UNL     1      46.222   8.499  12.654  0.00  0.00    +0.000 A 
ATOM      6  C   UNL     1      44.939   8.393  12.124  0.00  0.00    +0.000 A 
ATOM      7  C   UNL     1      44.588   7.271  11.373  0.00  0.00    +0.000 A 
ATOM      8  C   UNL     1      45.489   6.209  11.181  0.00  0.00    +0.000 A 
ATOM      9  C   UNL     1      46.766   6.328  11.768  0.00  0.00    +0.000 A 
BRANCH   8  10
ATOM     10  C   UNL     1      45.141   5.084  10.295  0.00  0.00    +0.000 A 
ATOM     11  C   UNL     1      44.356   4.000  10.686  0.00  0.00    +0.000 A 
ATOM     12  N   UNL     1      44.095   2.933   9.884  0.00  0.00    +0.000 NA
ATOM     13  C   UNL     1      44.655   2.987   8.657  0.00  0.00    +0.000 A 
ATOM     14  C   UNL     1      45.428   4.058   8.247  0.00  0.00    +0.000 A 
ATOM     15  N   UNL     1      45.680   5.120   9.045  0.00  0.00    +0.000 NA
ENDBRANCH   8  10
ENDBRANCH   1   4
BRANCH   1  16
ATOM     16  N   UNL     1      48.905   7.798  14.198  0.00  0.00    +0.000 N 
ATOM     17  H   UNL     1      49.764   8.238  14.506  0.00  0.00    +0.000 HD
BRANCH  16  21
ATOM     18  C   UNL     1      47.836   4.703  16.709  0.00  0.00    +0.000 A 
ATOM     19  C   UNL     1      47.579   4.627  15.352  0.00  0.00    +0.000 A 
ATOM     20  N   UNL     1      47.920   5.620  14.489  0.00  0.00    +0.000 NA
ATOM     21  C   UNL     1      48.538   6.704  15.013  0.00  0.00    +0.000 A 
ATOM     22  C   UNL     1      48.766   6.768  16.393  0.00  0.00    +0.000 A 
ATOM     23  N   UNL     1      48.438   5.784  17.275  0.00  0.00    +0.000 NA
BRANCH  18  25
ATOM     24  N   UNL     1      48.280   3.349  18.669  0.00  0.00    +0.000 N 
ATOM     25  C   UNL     1      47.452   3.570  17.598  0.00  0.00    +0.000 C 
ATOM     26  O   UNL     1      46.460   2.887  17.397  0.00  0.00    +0.000 OA
ATOM     27  H   UNL     1      48.047   2.621  19.325  0.00  0.00    +0.000 HD
ATOM     28  H   UNL     1      49.066   3.964  18.836  0.00  0.00    +0.000 HD
ENDBRANCH  18  25
ENDBRANCH  16  21
ENDBRANCH   1  16
TORSDOF 5
ENDMDL
MODEL 6
REMARK VINA RESULT:    -6.635      2.903      7.715
REMARK INTER + INTRA:          -9.239
REMARK INTER:                  -8.708
REMARK INTRA:                  -0.530
REMARK UNBOUND:                -0.665
REMARK  Name = 
REMARK  5 active torsions:
REMARK  status: ('A' for Active; 'I' for Inactive)
REMARK    1  A    between atoms: C_2  and  C_4
REMARK    2  A    between atoms: C_7  and  N_8
REMARK    3  A    between atoms: N_8  and  C_9
REMARK    4  A    between atoms: C_9  and  C_10
REMARK    5  A    between atoms: C_14  and  C_15
REMARK                            x       y       z     vdW  Elec       q    Type
REMARK                         _______ _______ _______ _____ _____    ______ ____
ROOT
ATOM      1  C   UNL     1      46.245   5.156  13.558  0.00  0.00    +0.000 C 
ATOM      2  C   UNL     1      47.526   5.794  13.059  0.00  0.00    +0.000 C 
ATOM      3  C   UNL     1      46.313   6.641  13.254  0.00  0.00    +0.000 C 
ENDROOT
BRANCH   1   4
ATOM      4  C   UNL     1      45.413   4.257  12.650  0.00  0.00    +0.000 A 
ATOM      5  C   UNL     1      44.047   4.053  12.892  0.00  0.00    +0.000 A 
ATOM      6  C   UNL     1      43.218   3.493  11.925  0.00  0.00    +0.000 A 
ATOM      7  C   UNL     1      43.745   3.129  10.685  0.00  0.00    +0.000 A 
ATOM      8  C   UNL     1      45.114   3.267  10.404  0.00  0.00    +0.000 A 
ATOM      9  C   UNL     1      45.935   3.796  11.421  0.00  0.00    +0.000 A 
BRANCH   8  10
ATOM     10  C   UNL     1      45.634   2.981   9.054  0.00  0.00    +0.000 A 
ATOM     11  C   UNL     1      45.746   3.936   8.045  0.00  0.00    +0.000 A 
ATOM     12  N   UNL     1      46.162   3.651   6.783  0.00  0.00    +0.000 NA
ATOM     13  C   UNL     1      46.469   2.355   6.559  0.00  0.00    +0.000 A 
ATOM     14  C   UNL     1      46.374   1.394   7.549  0.00  0.00    +0.000 A 
ATOM     15  N   UNL     1      45.965   1.684   8.805  0.00  0.00    +0.000 NA
ENDBRANCH   8  10
ENDBRANCH   1   4
BRANCH   1  16
ATOM     16  N   UNL     1      46.161   4.705  14.965  0.00  0.00    +0.000 N 
ATOM     17  H   UNL     1      45.589   5.252  15.597  0.00  0.00    +0.000 HD
BRANCH  16  21
ATOM     18  C   UNL     1      49.507   3.286  16.923  0.00  0.00    +0.000 A 
ATOM     19  C   UNL     1      48.732   2.439  16.150  0.00  0.00    +0.000 A 
ATOM     20  N   UNL     1      47.627   2.866  15.483  0.00  0.00    +0.000 NA
ATOM     21  C   UNL     1      47.308   4.175  15.599  0.00  0.00    +0.000 A 
ATOM     22  C   UNL     1      48.093   5.009  16.406  0.00  0.00    +0.000 A 
ATOM     23  N   UNL     1      49.206   4.604  17.079  0.00  0.00    +0.000 NA
BRANCH  18  25
ATOM     24  N   UNL     1      50.928   1.407  17.490  0.00  0.00    +0.000 N 
ATOM     25  C   UNL     1      50.717   2.757  17.612  0.00  0.00    +0.000 C 
ATOM     26  O   UNL     1      51.481   3.476  18.237  0.00  0.00    +0.000 OA
ATOM     27  H   UNL     1      51.752   1.001  17.902  0.00  0.00    +0.000 HD
ATOM     28  H   UNL     1      50.304   0.847  16.923  0.00  0.00    +0.000 HD
ENDBRANCH  18  25
ENDBRANCH  16  21
ENDBRANCH   1  16
TORSDOF 5
ENDMDL
MODEL 7
REMARK VINA RESULT:    -6.485      4.092      6.401
REMARK INTER + INTRA:          -9.045
REMARK INTER:                  -8.265
REMARK INTRA:                  -0.781
REMARK UNBOUND:                -0.665
REMARK  Name = 
REMARK  5 active torsions:
REMARK  status: ('A' for Active; 'I' for Inactive)
REMARK    1  A    between atoms: C_2  and  C_4
REMARK    2  A    between atoms: C_7  and  N_8
REMARK    3  A    between atoms: N_8  and  C_9
REMARK    4  A    between atoms: C_9  and  C_10
REMARK    5  A    between atoms: C_14  and  C_15
REMARK                            x       y       z     vdW  Elec       q    Type
REMARK                         _______ _______ _______ _____ _____    ______ ____
ROOT
ATOM      1  C   UNL     1      48.936   7.506  15.433  0.00  0.00    +0.000 C 
ATOM      2  C   UNL     1      48.222   8.842  15.473  0.00  0.00    +0.000 C 
ATOM      3  C   UNL     1      49.705   8.808  15.310  0.00  0.00    +0.000 C 
ENDROOT
BRANCH   1   4
ATOM      4  C   UNL     1      49.102   6.670  16.697  0.00  0.00    +0.000 A 
ATOM      5  C   UNL     1      48.176   6.756  17.746  0.00  0.00    +0.000 A 
ATOM      6  C   UNL     1      48.140   5.802  18.758  0.00  0.00    +0.000 A 
ATOM      7  C   UNL     1      49.033   4.730  18.734  0.00  0.00    +0.000 A 
ATOM      8  C   UNL     1      50.013   4.618  17.733  0.00  0.00    +0.000 A 
ATOM      9  C   UNL     1      50.051   5.625  16.748  0.00  0.00    +0.000 A 
BRANCH   8  10
ATOM     10  C   UNL     1      50.875   3.424  17.661  0.00  0.00    +0.000 A 
ATOM     11  C   UNL     1      50.438   2.174  17.225  0.00  0.00    +0.000 A 
ATOM     12  N   UNL     1      51.220   1.062  17.225  0.00  0.00    +0.000 NA
ATOM     13  C   UNL     1      52.477   1.245  17.683  0.00  0.00    +0.000 A 
ATOM     14  C   UNL     1      52.933   2.479  18.110  0.00  0.00    +0.000 A 
ATOM     15  N   UNL     1      52.153   3.583  18.102  0.00  0.00    +0.000 NA
ENDBRANCH   8  10
ENDBRANCH   1   4
BRANCH   1  16
ATOM     16  N   UNL     1      48.781   6.637  14.244  0.00  0.00    +0.000 N 
ATOM     17  H   UNL     1      49.326   6.870  13.423  0.00  0.00    +0.000 HD
BRANCH  16  21
ATOM     18  C   UNL     1      45.074   5.023  13.413  0.00  0.00    +0.000 A 
ATOM     19  C   UNL     1      45.409   6.286  12.959  0.00  0.00    +0.000 A 
ATOM     20  N   UNL     1      46.620   6.853  13.204  0.00  0.00    +0.000 NA
ATOM     21  C   UNL     1      47.507   6.120  13.916  0.00  0.00    +0.000 A 
ATOM     22  C   UNL     1      47.138   4.854  14.386  0.00  0.00    +0.000 A 
ATOM     23  N   UNL     1      45.933   4.265  14.149  0.00  0.00    +0.000 NA
BRANCH  18  25
ATOM     24  N   UNL     1      42.709   5.359  13.013  0.00  0.00    +0.000 N 
ATOM     25  C   UNL     1      43.736   4.453  13.093  0.00  0.00    +0.000 C 
ATOM     26  O   UNL     1      43.561   3.260  12.901  0.00  0.00    +0.000 OA
ATOM     27  H   UNL     1      41.789   5.035  12.760  0.00  0.00    +0.000 HD
ATOM     28  H   UNL     1      42.896   6.347  13.126  0.00  0.00    +0.000 HD
ENDBRANCH  18  25
ENDBRANCH  16  21
ENDBRANCH   1  16
TORSDOF 5
ENDMDL
