MODEL 1
REMARK VINA RESULT:    -9.174      0.000      0.000
REMARK INTER + INTRA:         -11.607
REMARK INTER:                 -11.052
REMARK INTRA:                  -0.555
REMARK UNBOUND:                -0.555
REMARK  Name = 
REMARK  4 active torsions:
REMARK  status: ('A' for Active; 'I' for Inactive)
REMARK    1  A    between atoms: C_2  and  C_4
REMARK    2  A    between atoms: N_8  and  C_9
REMARK    3  A    between atoms: C_9  and  C_10
REMARK    4  A    between atoms: C_18  and  O_19
REMARK                            x       y       z     vdW  Elec       q    Type
REMARK                         _______ _______ _______ _____ _____    ______ ____
ROOT
ATOM      1  C   UNL     1      43.529   4.822  11.034  0.00  0.00    +0.000 C 
ENDROOT
BRANCH   1   2
ATOM      2  C   UNL     1      44.497   5.710  11.777  0.00  0.00    +0.000 A 
ATOM      3  C   UNL     1      44.378   7.097  11.745  0.00  0.00    +0.000 A 
ATOM      4  C   UNL     1      45.280   7.845  12.479  0.00  0.00    +0.000 A 
ATOM      5  N   UNL     1      46.277   7.316  13.228  0.00  0.00    +0.000 NA
ATOM      6  C   UNL     1      46.409   5.974  13.268  0.00  0.00    +0.000 A 
ATOM      7  N   UNL     1      47.430   5.418  14.023  0.00  0.00    +0.000 N 
ATOM      8  C   UNL     1      48.603   6.233  14.340  0.00  0.00    +0.000 C 
ATOM      9  C   UNL     1      48.687   6.549  15.829  0.00  0.00    +0.000 C 
ATOM     10  C   UNL     1      48.517   5.302  16.692  0.00  0.00    +0.000 C 
ATOM     11  C   UNL     1      47.248   4.543  16.319  0.00  0.00    +0.000 C 
ATOM     12  C   UNL     1      47.187   4.223  14.827  0.00  0.00    +0.000 C 
ATOM     13  C   UNL     1      45.542   5.160  12.532  0.00  0.00    +0.000 A 
BRANCH  10  14
ATOM     14  O   UNL     1      49.658   4.450  16.600  0.00  0.00    +0.000 OA
ATOM     15  H   UNL     1      50.338   4.762  17.220  0.00  0.00    +0.000 HD
ENDBRANCH  10  14
ENDBRANCH   1   2
BRANCH   1  20
ATOM     16  C   UNL     1      46.385   2.259   7.699  0.00  0.00    +0.000 A 
ATOM     17  C   UNL     1      45.634   1.776   8.765  0.00  0.00    +0.000 A 
ATOM     18  C   UNL     1      44.769   2.642   9.439  0.00  0.00    +0.000 A 
ATOM     19  C   UNL     1      44.681   3.978   9.051  0.00  0.00    +0.000 A 
ATOM     20  N   UNL     1      43.779   4.872   9.608  0.00  0.00    +0.000 N 
ATOM     21  N   UNL     1      45.427   4.461   8.039  0.00  0.00    +0.000 NA
ATOM     22  C   UNL     1      46.262   3.605   7.388  0.00  0.00    +0.000 A 
ATOM     23  H   UNL     1      44.006   5.796   9.243  0.00  0.00    +0.000 HD
BRANCH  16  25
ATOM     24  N   UNL     1      48.377   2.029   6.322  0.00  0.00    +0.000 N 
ATOM     25  C   UNL     1      47.299   1.414   6.901  0.00  0.00    +0.000 C 
ATOM     26  O   UNL     1      47.122   0.212   6.789  0.00  0.00    +0.000 OA
ATOM     27  H   UNL     1      49.047   1.416   5.876  0.00  0.00    +0.000 HD
ATOM     28  H   UNL     1      48.697   2.945   6.601  0.00  0.00    +0.000 HD
ENDBRANCH  16  25
ENDBRANCH   1  20
TORSDOF 4
ENDMDL
MODEL 2
REMARK VINA RESULT:    -9.111      1.840      2.777
REMARK INTER + INTRA:         -11.530
REMARK INTER:                 -11.030
REMARK INTRA:                  -0.500
REMARK UNBOUND:                -0.555
REMARK  Name = 
REMARK  4 active torsions:
REMARK  status: ('A' for Active; 'I' for Inactive)
REMARK    1  A    between atoms: C_2  and  C_4
REMARK    2  A    between atoms: N_8  and  C_9
REMARK    3  A    between atoms: C_9  and  C_10
REMARK    4  A    between atoms: C_18  and  O_19
REMARK                            x       y       z     vdW  Elec       q    Type
REMARK                         _______ _______ _______ _____ _____    ______ ____
ROOT
ATOM      1  C   UNL     1      43.690   4.681  11.293  0.00  0.00    +0.000 C 
ENDROOT
BRANCH   1   2
ATOM      2  C   UNL     1      44.933   4.754  12.146  0.00  0.00    +0.000 A 
ATOM      3  C   UNL     1      45.442   3.625  12.782  0.00  0.00    +0.000 A 
ATOM      4  C   UNL     1      46.605   3.761  13.518  0.00  0.00    +0.000 A 
ATOM      5  N   UNL     1      47.281   4.925  13.665  0.00  0.00    +0.000 NA
ATOM      6  C   UNL     1      46.800   6.030  13.059  0.00  0.00    +0.000 A 
ATOM      7  N   UNL     1      47.476   7.231  13.207  0.00  0.00    +0.000 N 
ATOM      8  C   UNL     1      48.360   7.410  14.359  0.00  0.00    +0.000 C 
ATOM      9  C   UNL     1      49.824   7.498  13.942  0.00  0.00    +0.000 C 
ATOM     10  C   UNL     1      50.039   8.493  12.804  0.00  0.00    +0.000 C 
ATOM     11  C   UNL     1      49.105   8.202  11.634  0.00  0.00    +0.000 C 
ATOM     12  C   UNL     1      47.643   8.130  12.068  0.00  0.00    +0.000 C 
ATOM     13  C   UNL     1      45.617   5.966  12.315  0.00  0.00    +0.000 A 
BRANCH  10  14
ATOM     14  O   UNL     1      49.874   9.837  13.255  0.00  0.00    +0.000 OA
ATOM     15  H   UNL     1      49.124   9.876  13.872  0.00  0.00    +0.000 HD
ENDBRANCH  10  14
ENDBRANCH   1   2
BRANCH   1  20
ATOM     16  C   UNL     1      46.521   2.504   7.675  0.00  0.00    +0.000 A 
ATOM     17  C   UNL     1      45.695   1.906   8.620  0.00  0.00    +0.000 A 
ATOM     18  C   UNL     1      44.858   2.710   9.400  0.00  0.00    +0.000 A 
ATOM     19  C   UNL     1      44.872   4.094   9.236  0.00  0.00    +0.000 A 
ATOM     20  N   UNL     1      44.005   4.945   9.904  0.00  0.00    +0.000 N 
ATOM     21  N   UNL     1      45.691   4.682   8.344  0.00  0.00    +0.000 NA
ATOM     22  C   UNL     1      46.498   3.888   7.588  0.00  0.00    +0.000 A 
ATOM     23  H   UNL     1      44.306   5.898   9.706  0.00  0.00    +0.000 HD
BRANCH  16  25
ATOM     24  N   UNL     1      48.471   2.411   6.222  0.00  0.00    +0.000 N 
ATOM     25  C   UNL     1      47.414   1.739   6.778  0.00  0.00    +0.000 C 
ATOM     26  O   UNL     1      47.240   0.550   6.566  0.00  0.00    +0.000 OA
ATOM     27  H   UNL     1      49.130   1.843   5.704  0.00  0.00    +0.000 HD
ATOM     28  H   UNL     1      48.795   3.300   6.571  0.00  0.00    +0.000 HD
ENDBRANCH  16  25
ENDBRANCH   1  20
TORSDOF 4
ENDMDL
MODEL 3
REMARK VINA RESULT:    -7.844      1.532      1.765
REMARK INTER + INTRA:         -10.005
REMARK INTER:                  -9.521
REMARK INTRA:                  -0.484
REMARK UNBOUND:                -0.555
REMARK  Name = 
REMARK  4 active torsions:
REMARK  status: ('A' for Active; 'I' for Inactive)
REMARK    1  A    between atoms: C_2  and  C_4
REMARK    2  A    between atoms: N_8  and  C_9
REMARK    3  A    between atoms: C_9  and  C_10
REMARK    4  A    between atoms: C_18  and  O_19
REMARK                            x       y       z     vdW  Elec       q    Type
REMARK                         _______ _______ _______ _____ _____    ______ ____
ROOT
ATOM      1  C   UNL     1      43.725   5.266  10.884  0.00  0.00    +0.000 C 
ENDROOT
BRANCH   1   2
ATOM      2  C   UNL     1      44.551   6.447  11.330  0.00  0.00    +0.000 A 
ATOM      3  C   UNL     1      44.054   7.746  11.261  0.00  0.00    +0.000 A 
ATOM      4  C   UNL     1      44.854   8.775  11.721  0.00  0.00    +0.000 A 
ATOM      5  N   UNL     1      46.097   8.603  12.233  0.00  0.00    +0.000 NA
ATOM      6  C   UNL     1      46.596   7.352  12.304  0.00  0.00    +0.000 A 
ATOM      7  N   UNL     1      47.869   7.160  12.817  0.00  0.00    +0.000 N 
ATOM      8  C   UNL     1      48.815   8.276  12.804  0.00  0.00    +0.000 C 
ATOM      9  C   UNL     1      49.133   8.766  14.213  0.00  0.00    +0.000 C 
ATOM     10  C   UNL     1      49.503   7.620  15.150  0.00  0.00    +0.000 C 
ATOM     11  C   UNL     1      48.440   6.526  15.129  0.00  0.00    +0.000 C 
ATOM     12  C   UNL     1      48.144   6.039  13.712  0.00  0.00    +0.000 C 
ATOM     13  C   UNL     1      45.845   6.268  11.838  0.00  0.00    +0.000 A 
BRANCH  10  14
ATOM     14  O   UNL     1      50.784   7.081  14.827  0.00  0.00    +0.000 OA
ATOM     15  H   UNL     1      51.181   7.610  14.115  0.00  0.00    +0.000 HD
ENDBRANCH  10  14
ENDBRANCH   1   2
BRANCH   1  20
ATOM     16  C   UNL     1      46.245   1.962   7.955  0.00  0.00    +0.000 A 
ATOM     17  C   UNL     1      45.540   1.732   9.131  0.00  0.00    +0.000 A 
ATOM     18  C   UNL     1      44.760   2.758   9.671  0.00  0.00    +0.000 A 
ATOM     19  C   UNL     1      44.710   4.000   9.041  0.00  0.00    +0.000 A 
ATOM     20  N   UNL     1      43.887   5.033   9.464  0.00  0.00    +0.000 N 
ATOM     21  N   UNL     1      45.414   4.241   7.918  0.00  0.00    +0.000 NA
ATOM     22  C   UNL     1      46.166   3.231   7.400  0.00  0.00    +0.000 A 
ATOM     23  H   UNL     1      44.134   5.857   8.919  0.00  0.00    +0.000 HD
BRANCH  16  25
ATOM     24  N   UNL     1      46.788  -0.378   7.573  0.00  0.00    +0.000 N 
ATOM     25  C   UNL     1      47.068   0.932   7.286  0.00  0.00    +0.000 C 
ATOM     26  O   UNL     1      47.938   1.231   6.485  0.00  0.00    +0.000 OA
ATOM     27  H   UNL     1      47.286  -1.066   7.022  0.00  0.00    +0.000 HD
ATOM     28  H   UNL     1      45.927  -0.668   8.013  0.00  0.00    +0.000 HD
ENDBRANCH  16  25
ENDBRANCH   1  20
TORSDOF 4
ENDMDL
MODEL 4
REMARK VINA RESULT:    -7.039      1.674      2.121
REMARK INTER + INTRA:          -9.035
REMARK INTER:                  -8.657
REMARK INTRA:                  -0.378
REMARK UNBOUND:                -0.555
REMARK  Name = 
REMARK  4 active torsions:
REMARK  status: ('A' for Active; 'I' for Inactive)
REMARK    1  A    between atoms: C_2  and  C_4
REMARK    2  A    between atoms: N_8  and  C_9
REMARK    3  A    between atoms: C_9  and  C_10
REMARK    4  A    between atoms: C_18  and  O_19
REMARK                            x       y       z     vdW  Elec       q    Type
REMARK                         _______ _______ _______ _____ _____    ______ ____
ROOT
ATOM      1  C   UNL     1      44.713   4.503  12.486  0.00  0.00    +0.000 C 
ENDROOT
BRANCH   1   2
ATOM      2  C   UNL     1      45.957   5.032  13.158  0.00  0.00    +0.000 A 
ATOM      3  C   UNL     1      46.689   6.078  12.603  0.00  0.00    +0.000 A 
ATOM      4  C   UNL     1      47.798   6.533  13.293  0.00  0.00    +0.000 A 
ATOM      5  N   UNL     1      48.221   6.025  14.475  0.00  0.00    +0.000 NA
ATOM      6  C   UNL     1      47.525   5.009  15.025  0.00  0.00    +0.000 A 
ATOM      7  N   UNL     1      47.950   4.473  16.231  0.00  0.00    +0.000 N 
ATOM      8  C   UNL     1      49.349   4.641  16.627  0.00  0.00    +0.000 C 
ATOM      9  C   UNL     1      49.487   5.552  17.842  0.00  0.00    +0.000 C 
ATOM     10  C   UNL     1      48.540   5.153  18.971  0.00  0.00    +0.000 C 
ATOM     11  C   UNL     1      47.103   5.044  18.472  0.00  0.00    +0.000 C 
ATOM     12  C   UNL     1      46.981   4.118  17.264  0.00  0.00    +0.000 C 
ATOM     13  C   UNL     1      46.405   4.488  14.369  0.00  0.00    +0.000 A 
BRANCH  10  14
ATOM     14  O   UNL     1      48.953   3.932  19.584  0.00  0.00    +0.000 OA
ATOM     15  H   UNL     1      49.820   3.674  19.229  0.00  0.00    +0.000 HD
ENDBRANCH  10  14
ENDBRANCH   1   2
BRANCH   1  20
ATOM     16  C   UNL     1      46.088   2.929   7.852  0.00  0.00    +0.000 A 
ATOM     17  C   UNL     1      45.543   2.197   8.901  0.00  0.00    +0.000 A 
ATOM     18  C   UNL     1      45.061   2.873  10.025  0.00  0.00    +0.000 A 
ATOM     19  C   UNL     1      45.148   4.262  10.093  0.00  0.00    +0.000 A 
ATOM     20  N   UNL     1      44.608   5.006  11.131  0.00  0.00    +0.000 N 
ATOM     21  N   UNL     1      45.703   4.976   9.095  0.00  0.00    +0.000 NA
ATOM     22  C   UNL     1      46.164   4.306   8.003  0.00  0.00    +0.000 A 
ATOM     23  H   UNL     1      44.918   5.969  11.005  0.00  0.00    +0.000 HD
BRANCH  16  25
ATOM     24  N   UNL     1      47.078   1.033   6.691  0.00  0.00    +0.000 N 
ATOM     25  C   UNL     1      46.590   2.311   6.606  0.00  0.00    +0.000 C 
ATOM     26  O   UNL     1      46.542   2.899   5.538  0.00  0.00    +0.000 OA
ATOM     27  H   UNL     1      47.311   0.592   5.810  0.00  0.00    +0.000 HD
ATOM     28  H   UNL     1      46.896   0.432   7.480  0.00  0.00    +0.000 HD
ENDBRANCH  16  25
ENDBRANCH   1  20
TORSDOF 4
ENDMDL
MODEL 5
REMARK VINA RESULT:    -6.945      3.405      8.501
REMARK INTER + INTRA:          -8.921
REMARK INTER:                  -8.322
REMARK INTRA:                  -0.599
REMARK UNBOUND:                -0.555
REMARK  Name = 
REMARK  4 active torsions:
REMARK  status: ('A' for Active; 'I' for Inactive)
REMARK    1  A    between atoms: C_2  and  C_4
REMARK    2  A    between atoms: N_8  and  C_9
REMARK    3  A    between atoms: C_9  and  C_10
REMARK    4  A    between atoms: C_18  and  O_19
REMARK                            x       y       z     vdW  Elec       q    Type
REMARK                         _______ _______ _______ _____ _____    ______ ____
ROOT
ATOM      1  C   UNL     1      49.223   7.033  14.066  0.00  0.00    +0.000 C 
ENDROOT
BRANCH   1   2
ATOM      2  C   UNL     1      47.777   7.101  13.638  0.00  0.00    +0.000 A 
ATOM      3  C   UNL     1      47.168   8.316  13.336  0.00  0.00    +0.000 A 
ATOM      4  C   UNL     1      45.851   8.298  12.917  0.00  0.00    +0.000 A 
ATOM      5  N   UNL     1      45.110   7.172  12.784  0.00  0.00    +0.000 NA
ATOM      6  C   UNL     1      45.682   5.986  13.076  0.00  0.00    +0.000 A 
ATOM      7  N   UNL     1      44.934   4.825  12.952  0.00  0.00    +0.000 N 
ATOM      8  C   UNL     1      43.475   4.914  13.003  0.00  0.00    +0.000 C 
ATOM      9  C   UNL     1      42.840   4.575  11.659  0.00  0.00    +0.000 C 
ATOM     10  C   UNL     1      43.387   3.274  11.076  0.00  0.00    +0.000 C 
ATOM     11  C   UNL     1      44.911   3.292  11.024  0.00  0.00    +0.000 C 
ATOM     12  C   UNL     1      45.530   3.620  12.381  0.00  0.00    +0.000 C 
ATOM     13  C   UNL     1      47.006   5.936  13.524  0.00  0.00    +0.000 A 
BRANCH  10  14
ATOM     14  O   UNL     1      42.923   2.143  11.812  0.00  0.00    +0.000 OA
ATOM     15  H   UNL     1      43.574   1.425  11.736  0.00  0.00    +0.000 HD
ENDBRANCH  10  14
ENDBRANCH   1   2
BRANCH   1  20
ATOM     16  C   UNL     1      48.456   5.817  18.943  0.00  0.00    +0.000 A 
ATOM     17  C   UNL     1      48.965   5.034  17.913  0.00  0.00    +0.000 A 
ATOM     18  C   UNL     1      49.270   5.632  16.687  0.00  0.00    +0.000 A 
ATOM     19  C   UNL     1      49.044   6.995  16.503  0.00  0.00    +0.000 A 
ATOM     20  N   UNL     1      49.409   7.676  15.351  0.00  0.00    +0.000 N 
ATOM     21  N   UNL     1      48.522   7.755  17.485  0.00  0.00    +0.000 NA
ATOM     22  C   UNL     1      48.234   7.161  18.676  0.00  0.00    +0.000 A 
ATOM     23  H   UNL     1      49.022   8.616  15.421  0.00  0.00    +0.000 HD
BRANCH  16  25
ATOM     24  N   UNL     1      48.606   4.036  20.593  0.00  0.00    +0.000 N 
ATOM     25  C   UNL     1      48.137   5.286  20.285  0.00  0.00    +0.000 C 
ATOM     26  O   UNL     1      47.512   5.944  21.100  0.00  0.00    +0.000 OA
ATOM     27  H   UNL     1      48.473   3.740  21.552  0.00  0.00    +0.000 HD
ATOM     28  H   UNL     1      49.332   3.580  20.061  0.00  0.00    +0.000 HD
ENDBRANCH  16  25
ENDBRANCH   1  20
TORSDOF 4
ENDMDL
MODEL 6
REMARK VINA RESULT:    -6.869      3.336      7.996
REMARK INTER + INTRA:          -8.830
REMARK INTER:                  -8.325
REMARK INTRA:                  -0.505
REMARK UNBOUND:                -0.555
REMARK  Name = 
REMARK  4 active torsions:
REMARK  status: ('A' for Active; 'I' for Inactive)
REMARK    1  A    between atoms: C_2  and  C_4
REMARK    2  A    between atoms: N_8  and  C_9
REMARK    3  A    between atoms: C_9  and  C_10
REMARK    4  A    between atoms: C_18  and  O_19
REMARK                            x       y       z     vdW  Elec       q    Type
REMARK                         _______ _______ _______ _____ _____    ______ ____
ROOT
ATOM      1  C   UNL     1      48.977   6.831  16.208  0.00  0.00    +0.000 C 
ENDROOT
BRANCH   1   2
ATOM      2  C   UNL     1      48.583   6.823  14.751  0.00  0.00    +0.000 A 
ATOM      3  C   UNL     1      49.435   7.319  13.768  0.00  0.00    +0.000 A 
ATOM      4  C   UNL     1      49.022   7.246  12.451  0.00  0.00    +0.000 A 
ATOM      5  N   UNL     1      47.836   6.725  12.052  0.00  0.00    +0.000 NA
ATOM      6  C   UNL     1      46.996   6.244  12.992  0.00  0.00    +0.000 A 
ATOM      7  N   UNL     1      45.776   5.715  12.601  0.00  0.00    +0.000 N 
ATOM      8  C   UNL     1      45.208   6.119  11.314  0.00  0.00    +0.000 C 
ATOM      9  C   UNL     1      45.179   4.963  10.320  0.00  0.00    +0.000 C 
ATOM     10  C   UNL     1      44.573   3.700  10.924  0.00  0.00    +0.000 C 
ATOM     11  C   UNL     1      45.256   3.334  12.237  0.00  0.00    +0.000 C 
ATOM     12  C   UNL     1      45.264   4.498  13.226  0.00  0.00    +0.000 C 
ATOM     13  C   UNL     1      47.345   6.305  14.345  0.00  0.00    +0.000 A 
BRANCH  10  14
ATOM     14  O   UNL     1      43.165   3.841  11.112  0.00  0.00    +0.000 OA
ATOM     15  H   UNL     1      42.818   4.466  10.455  0.00  0.00    +0.000 HD
ENDBRANCH  10  14
ENDBRANCH   1   2
BRANCH   1  20
ATOM     16  C   UNL     1      51.363   2.528  17.486  0.00  0.00    +0.000 A 
ATOM     17  C   UNL     1      51.804   3.842  17.597  0.00  0.00    +0.000 A 
ATOM     18  C   UNL     1      50.905   4.885  17.361  0.00  0.00    +0.000 A 
ATOM     19  C   UNL     1      49.589   4.602  17.001  0.00  0.00    +0.000 A 
ATOM     20  N   UNL     1      48.618   5.580  16.844  0.00  0.00    +0.000 N 
ATOM     21  N   UNL     1      49.162   3.332  16.861  0.00  0.00    +0.000 NA
ATOM     22  C   UNL     1      50.047   2.325  17.099  0.00  0.00    +0.000 A 
ATOM     23  H   UNL     1      47.791   5.125  16.460  0.00  0.00    +0.000 HD
BRANCH  16  25
ATOM     24  N   UNL     1      51.609   0.199  18.147  0.00  0.00    +0.000 N 
ATOM     25  C   UNL     1      52.226   1.357  17.751  0.00  0.00    +0.000 C 
ATOM     26  O   UNL     1      53.435   1.406  17.592  0.00  0.00    +0.000 OA
ATOM     27  H   UNL     1      52.205  -0.616  18.214  0.00  0.00    +0.000 HD
ATOM     28  H   UNL     1      50.618   0.045  18.037  0.00  0.00    +0.000 HD
ENDBRANCH  16  25
ENDBRANCH   1  20
TORSDOF 4
ENDMDL
MODEL 7
REMARK VINA RESULT:    -6.493      3.766      5.545
REMARK INTER + INTRA:          -8.377
REMARK INTER:                  -7.980
REMARK INTRA:                  -0.396
REMARK UNBOUND:                -0.555
REMARK  Name = 
REMARK  4 active torsions:
REMARK  status: ('A' for Active; 'I' for Inactive)
REMARK    1  A    between atoms: C_2  and  C_4
REMARK    2  A    between atoms: N_8  and  C_9
REMARK    3  A    between atoms: C_9  and  C_10
REMARK    4  A    between atoms: C_18  and  O_19
REMARK                            x       y       z     vdW  Elec       q    Type
REMARK                         _______ _______ _______ _____ _____    ______ ____
ROOT
ATOM      1  C   UNL     1      48.619   7.454  13.409  0.00  0.00    +0.000 C 
ENDROOT
BRANCH   1   2
ATOM      2  C   UNL     1      49.447   7.199  14.644  0.00  0.00    +0.000 A 
ATOM      3  C   UNL     1      50.654   7.859  14.855  0.00  0.00    +0.000 A 
ATOM      4  C   UNL     1      51.341   7.601  16.028  0.00  0.00    +0.000 A 
ATOM      5  N   UNL     1      50.916   6.744  16.986  0.00  0.00    +0.000 NA
ATOM      6  C   UNL     1      49.750   6.093  16.797  0.00  0.00    +0.000 A 
ATOM      7  N   UNL     1      49.305   5.206  17.765  0.00  0.00    +0.000 N 
ATOM      8  C   UNL     1      50.277   4.618  18.687  0.00  0.00    +0.000 C 
ATOM      9  C   UNL     1      50.073   5.113  20.116  0.00  0.00    +0.000 C 
ATOM     10  C   UNL     1      48.616   5.005  20.558  0.00  0.00    +0.000 C 
ATOM     11  C   UNL     1      47.685   5.681  19.558  0.00  0.00    +0.000 C 
ATOM     12  C   UNL     1      47.894   5.165  18.137  0.00  0.00    +0.000 C 
ATOM     13  C   UNL     1      49.015   6.294  15.624  0.00  0.00    +0.000 A 
BRANCH  10  14
ATOM     14  O   UNL     1      48.236   3.644  20.758  0.00  0.00    +0.000 OA
ATOM     15  H   UNL     1      47.376   3.488  20.334  0.00  0.00    +0.000 HD
ENDBRANCH  10  14
ENDBRANCH   1   2
BRANCH   1  20
ATOM     16  C   UNL     1      44.610   4.489  12.417  0.00  0.00    +0.000 A 
ATOM     17  C   UNL     1      45.911   4.124  12.748  0.00  0.00    +0.000 A 
ATOM     18  C   UNL     1      46.809   5.109  13.168  0.00  0.00    +0.000 A 
ATOM     19  C   UNL     1      46.402   6.440  13.233  0.00  0.00    +0.000 A 
ATOM     20  N   UNL     1      47.206   7.456  13.729  0.00  0.00    +0.000 N 
ATOM     21  N   UNL     1      45.154   6.806  12.884  0.00  0.00    +0.000 NA
ATOM     22  C   UNL     1      44.287   5.836  12.482  0.00  0.00    +0.000 A 
ATOM     23  H   UNL     1      46.726   8.336  13.548  0.00  0.00    +0.000 HD
BRANCH  16  25
ATOM     24  N   UNL     1      43.692   2.236  12.468  0.00  0.00    +0.000 N 
ATOM     25  C   UNL     1      43.577   3.518  11.998  0.00  0.00    +0.000 C 
ATOM     26  O   UNL     1      42.640   3.849  11.290  0.00  0.00    +0.000 OA
ATOM     27  H   UNL     1      42.917   1.620  12.260  0.00  0.00    +0.000 HD
ATOM     28  H   UNL     1      44.286   1.993  13.247  0.00  0.00    +0.000 HD
ENDBRANCH  16  25
ENDBRANCH   1  20
TORSDOF 4
ENDMDL
MODEL 8
REMARK VINA RESULT:    -6.284      3.407      8.146
REMARK INTER + INTRA:          -8.125
REMARK INTER:                  -7.753
REMARK INTRA:                  -0.372
REMARK UNBOUND:                -0.555
REMARK  Name = 
REMARK  4 active torsions:
REMARK  status: ('A' for Active; 'I' for Inactive)
REMARK    1  A    between atoms: C_2  and  C_4
REMARK    2  A    between atoms: N_8  and  C_9
REMARK    3  A    between atoms: C_9  and  C_10
REMARK    4  A    between atoms: C_18  and  O_19
REMARK                            x       y       z     vdW  Elec       q    Type
REMARK                         _______ _______ _______ _____ _____    ______ ____
ROOT
ATOM      1  C   UNL     1      48.590   7.774  14.355  0.00  0.00    +0.000 C 
ENDROOT
BRANCH   1   2
ATOM      2  C   UNL     1      47.292   7.682  13.590  0.00  0.00    +0.000 A 
ATOM      3  C   UNL     1      46.784   8.775  12.892  0.00  0.00    +0.000 A 
ATOM      4  C   UNL     1      45.609   8.606  12.184  0.00  0.00    +0.000 A 
ATOM      5  N   UNL     1      44.914   7.444  12.127  0.00  0.00    +0.000 NA
ATOM      6  C   UNL     1      45.390   6.376  12.800  0.00  0.00    +0.000 A 
ATOM      7  N   UNL     1      44.686   5.183  12.758  0.00  0.00    +0.000 N 
ATOM      8  C   UNL     1      43.259   5.212  12.437  0.00  0.00    +0.000 C 
ATOM      9  C   UNL     1      42.968   4.564  11.087  0.00  0.00    +0.000 C 
ATOM     10  C   UNL     1      43.631   3.196  10.952  0.00  0.00    +0.000 C 
ATOM     11  C   UNL     1      45.122   3.273  11.263  0.00  0.00    +0.000 C 
ATOM     12  C   UNL     1      45.394   3.912  12.623  0.00  0.00    +0.000 C 
ATOM     13  C   UNL     1      46.564   6.485  13.552  0.00  0.00    +0.000 A 
BRANCH  10  14
ATOM     14  O   UNL     1      42.994   2.228  11.784  0.00  0.00    +0.000 OA
ATOM     15  H   UNL     1      42.718   2.653  12.613  0.00  0.00    +0.000 HD
ENDBRANCH  10  14
ENDBRANCH   1   2
BRANCH   1  20
ATOM     16  C   UNL     1      51.054   4.909  17.756  0.00  0.00    +0.000 A 
ATOM     17  C   UNL     1      51.569   5.805  16.826  0.00  0.00    +0.000 A 
ATOM     18  C   UNL     1      50.693   6.631  16.117  0.00  0.00    +0.000 A 
ATOM     19  C   UNL     1      49.320   6.537  16.333  0.00  0.00    +0.000 A 
ATOM     20  N   UNL     1      48.398   7.386  15.738  0.00  0.00    +0.000 N 
ATOM     21  N   UNL     1      48.811   5.651  17.209  0.00  0.00    +0.000 NA
ATOM     22  C   UNL     1      49.675   4.855  17.897  0.00  0.00    +0.000 A 
ATOM     23  H   UNL     1      47.471   7.028  15.959  0.00  0.00    +0.000 HD
BRANCH  16  25
ATOM     24  N   UNL     1      51.903   2.686  18.265  0.00  0.00    +0.000 N 
ATOM     25  C   UNL     1      51.899   4.020  18.581  0.00  0.00    +0.000 C 
ATOM     26  O   UNL     1      52.593   4.457  19.485  0.00  0.00    +0.000 OA
ATOM     27  H   UNL     1      52.571   2.117  18.769  0.00  0.00    +0.000 HD
ATOM     28  H   UNL     1      51.560   2.334  17.384  0.00  0.00    +0.000 HD
ENDBRANCH  16  25
ENDBRANCH   1  20
TORSDOF 4
ENDMDL
