MODEL 1
REMARK VINA RESULT:    -9.127      0.000      0.000
REMARK INTER + INTRA:         -14.087
REMARK INTER:                 -13.129
REMARK INTRA:                  -0.958
REMARK UNBOUND:                -0.958
REMARK  Name = 
REMARK  9 active torsions:
REMARK  status: ('A' for Active; 'I' for Inactive)
REMARK    1  A    between atoms: C_1  and  C_2
REMARK    2  A    between atoms: C_2  and  O_3
REMARK    3  A    between atoms: C_5  and  O_6
REMARK    4  A    between atoms: O_6  and  C_7
REMARK    5  A    between atoms: C_9  and  C_10
REMARK    6  A    between atoms: C_10  and  C_13
REMARK    7  A    between atoms: C_13  and  N_14
REMARK    8  A    between atoms: N_14  and  C_15
REMARK    9  A    between atoms: C_18  and  C_19
REMARK                            x       y       z     vdW  Elec       q    Type
REMARK                         _______ _______ _______ _____ _____    ______ ____
ROOT
ATOM      1  C   UNL     1      43.728   5.640  12.247  0.00  0.00    +0.000 C 
ATOM      2  F   UNL     1      42.907   5.492  13.331  0.00  0.00    +0.000 F 
ATOM      3  F   UNL     1      43.383   6.847  11.701  0.00  0.00    +0.000 F 
ENDROOT
BRANCH   1   6
ATOM      4  C   UNL     1      46.937   4.677  14.022  0.00  0.00    +0.000 A 
ATOM      5  C   UNL     1      45.595   4.735  13.677  0.00  0.00    +0.000 A 
ATOM      6  C   UNL     1      45.191   5.624  12.671  0.00  0.00    +0.000 A 
ATOM      7  C   UNL     1      46.182   6.432  12.092  0.00  0.00    +0.000 A 
ATOM      8  C   UNL     1      47.496   6.309  12.519  0.00  0.00    +0.000 A 
ATOM      9  N   UNL     1      47.897   5.442  13.464  0.00  0.00    +0.000 NA
BRANCH   4  10
ATOM     10  O   UNL     1      47.300   3.759  14.984  0.00  0.00    +0.000 OA
BRANCH  10  14
ATOM     11  C   UNL     1      49.399   3.865  18.945  0.00  0.00    +0.000 C 
ATOM     12  C   UNL     1      48.845   3.764  17.534  0.00  0.00    +0.000 C 
ATOM     13  C   UNL     1      48.181   5.062  17.001  0.00  0.00    +0.000 C 
ATOM     14  C   UNL     1      47.084   4.170  16.356  0.00  0.00    +0.000 C 
ATOM     15  C   UNL     1      47.447   3.099  17.415  0.00  0.00    +0.000 C 
BRANCH  12  16
ATOM     16  O   UNL     1      49.857   3.186  16.678  0.00  0.00    +0.000 OA
ATOM     17  H   UNL     1      49.840   3.714  15.862  0.00  0.00    +0.000 HD
ENDBRANCH  12  16
ENDBRANCH  10  14
ENDBRANCH   4  10
ENDBRANCH   1   6
BRANCH   1  18
ATOM     18  C   UNL     1      43.370   4.541  11.210  0.00  0.00    +0.000 C 
BRANCH  18  19
ATOM     19  N   UNL     1      43.767   4.819   9.817  0.00  0.00    +0.000 N 
ATOM     20  H   UNL     1      43.917   5.808   9.612  0.00  0.00    +0.000 HD
BRANCH  19  21
ATOM     21  C   UNL     1      44.691   3.966   9.202  0.00  0.00    +0.000 A 
ATOM     22  C   UNL     1      45.604   4.494   8.285  0.00  0.00    +0.000 A 
ATOM     23  C   UNL     1      46.486   3.659   7.594  0.00  0.00    +0.000 A 
ATOM     24  C   UNL     1      46.424   2.294   7.832  0.00  0.00    +0.000 A 
ATOM     25  N   UNL     1      45.536   1.720   8.686  0.00  0.00    +0.000 NA
ATOM     26  C   UNL     1      44.693   2.570   9.321  0.00  0.00    +0.000 A 
BRANCH  24  27
ATOM     27  C   UNL     1      47.364   1.365   7.127  0.00  0.00    +0.000 C 
ATOM     28  N   UNL     1      48.359   1.971   6.407  0.00  0.00    +0.000 N 
ATOM     29  O   UNL     1      47.255   0.148   7.180  0.00  0.00    +0.000 OA
ATOM     30  H   UNL     1      48.415   2.983   6.385  0.00  0.00    +0.000 HD
ATOM     31  H   UNL     1      49.025   1.406   5.901  0.00  0.00    +0.000 HD
ENDBRANCH  24  27
ENDBRANCH  19  21
ENDBRANCH  18  19
ENDBRANCH   1  18
TORSDOF 8
ENDMDL
MODEL 2
REMARK VINA RESULT:    -9.023      0.628      0.971
REMARK INTER + INTRA:         -13.937
REMARK INTER:                 -12.962
REMARK INTRA:                  -0.974
REMARK UNBOUND:                -0.958
REMARK  Name = 
REMARK  9 active torsions:
REMARK  status: ('A' for Active; 'I' for Inactive)
REMARK    1  A    between atoms: C_1  and  C_2
REMARK    2  A    between atoms: C_2  and  O_3
REMARK    3  A    between atoms: C_5  and  O_6
REMARK    4  A    between atoms: O_6  and  C_7
REMARK    5  A    between atoms: C_9  and  C_10
REMARK    6  A    between atoms: C_10  and  C_13
REMARK    7  A    between atoms: C_13  and  N_14
REMARK    8  A    between atoms: N_14  and  C_15
REMARK    9  A    between atoms: C_18  and  C_19
REMARK                            x       y       z     vdW  Elec       q    Type
REMARK                         _______ _______ _______ _____ _____    ______ ____
ROOT
ATOM      1  C   UNL     1      43.789   5.400  12.350  0.00  0.00    +0.000 C 
ATOM      2  F   UNL     1      43.016   5.156  13.452  0.00  0.00    +0.000 F 
ATOM      3  F   UNL     1      43.329   6.587  11.848  0.00  0.00    +0.000 F 
ENDROOT
BRANCH   1   6
ATOM      4  C   UNL     1      47.108   4.692  14.039  0.00  0.00    +0.000 A 
ATOM      5  C   UNL     1      45.756   4.649  13.733  0.00  0.00    +0.000 A 
ATOM      6  C   UNL     1      45.261   5.494  12.731  0.00  0.00    +0.000 A 
ATOM      7  C   UNL     1      46.173   6.366  12.116  0.00  0.00    +0.000 A 
ATOM      8  C   UNL     1      47.505   6.343  12.506  0.00  0.00    +0.000 A 
ATOM      9  N   UNL     1      47.994   5.518  13.448  0.00  0.00    +0.000 NA
BRANCH   4  10
ATOM     10  O   UNL     1      47.564   3.814  14.999  0.00  0.00    +0.000 OA
BRANCH  10  14
ATOM     11  C   UNL     1      49.257   4.153  19.138  0.00  0.00    +0.000 C 
ATOM     12  C   UNL     1      48.856   4.010  17.679  0.00  0.00    +0.000 C 
ATOM     13  C   UNL     1      47.979   5.167  17.129  0.00  0.00    +0.000 C 
ATOM     14  C   UNL     1      47.153   4.101  16.358  0.00  0.00    +0.000 C 
ATOM     15  C   UNL     1      47.645   3.075  17.411  0.00  0.00    +0.000 C 
BRANCH  12  16
ATOM     16  O   UNL     1      50.035   3.700  16.901  0.00  0.00    +0.000 OA
ATOM     17  H   UNL     1      50.737   4.272  17.254  0.00  0.00    +0.000 HD
ENDBRANCH  12  16
ENDBRANCH  10  14
ENDBRANCH   4  10
ENDBRANCH   1   6
BRANCH   1  18
ATOM     18  C   UNL     1      43.491   4.302  11.292  0.00  0.00    +0.000 C 
BRANCH  18  19
ATOM     19  N   UNL     1      43.675   4.700   9.884  0.00  0.00    +0.000 N 
ATOM     20  H   UNL     1      43.711   5.710   9.734  0.00  0.00    +0.000 HD
BRANCH  19  21
ATOM     21  C   UNL     1      44.579   3.978   9.097  0.00  0.00    +0.000 A 
ATOM     22  C   UNL     1      44.678   2.594   9.266  0.00  0.00    +0.000 A 
ATOM     23  C   UNL     1      45.626   1.854   8.555  0.00  0.00    +0.000 A 
ATOM     24  C   UNL     1      46.474   2.528   7.688  0.00  0.00    +0.000 A 
ATOM     25  N   UNL     1      46.448   3.875   7.508  0.00  0.00    +0.000 NA
ATOM     26  C   UNL     1      45.521   4.549   8.231  0.00  0.00    +0.000 A 
BRANCH  24  27
ATOM     27  C   UNL     1      47.492   1.771   6.892  0.00  0.00    +0.000 C 
ATOM     28  N   UNL     1      48.551   2.511   6.436  0.00  0.00    +0.000 N 
ATOM     29  O   UNL     1      47.390   0.576   6.654  0.00  0.00    +0.000 OA
ATOM     30  H   UNL     1      48.598   3.501   6.651  0.00  0.00    +0.000 HD
ATOM     31  H   UNL     1      49.271   2.067   5.886  0.00  0.00    +0.000 HD
ENDBRANCH  24  27
ENDBRANCH  19  21
ENDBRANCH  18  19
ENDBRANCH   1  18
TORSDOF 8
ENDMDL
MODEL 3
REMARK VINA RESULT:    -8.567      2.313      3.586
REMARK INTER + INTRA:         -13.282
REMARK INTER:                 -12.130
REMARK INTRA:                  -1.152
REMARK UNBOUND:                -0.958
REMARK  Name = 
REMARK  9 active torsions:
REMARK  status: ('A' for Active; 'I' for Inactive)
REMARK    1  A    between atoms: C_1  and  C_2
REMARK    2  A    between atoms: C_2  and  O_3
REMARK    3  A    between atoms: C_5  and  O_6
REMARK    4  A    between atoms: O_6  and  C_7
REMARK    5  A    between atoms: C_9  and  C_10
REMARK    6  A    between atoms: C_10  and  C_13
REMARK    7  A    between atoms: C_13  and  N_14
REMARK    8  A    between atoms: N_14  and  C_15
REMARK    9  A    between atoms: C_18  and  C_19
REMARK                            x       y       z     vdW  Elec       q    Type
REMARK                         _______ _______ _______ _____ _____    ______ ____
ROOT
ATOM      1  C   UNL     1      43.585   5.440  12.265  0.00  0.00    +0.000 C 
ATOM      2  F   UNL     1      42.693   5.261  13.286  0.00  0.00    +0.000 F 
ATOM      3  F   UNL     1      43.366   6.716  11.820  0.00  0.00    +0.000 F 
ENDROOT
BRANCH   1   6
ATOM      4  C   UNL     1      47.088   6.253  13.468  0.00  0.00    +0.000 A 
ATOM      5  C   UNL     1      45.805   6.406  12.962  0.00  0.00    +0.000 A 
ATOM      6  C   UNL     1      45.016   5.266  12.759  0.00  0.00    +0.000 A 
ATOM      7  C   UNL     1      45.595   4.022  13.056  0.00  0.00    +0.000 A 
ATOM      8  C   UNL     1      46.893   3.975  13.544  0.00  0.00    +0.000 A 
ATOM      9  N   UNL     1      47.648   5.064  13.766  0.00  0.00    +0.000 NA
BRANCH   4  10
ATOM     10  O   UNL     1      47.816   7.401  13.695  0.00  0.00    +0.000 OA
BRANCH  10  14
ATOM     11  C   UNL     1      51.129   9.081  11.183  0.00  0.00    +0.000 C 
ATOM     12  C   UNL     1      50.137   8.421  12.126  0.00  0.00    +0.000 C 
ATOM     13  C   UNL     1      48.958   7.695  11.426  0.00  0.00    +0.000 C 
ATOM     14  C   UNL     1      48.027   8.249  12.539  0.00  0.00    +0.000 C 
ATOM     15  C   UNL     1      49.076   9.371  12.745  0.00  0.00    +0.000 C 
BRANCH  12  16
ATOM     16  O   UNL     1      50.869   7.631  13.092  0.00  0.00    +0.000 OA
ATOM     17  H   UNL     1      51.114   6.814  12.626  0.00  0.00    +0.000 HD
ENDBRANCH  12  16
ENDBRANCH  10  14
ENDBRANCH   4  10
ENDBRANCH   1   6
BRANCH   1  18
ATOM     18  C   UNL     1      43.206   4.474  11.110  0.00  0.00    +0.000 C 
BRANCH  18  19
ATOM     19  N   UNL     1      43.733   4.827   9.778  0.00  0.00    +0.000 N 
ATOM     20  H   UNL     1      43.951   5.817   9.661  0.00  0.00    +0.000 HD
BRANCH  19  21
ATOM     21  C   UNL     1      44.659   3.967   9.176  0.00  0.00    +0.000 A 
ATOM     22  C   UNL     1      45.570   4.484   8.250  0.00  0.00    +0.000 A 
ATOM     23  C   UNL     1      46.455   3.641   7.573  0.00  0.00    +0.000 A 
ATOM     24  C   UNL     1      46.397   2.279   7.832  0.00  0.00    +0.000 A 
ATOM     25  N   UNL     1      45.512   1.716   8.695  0.00  0.00    +0.000 NA
ATOM     26  C   UNL     1      44.666   2.573   9.316  0.00  0.00    +0.000 A 
BRANCH  24  27
ATOM     27  C   UNL     1      47.341   1.342   7.141  0.00  0.00    +0.000 C 
ATOM     28  N   UNL     1      48.450   1.926   6.591  0.00  0.00    +0.000 N 
ATOM     29  O   UNL     1      47.139   0.139   7.064  0.00  0.00    +0.000 OA
ATOM     30  H   UNL     1      48.581   2.928   6.672  0.00  0.00    +0.000 HD
ATOM     31  H   UNL     1      49.125   1.355   6.104  0.00  0.00    +0.000 HD
ENDBRANCH  24  27
ENDBRANCH  19  21
ENDBRANCH  18  19
ENDBRANCH   1  18
TORSDOF 8
ENDMDL
MODEL 4
REMARK VINA RESULT:    -8.082      3.692      5.583
REMARK INTER + INTRA:         -12.583
REMARK INTER:                 -11.460
REMARK INTRA:                  -1.124
REMARK UNBOUND:                -0.958
REMARK  Name = 
REMARK  9 active torsions:
REMARK  status: ('A' for Active; 'I' for Inactive)
REMARK    1  A    between atoms: C_1  and  C_2
REMARK    2  A    between atoms: C_2  and  O_3
REMARK    3  A    between atoms: C_5  and  O_6
REMARK    4  A    between atoms: O_6  and  C_7
REMARK    5  A    between atoms: C_9  and  C_10
REMARK    6  A    between atoms: C_10  and  C_13
REMARK    7  A    between atoms: C_13  and  N_14
REMARK    8  A    between atoms: N_14  and  C_15
REMARK    9  A    between atoms: C_18  and  C_19
REMARK                            x       y       z     vdW  Elec       q    Type
REMARK                         _______ _______ _______ _____ _____    ______ ____
ROOT
ATOM      1  C   UNL     1      44.127   4.842  12.434  0.00  0.00    +0.000 C 
ATOM      2  F   UNL     1      44.850   3.715  12.710  0.00  0.00    +0.000 F 
ATOM      3  F   UNL     1      43.283   4.995  13.500  0.00  0.00    +0.000 F 
ENDROOT
BRANCH   1   6
ATOM      4  C   UNL     1      45.368   8.425  12.415  0.00  0.00    +0.000 A 
ATOM      5  C   UNL     1      44.520   7.331  12.496  0.00  0.00    +0.000 A 
ATOM      6  C   UNL     1      45.045   6.049  12.280  0.00  0.00    +0.000 A 
ATOM      7  C   UNL     1      46.409   5.959  11.960  0.00  0.00    +0.000 A 
ATOM      8  C   UNL     1      47.169   7.117  11.887  0.00  0.00    +0.000 A 
ATOM      9  N   UNL     1      46.680   8.348  12.118  0.00  0.00    +0.000 NA
BRANCH   4  10
ATOM     10  O   UNL     1      44.823   9.664  12.677  0.00  0.00    +0.000 OA
BRANCH  10  14
ATOM     11  C   UNL     1      42.156  11.008   9.331  0.00  0.00    +0.000 C 
ATOM     12  C   UNL     1      42.920  10.447  10.520  0.00  0.00    +0.000 C 
ATOM     13  C   UNL     1      43.561  11.515  11.444  0.00  0.00    +0.000 C 
ATOM     14  C   UNL     1      44.802  10.589  11.562  0.00  0.00    +0.000 C 
ATOM     15  C   UNL     1      44.364   9.965  10.213  0.00  0.00    +0.000 C 
BRANCH  12  16
ATOM     16  O   UNL     1      42.090   9.466  11.184  0.00  0.00    +0.000 OA
ATOM     17  H   UNL     1      41.585   9.962  11.850  0.00  0.00    +0.000 HD
ENDBRANCH  12  16
ENDBRANCH  10  14
ENDBRANCH   4  10
ENDBRANCH   1   6
BRANCH   1  18
ATOM     18  C   UNL     1      43.251   4.566  11.183  0.00  0.00    +0.000 C 
BRANCH  18  19
ATOM     19  N   UNL     1      43.871   4.882   9.882  0.00  0.00    +0.000 N 
ATOM     20  H   UNL     1      44.217   5.840   9.803  0.00  0.00    +0.000 HD
BRANCH  19  21
ATOM     21  C   UNL     1      44.706   3.927   9.290  0.00  0.00    +0.000 A 
ATOM     22  C   UNL     1      45.575   4.319   8.268  0.00  0.00    +0.000 A 
ATOM     23  C   UNL     1      46.364   3.377   7.601  0.00  0.00    +0.000 A 
ATOM     24  C   UNL     1      46.252   2.045   7.970  0.00  0.00    +0.000 A 
ATOM     25  N   UNL     1      45.401   1.600   8.931  0.00  0.00    +0.000 NA
ATOM     26  C   UNL     1      44.648   2.549   9.538  0.00  0.00    +0.000 A 
BRANCH  24  27
ATOM     27  C   UNL     1      47.093   1.005   7.294  0.00  0.00    +0.000 C 
ATOM     28  N   UNL     1      46.816  -0.291   7.641  0.00  0.00    +0.000 N 
ATOM     29  O   UNL     1      47.972   1.285   6.492  0.00  0.00    +0.000 OA
ATOM     30  H   UNL     1      46.081  -0.483   8.313  0.00  0.00    +0.000 HD
ATOM     31  H   UNL     1      47.349  -1.043   7.229  0.00  0.00    +0.000 HD
ENDBRANCH  24  27
ENDBRANCH  19  21
ENDBRANCH  18  19
ENDBRANCH   1  18
TORSDOF 8
ENDMDL
MODEL 5
REMARK VINA RESULT:    -7.801      1.945      2.450
REMARK INTER + INTRA:         -12.180
REMARK INTER:                 -11.246
REMARK INTRA:                  -0.934
REMARK UNBOUND:                -0.958
REMARK  Name = 
REMARK  9 active torsions:
REMARK  status: ('A' for Active; 'I' for Inactive)
REMARK    1  A    between atoms: C_1  and  C_2
REMARK    2  A    between atoms: C_2  and  O_3
REMARK    3  A    between atoms: C_5  and  O_6
REMARK    4  A    between atoms: O_6  and  C_7
REMARK    5  A    between atoms: C_9  and  C_10
REMARK    6  A    between atoms: C_10  and  C_13
REMARK    7  A    between atoms: C_13  and  N_14
REMARK    8  A    between atoms: N_14  and  C_15
REMARK    9  A    between atoms: C_18  and  C_19
REMARK                            x       y       z     vdW  Elec       q    Type
REMARK                         _______ _______ _______ _____ _____    ______ ____
ROOT
ATOM      1  C   UNL     1      44.646   5.140  12.369  0.00  0.00    +0.000 C 
ATOM      2  F   UNL     1      45.229   3.919  12.564  0.00  0.00    +0.000 F 
ATOM      3  F   UNL     1      43.650   5.214  13.304  0.00  0.00    +0.000 F 
ENDROOT
BRANCH   1   6
ATOM      4  C   UNL     1      47.862   6.960  13.222  0.00  0.00    +0.000 A 
ATOM      5  C   UNL     1      46.914   5.954  13.106  0.00  0.00    +0.000 A 
ATOM      6  C   UNL     1      45.663   6.260  12.555  0.00  0.00    +0.000 A 
ATOM      7  C   UNL     1      45.435   7.593  12.179  0.00  0.00    +0.000 A 
ATOM      8  C   UNL     1      46.444   8.530  12.351  0.00  0.00    +0.000 A 
ATOM      9  N   UNL     1      47.656   8.240  12.855  0.00  0.00    +0.000 NA
BRANCH   4  10
ATOM     10  O   UNL     1      49.095   6.609  13.728  0.00  0.00    +0.000 OA
BRANCH  10  14
ATOM     11  C   UNL     1      49.880   6.529  18.142  0.00  0.00    +0.000 C 
ATOM     12  C   UNL     1      49.565   6.379  16.663  0.00  0.00    +0.000 C 
ATOM     13  C   UNL     1      50.697   6.842  15.707  0.00  0.00    +0.000 C 
ATOM     14  C   UNL     1      49.600   7.452  14.792  0.00  0.00    +0.000 C 
ATOM     15  C   UNL     1      48.698   7.512  16.051  0.00  0.00    +0.000 C 
BRANCH  12  16
ATOM     16  O   UNL     1      49.060   5.045  16.427  0.00  0.00    +0.000 OA
ATOM     17  H   UNL     1      49.616   4.677  15.721  0.00  0.00    +0.000 HD
ENDBRANCH  12  16
ENDBRANCH  10  14
ENDBRANCH   4  10
ENDBRANCH   1   6
BRANCH   1  18
ATOM     18  C   UNL     1      43.972   5.141  10.970  0.00  0.00    +0.000 C 
BRANCH  18  19
ATOM     19  N   UNL     1      43.817   3.821  10.330  0.00  0.00    +0.000 N 
ATOM     20  H   UNL     1      42.850   3.560  10.135  0.00  0.00    +0.000 HD
BRANCH  19  21
ATOM     21  C   UNL     1      44.717   3.456   9.322  0.00  0.00    +0.000 A 
ATOM     22  C   UNL     1      45.109   2.120   9.206  0.00  0.00    +0.000 A 
ATOM     23  C   UNL     1      46.066   1.735   8.263  0.00  0.00    +0.000 A 
ATOM     24  C   UNL     1      46.626   2.715   7.456  0.00  0.00    +0.000 A 
ATOM     25  N   UNL     1      46.310   4.033   7.545  0.00  0.00    +0.000 NA
ATOM     26  C   UNL     1      45.388   4.357   8.484  0.00  0.00    +0.000 A 
BRANCH  24  27
ATOM     27  C   UNL     1      47.641   2.344   6.418  0.00  0.00    +0.000 C 
ATOM     28  N   UNL     1      47.666   3.145   5.308  0.00  0.00    +0.000 N 
ATOM     29  O   UNL     1      48.395   1.389   6.543  0.00  0.00    +0.000 OA
ATOM     30  H   UNL     1      47.023   3.925   5.240  0.00  0.00    +0.000 HD
ATOM     31  H   UNL     1      48.321   2.949   4.565  0.00  0.00    +0.000 HD
ENDBRANCH  24  27
ENDBRANCH  19  21
ENDBRANCH  18  19
ENDBRANCH   1  18
TORSDOF 8
ENDMDL
MODEL 6
REMARK VINA RESULT:    -7.719      1.819      2.304
REMARK INTER + INTRA:         -12.062
REMARK INTER:                 -11.365
REMARK INTRA:                  -0.697
REMARK UNBOUND:                -0.958
REMARK  Name = 
REMARK  9 active torsions:
REMARK  status: ('A' for Active; 'I' for Inactive)
REMARK    1  A    between atoms: C_1  and  C_2
REMARK    2  A    between atoms: C_2  and  O_3
REMARK    3  A    between atoms: C_5  and  O_6
REMARK    4  A    between atoms: O_6  and  C_7
REMARK    5  A    between atoms: C_9  and  C_10
REMARK    6  A    between atoms: C_10  and  C_13
REMARK    7  A    between atoms: C_13  and  N_14
REMARK    8  A    between atoms: N_14  and  C_15
REMARK    9  A    between atoms: C_18  and  C_19
REMARK                            x       y       z     vdW  Elec       q    Type
REMARK                         _______ _______ _______ _____ _____    ______ ____
ROOT
ATOM      1  C   UNL     1      44.979   6.209  11.511  0.00  0.00    +0.000 C 
ATOM      2  F   UNL     1      44.474   7.398  11.961  0.00  0.00    +0.000 F 
ATOM      3  F   UNL     1      45.631   6.516  10.348  0.00  0.00    +0.000 F 
ENDROOT
BRANCH   1   6
ATOM      4  C   UNL     1      47.593   5.916  14.242  0.00  0.00    +0.000 A 
ATOM      5  C   UNL     1      46.768   6.458  13.268  0.00  0.00    +0.000 A 
ATOM      6  C   UNL     1      45.932   5.605  12.535  0.00  0.00    +0.000 A 
ATOM      7  C   UNL     1      46.008   4.232  12.818  0.00  0.00    +0.000 A 
ATOM      8  C   UNL     1      46.879   3.787  13.802  0.00  0.00    +0.000 A 
ATOM      9  N   UNL     1      47.666   4.600  14.527  0.00  0.00    +0.000 NA
BRANCH   4  10
ATOM     10  O   UNL     1      48.368   6.792  14.970  0.00  0.00    +0.000 OA
BRANCH  10  14
ATOM     11  C   UNL     1      49.156   7.362  19.348  0.00  0.00    +0.000 C 
ATOM     12  C   UNL     1      48.770   7.308  17.879  0.00  0.00    +0.000 C 
ATOM     13  C   UNL     1      48.345   5.906  17.369  0.00  0.00    +0.000 C 
ATOM     14  C   UNL     1      49.124   6.207  16.059  0.00  0.00    +0.000 C 
ATOM     15  C   UNL     1      49.958   7.220  16.883  0.00  0.00    +0.000 C 
BRANCH  12  16
ATOM     16  O   UNL     1      47.838   8.379  17.604  0.00  0.00    +0.000 OA
ATOM     17  H   UNL     1      47.080   7.957  17.166  0.00  0.00    +0.000 HD
ENDBRANCH  12  16
ENDBRANCH  10  14
ENDBRANCH   4  10
ENDBRANCH   1   6
BRANCH   1  18
ATOM     18  C   UNL     1      43.789   5.280  11.147  0.00  0.00    +0.000 C 
BRANCH  18  19
ATOM     19  N   UNL     1      43.677   4.908   9.724  0.00  0.00    +0.000 N 
ATOM     20  H   UNL     1      43.521   5.696   9.095  0.00  0.00    +0.000 HD
BRANCH  19  21
ATOM     21  C   UNL     1      44.552   3.940   9.216  0.00  0.00    +0.000 A 
ATOM     22  C   UNL     1      45.392   4.271   8.149  0.00  0.00    +0.000 A 
ATOM     23  C   UNL     1      46.219   3.307   7.566  0.00  0.00    +0.000 A 
ATOM     24  C   UNL     1      46.175   2.013   8.064  0.00  0.00    +0.000 A 
ATOM     25  N   UNL     1      45.356   1.625   9.076  0.00  0.00    +0.000 NA
ATOM     26  C   UNL     1      44.563   2.592   9.598  0.00  0.00    +0.000 A 
BRANCH  24  27
ATOM     27  C   UNL     1      47.059   0.953   7.480  0.00  0.00    +0.000 C 
ATOM     28  N   UNL     1      48.120   1.413   6.745  0.00  0.00    +0.000 N 
ATOM     29  O   UNL     1      46.852  -0.241   7.639  0.00  0.00    +0.000 OA
ATOM     30  H   UNL     1      48.256   2.411   6.634  0.00  0.00    +0.000 HD
ATOM     31  H   UNL     1      48.753   0.754   6.317  0.00  0.00    +0.000 HD
ENDBRANCH  24  27
ENDBRANCH  19  21
ENDBRANCH  18  19
ENDBRANCH   1  18
TORSDOF 8
ENDMDL
MODEL 7
REMARK VINA RESULT:    -7.692      3.210      3.898
REMARK INTER + INTRA:         -12.023
REMARK INTER:                 -11.290
REMARK INTRA:                  -0.733
REMARK UNBOUND:                -0.958
REMARK  Name = 
REMARK  9 active torsions:
REMARK  status: ('A' for Active; 'I' for Inactive)
REMARK    1  A    between atoms: C_1  and  C_2
REMARK    2  A    between atoms: C_2  and  O_3
REMARK    3  A    between atoms: C_5  and  O_6
REMARK    4  A    between atoms: O_6  and  C_7
REMARK    5  A    between atoms: C_9  and  C_10
REMARK    6  A    between atoms: C_10  and  C_13
REMARK    7  A    between atoms: C_13  and  N_14
REMARK    8  A    between atoms: N_14  and  C_15
REMARK    9  A    between atoms: C_18  and  C_19
REMARK                            x       y       z     vdW  Elec       q    Type
REMARK                         _______ _______ _______ _____ _____    ______ ____
ROOT
ATOM      1  C   UNL     1      44.673   5.102  12.175  0.00  0.00    +0.000 C 
ATOM      2  F   UNL     1      45.781   4.405  11.778  0.00  0.00    +0.000 F 
ATOM      3  F   UNL     1      44.383   4.630  13.426  0.00  0.00    +0.000 F 
ENDROOT
BRANCH   1   6
ATOM      4  C   UNL     1      46.330   8.424  12.948  0.00  0.00    +0.000 A 
ATOM      5  C   UNL     1      46.033   7.070  12.969  0.00  0.00    +0.000 A 
ATOM      6  C   UNL     1      44.958   6.599  12.202  0.00  0.00    +0.000 A 
ATOM      7  C   UNL     1      44.221   7.549  11.478  0.00  0.00    +0.000 A 
ATOM      8  C   UNL     1      44.590   8.885  11.536  0.00  0.00    +0.000 A 
ATOM      9  N   UNL     1      45.634   9.342  12.248  0.00  0.00    +0.000 NA
BRANCH   4  10
ATOM     10  O   UNL     1      47.421   8.841  13.680  0.00  0.00    +0.000 OA
BRANCH  10  14
ATOM     11  C   UNL     1      51.439   8.158  11.810  0.00  0.00    +0.000 C 
ATOM     12  C   UNL     1      50.077   8.210  12.484  0.00  0.00    +0.000 C 
ATOM     13  C   UNL     1      48.956   8.865  11.635  0.00  0.00    +0.000 C 
ATOM     14  C   UNL     1      48.445   9.545  12.935  0.00  0.00    +0.000 C 
ATOM     15  C   UNL     1      49.880   9.374  13.493  0.00  0.00    +0.000 C 
BRANCH  12  16
ATOM     16  O   UNL     1      49.771   6.900  13.015  0.00  0.00    +0.000 OA
ATOM     17  H   UNL     1      50.627   6.447  13.097  0.00  0.00    +0.000 HD
ENDBRANCH  12  16
ENDBRANCH  10  14
ENDBRANCH   4  10
ENDBRANCH   1   6
BRANCH   1  18
ATOM     18  C   UNL     1      43.492   4.713  11.245  0.00  0.00    +0.000 C 
BRANCH  18  19
ATOM     19  N   UNL     1      43.743   4.847   9.797  0.00  0.00    +0.000 N 
ATOM     20  H   UNL     1      43.810   5.812   9.471  0.00  0.00    +0.000 HD
BRANCH  19  21
ATOM     21  C   UNL     1      44.661   3.979   9.194  0.00  0.00    +0.000 A 
ATOM     22  C   UNL     1      45.596   4.492   8.291  0.00  0.00    +0.000 A 
ATOM     23  C   UNL     1      46.473   3.643   7.612  0.00  0.00    +0.000 A 
ATOM     24  C   UNL     1      46.383   2.278   7.846  0.00  0.00    +0.000 A 
ATOM     25  N   UNL     1      45.474   1.719   8.686  0.00  0.00    +0.000 NA
ATOM     26  C   UNL     1      44.636   2.582   9.310  0.00  0.00    +0.000 A 
BRANCH  24  27
ATOM     27  C   UNL     1      47.317   1.334   7.153  0.00  0.00    +0.000 C 
ATOM     28  N   UNL     1      48.418   1.913   6.578  0.00  0.00    +0.000 N 
ATOM     29  O   UNL     1      47.116   0.129   7.094  0.00  0.00    +0.000 OA
ATOM     30  H   UNL     1      48.548   2.915   6.645  0.00  0.00    +0.000 HD
ATOM     31  H   UNL     1      49.086   1.336   6.088  0.00  0.00    +0.000 HD
ENDBRANCH  24  27
ENDBRANCH  19  21
ENDBRANCH  18  19
ENDBRANCH   1  18
TORSDOF 8
ENDMDL
MODEL 8
REMARK VINA RESULT:    -7.451      2.560      3.529
REMARK INTER + INTRA:         -11.676
REMARK INTER:                 -10.739
REMARK INTRA:                  -0.937
REMARK UNBOUND:                -0.958
REMARK  Name = 
REMARK  9 active torsions:
REMARK  status: ('A' for Active; 'I' for Inactive)
REMARK    1  A    between atoms: C_1  and  C_2
REMARK    2  A    between atoms: C_2  and  O_3
REMARK    3  A    between atoms: C_5  and  O_6
REMARK    4  A    between atoms: O_6  and  C_7
REMARK    5  A    between atoms: C_9  and  C_10
REMARK    6  A    between atoms: C_10  and  C_13
REMARK    7  A    between atoms: C_13  and  N_14
REMARK    8  A    between atoms: N_14  and  C_15
REMARK    9  A    between atoms: C_18  and  C_19
REMARK                            x       y       z     vdW  Elec       q    Type
REMARK                         _______ _______ _______ _____ _____    ______ ____
ROOT
ATOM      1  C   UNL     1      43.662   4.698  12.413  0.00  0.00    +0.000 C 
ATOM      2  F   UNL     1      43.220   3.457  12.781  0.00  0.00    +0.000 F 
ATOM      3  F   UNL     1      42.804   5.576  13.018  0.00  0.00    +0.000 F 
ENDROOT
BRANCH   1   6
ATOM      4  C   UNL     1      46.885   6.440  13.389  0.00  0.00    +0.000 A 
ATOM      5  C   UNL     1      45.600   6.229  12.912  0.00  0.00    +0.000 A 
ATOM      6  C   UNL     1      45.097   4.921  12.875  0.00  0.00    +0.000 A 
ATOM      7  C   UNL     1      45.951   3.891  13.299  0.00  0.00    +0.000 A 
ATOM      8  C   UNL     1      47.227   4.206  13.744  0.00  0.00    +0.000 A 
ATOM      9  N   UNL     1      47.709   5.459  13.807  0.00  0.00    +0.000 NA
BRANCH   4  10
ATOM     10  O   UNL     1      47.327   7.744  13.451  0.00  0.00    +0.000 OA
BRANCH  10  14
ATOM     11  C   UNL     1      49.890  11.090  14.981  0.00  0.00    +0.000 C 
ATOM     12  C   UNL     1      48.919  10.086  14.383  0.00  0.00    +0.000 C 
ATOM     13  C   UNL     1      48.331   9.067  15.396  0.00  0.00    +0.000 C 
ATOM     14  C   UNL     1      48.479   7.976  14.300  0.00  0.00    +0.000 C 
ATOM     15  C   UNL     1      49.574   8.873  13.669  0.00  0.00    +0.000 C 
BRANCH  12  16
ATOM     16  O   UNL     1      47.948  10.799  13.583  0.00  0.00    +0.000 OA
ATOM     17  H   UNL     1      48.457  11.463  13.089  0.00  0.00    +0.000 HD
ENDBRANCH  12  16
ENDBRANCH  10  14
ENDBRANCH   4  10
ENDBRANCH   1   6
BRANCH   1  18
ATOM     18  C   UNL     1      43.474   4.847  10.879  0.00  0.00    +0.000 C 
BRANCH  18  19
ATOM     19  N   UNL     1      43.393   3.587  10.116  0.00  0.00    +0.000 N 
ATOM     20  H   UNL     1      42.491   3.426   9.666  0.00  0.00    +0.000 HD
BRANCH  19  21
ATOM     21  C   UNL     1      44.492   3.205   9.338  0.00  0.00    +0.000 A 
ATOM     22  C   UNL     1      45.103   4.150   8.507  0.00  0.00    +0.000 A 
ATOM     23  C   UNL     1      46.150   3.782   7.659  0.00  0.00    +0.000 A 
ATOM     24  C   UNL     1      46.559   2.457   7.651  0.00  0.00    +0.000 A 
ATOM     25  N   UNL     1      45.982   1.489   8.411  0.00  0.00    +0.000 NA
ATOM     26  C   UNL     1      44.962   1.892   9.206  0.00  0.00    +0.000 A 
BRANCH  24  27
ATOM     27  C   UNL     1      47.691   2.024   6.770  0.00  0.00    +0.000 C 
ATOM     28  N   UNL     1      48.635   2.983   6.514  0.00  0.00    +0.000 N 
ATOM     29  O   UNL     1      47.772   0.897   6.303  0.00  0.00    +0.000 OA
ATOM     30  H   UNL     1      48.532   3.907   6.917  0.00  0.00    +0.000 HD
ATOM     31  H   UNL     1      49.422   2.763   5.922  0.00  0.00    +0.000 HD
ENDBRANCH  24  27
ENDBRANCH  19  21
ENDBRANCH  18  19
ENDBRANCH   1  18
TORSDOF 8
ENDMDL
MODEL 9
REMARK VINA RESULT:    -7.213      2.157      7.624
REMARK INTER + INTRA:         -11.334
REMARK INTER:                 -10.341
REMARK INTRA:                  -0.993
REMARK UNBOUND:                -0.958
REMARK  Name = 
REMARK  9 active torsions:
REMARK  status: ('A' for Active; 'I' for Inactive)
REMARK    1  A    between atoms: C_1  and  C_2
REMARK    2  A    between atoms: C_2  and  O_3
REMARK    3  A    between atoms: C_5  and  O_6
REMARK    4  A    between atoms: O_6  and  C_7
REMARK    5  A    between atoms: C_9  and  C_10
REMARK    6  A    between atoms: C_10  and  C_13
REMARK    7  A    between atoms: C_13  and  N_14
REMARK    8  A    between atoms: N_14  and  C_15
REMARK    9  A    between atoms: C_18  and  C_19
REMARK                            x       y       z     vdW  Elec       q    Type
REMARK                         _______ _______ _______ _____ _____    ______ ____
ROOT
ATOM      1  C   UNL     1      45.411   7.407  11.922  0.00  0.00    +0.000 C 
ATOM      2  F   UNL     1      45.148   8.379  10.997  0.00  0.00    +0.000 F 
ATOM      3  F   UNL     1      44.990   7.927  13.116  0.00  0.00    +0.000 F 
ENDROOT
BRANCH   1   6
ATOM      4  C   UNL     1      44.533   4.082  10.325  0.00  0.00    +0.000 A 
ATOM      5  C   UNL     1      45.179   5.280  10.592  0.00  0.00    +0.000 A 
ATOM      6  C   UNL     1      44.663   6.123  11.585  0.00  0.00    +0.000 A 
ATOM      7  C   UNL     1      43.490   5.708  12.234  0.00  0.00    +0.000 A 
ATOM      8  C   UNL     1      42.910   4.497  11.883  0.00  0.00    +0.000 A 
ATOM      9  N   UNL     1      43.411   3.671  10.950  0.00  0.00    +0.000 NA
BRANCH   4  10
ATOM     10  O   UNL     1      45.096   3.261   9.372  0.00  0.00    +0.000 OA
BRANCH  10  14
ATOM     11  C   UNL     1      47.340   2.644   5.539  0.00  0.00    +0.000 C 
ATOM     12  C   UNL     1      46.659   2.698   6.897  0.00  0.00    +0.000 C 
ATOM     13  C   UNL     1      45.117   2.866   6.845  0.00  0.00    +0.000 C 
ATOM     14  C   UNL     1      45.238   3.839   8.051  0.00  0.00    +0.000 C 
ATOM     15  C   UNL     1      46.703   4.079   7.607  0.00  0.00    +0.000 C 
BRANCH  12  16
ATOM     16  O   UNL     1      47.138   1.596   7.701  0.00  0.00    +0.000 OA
ATOM     17  H   UNL     1      47.950   1.919   8.127  0.00  0.00    +0.000 HD
ENDBRANCH  12  16
ENDBRANCH  10  14
ENDBRANCH   4  10
ENDBRANCH   1   6
BRANCH   1  18
ATOM     18  C   UNL     1      46.950   7.222  12.012  0.00  0.00    +0.000 C 
BRANCH  18  19
ATOM     19  N   UNL     1      47.547   7.437  13.344  0.00  0.00    +0.000 N 
ATOM     20  H   UNL     1      47.214   8.275  13.823  0.00  0.00    +0.000 HD
BRANCH  19  21
ATOM     21  C   UNL     1      47.716   6.332  14.186  0.00  0.00    +0.000 A 
ATOM     22  C   UNL     1      47.014   5.154  13.918  0.00  0.00    +0.000 A 
ATOM     23  C   UNL     1      47.098   4.059  14.782  0.00  0.00    +0.000 A 
ATOM     24  C   UNL     1      47.884   4.177  15.920  0.00  0.00    +0.000 A 
ATOM     25  N   UNL     1      48.562   5.307  16.251  0.00  0.00    +0.000 NA
ATOM     26  C   UNL     1      48.437   6.345  15.388  0.00  0.00    +0.000 A 
BRANCH  24  27
ATOM     27  C   UNL     1      48.017   3.021  16.864  0.00  0.00    +0.000 C 
ATOM     28  N   UNL     1      46.936   2.797  17.674  0.00  0.00    +0.000 N 
ATOM     29  O   UNL     1      49.021   2.325  16.919  0.00  0.00    +0.000 OA
ATOM     30  H   UNL     1      46.123   3.399  17.601  0.00  0.00    +0.000 HD
ATOM     31  H   UNL     1      46.959   2.039  18.340  0.00  0.00    +0.000 HD
ENDBRANCH  24  27
ENDBRANCH  19  21
ENDBRANCH  18  19
ENDBRANCH   1  18
TORSDOF 8
ENDMDL
