MODEL 1
REMARK VINA RESULT:    -9.374      0.000      0.000
REMARK INTER + INTRA:         -13.962
REMARK INTER:                 -13.485
REMARK INTRA:                  -0.477
REMARK UNBOUND:                -0.477
REMARK  Name = 
REMARK  8 active torsions:
REMARK  status: ('A' for Active; 'I' for Inactive)
REMARK    1  A    between atoms: C_2  and  C_4
REMARK    2  A    between atoms: N_8  and  C_9
REMARK    3  A    between atoms: C_9  and  C_10
REMARK    4  A    between atoms: C_10  and  C_13
REMARK    5  A    between atoms: C_17  and  O_18
REMARK    6  A    between atoms: O_18  and  C_19
REMARK    7  A    between atoms: N_21  and  S_22
REMARK    8  A    between atoms: S_22  and  N_23
REMARK                            x       y       z     vdW  Elec       q    Type
REMARK                         _______ _______ _______ _____ _____    ______ ____
ROOT
ATOM      1  C   UNL     1      43.701   5.531  12.197  0.00  0.00    +0.000 C 
ATOM      2  F   UNL     1      43.296   6.800  11.858  0.00  0.00    +0.000 F 
ATOM      3  F   UNL     1      42.878   5.169  13.227  0.00  0.00    +0.000 F 
ENDROOT
BRANCH   1   4
ATOM      4  C   UNL     1      45.156   5.536  12.645  0.00  0.00    +0.000 A 
ATOM      5  C   UNL     1      46.104   6.466  12.200  0.00  0.00    +0.000 A 
ATOM      6  C   UNL     1      47.404   6.384  12.677  0.00  0.00    +0.000 A 
ATOM      7  N   UNL     1      47.830   5.462  13.564  0.00  0.00    +0.000 NA
ATOM      8  C   UNL     1      46.911   4.572  13.985  0.00  0.00    +0.000 A 
ATOM      9  C   UNL     1      45.589   4.562  13.561  0.00  0.00    +0.000 A 
BRANCH   8  10
ATOM     10  O   UNL     1      47.288   3.651  14.940  0.00  0.00    +0.000 OA
BRANCH  10  11
ATOM     11  C   UNL     1      47.490   4.178  16.276  0.00  0.00    +0.000 C 
ATOM     12  C   UNL     1      48.957   4.180  16.767  0.00  0.00    +0.000 C 
ATOM     13  N   UNL     1      48.531   3.698  18.126  0.00  0.00    +0.000 NA
ATOM     14  C   UNL     1      47.228   3.271  17.503  0.00  0.00    +0.000 C 
BRANCH  13  15
ATOM     15  S   UNL     1      48.654   4.695  19.478  0.00  0.00    +0.000 S 
ATOM     16  O   UNL     1      50.030   5.082  19.637  0.00  0.00    +0.000 OA
ATOM     17  O   UNL     1      47.561   5.635  19.448  0.00  0.00    +0.000 OA
BRANCH  15  18
ATOM     18  N   UNL     1      48.316   3.555  20.637  0.00  0.00    +0.000 NA
ATOM     19  H   UNL     1      47.866   2.737  20.236  0.00  0.00    +0.000 HD
ATOM     20  H   UNL     1      47.897   3.949  21.472  0.00  0.00    +0.000 HD
ENDBRANCH  15  18
ENDBRANCH  13  15
ENDBRANCH  10  11
ENDBRANCH   8  10
ENDBRANCH   1   4
BRANCH   1  21
ATOM     21  C   UNL     1      43.392   4.621  10.976  0.00  0.00    +0.000 C 
BRANCH  21  26
ATOM     22  C   UNL     1      46.331   2.080   7.870  0.00  0.00    +0.000 A 
ATOM     23  C   UNL     1      46.343   3.376   7.363  0.00  0.00    +0.000 A 
ATOM     24  C   UNL     1      45.591   4.362   8.004  0.00  0.00    +0.000 A 
ATOM     25  C   UNL     1      44.850   4.043   9.142  0.00  0.00    +0.000 A 
ATOM     26  N   UNL     1      44.064   5.045   9.730  0.00  0.00    +0.000 N 
ATOM     27  N   UNL     1      44.819   2.784   9.627  0.00  0.00    +0.000 NA
ATOM     28  C   UNL     1      45.546   1.831   8.983  0.00  0.00    +0.000 A 
ATOM     29  H   UNL     1      44.587   5.909   9.844  0.00  0.00    +0.000 HD
BRANCH  22  31
ATOM     30  N   UNL     1      46.767  -0.297   7.667  0.00  0.00    +0.000 N 
ATOM     31  C   UNL     1      47.095   0.969   7.268  0.00  0.00    +0.000 C 
ATOM     32  O   UNL     1      47.951   1.169   6.418  0.00  0.00    +0.000 OA
ATOM     33  H   UNL     1      47.211  -1.057   7.162  0.00  0.00    +0.000 HD
ATOM     34  H   UNL     1      45.909  -0.503   8.155  0.00  0.00    +0.000 HD
ENDBRANCH  22  31
ENDBRANCH  21  26
ENDBRANCH   1  21
TORSDOF 8
ENDMDL
MODEL 2
REMARK VINA RESULT:    -9.088      1.034      1.310
REMARK INTER + INTRA:         -13.551
REMARK INTER:                 -13.056
REMARK INTRA:                  -0.495
REMARK UNBOUND:                -0.477
REMARK  Name = 
REMARK  8 active torsions:
REMARK  status: ('A' for Active; 'I' for Inactive)
REMARK    1  A    between atoms: C_2  and  C_4
REMARK    2  A    between atoms: N_8  and  C_9
REMARK    3  A    between atoms: C_9  and  C_10
REMARK    4  A    between atoms: C_10  and  C_13
REMARK    5  A    between atoms: C_17  and  O_18
REMARK    6  A    between atoms: O_18  and  C_19
REMARK    7  A    between atoms: N_21  and  S_22
REMARK    8  A    between atoms: S_22  and  N_23
REMARK                            x       y       z     vdW  Elec       q    Type
REMARK                         _______ _______ _______ _____ _____    ______ ____
ROOT
ATOM      1  C   UNL     1      43.754   5.458  11.958  0.00  0.00    +0.000 C 
ATOM      2  F   UNL     1      43.258   6.739  11.897  0.00  0.00    +0.000 F 
ATOM      3  F   UNL     1      42.939   4.812  12.846  0.00  0.00    +0.000 F 
ENDROOT
BRANCH   1   4
ATOM      4  C   UNL     1      45.193   5.466  12.455  0.00  0.00    +0.000 A 
ATOM      5  C   UNL     1      46.159   6.384  12.025  0.00  0.00    +0.000 A 
ATOM      6  C   UNL     1      47.443   6.306  12.547  0.00  0.00    +0.000 A 
ATOM      7  N   UNL     1      47.834   5.400  13.466  0.00  0.00    +0.000 NA
ATOM      8  C   UNL     1      46.898   4.523  13.873  0.00  0.00    +0.000 A 
ATOM      9  C   UNL     1      45.590   4.509  13.404  0.00  0.00    +0.000 A 
BRANCH   8  10
ATOM     10  O   UNL     1      47.238   3.618  14.858  0.00  0.00    +0.000 OA
BRANCH  10  11
ATOM     11  C   UNL     1      47.475   4.183  16.173  0.00  0.00    +0.000 C 
ATOM     12  C   UNL     1      48.927   4.053  16.690  0.00  0.00    +0.000 C 
ATOM     13  N   UNL     1      48.434   3.681  18.061  0.00  0.00    +0.000 NA
ATOM     14  C   UNL     1      47.102   3.366  17.434  0.00  0.00    +0.000 C 
BRANCH  13  15
ATOM     15  S   UNL     1      48.643   4.721  19.370  0.00  0.00    +0.000 S 
ATOM     16  O   UNL     1      50.032   5.084  19.448  0.00  0.00    +0.000 OA
ATOM     17  O   UNL     1      47.569   5.683  19.360  0.00  0.00    +0.000 OA
BRANCH  15  18
ATOM     18  N   UNL     1      48.340   3.629  20.583  0.00  0.00    +0.000 NA
ATOM     19  H   UNL     1      48.448   4.050  21.501  0.00  0.00    +0.000 HD
ATOM     20  H   UNL     1      48.790   2.733  20.431  0.00  0.00    +0.000 HD
ENDBRANCH  15  18
ENDBRANCH  13  15
ENDBRANCH  10  11
ENDBRANCH   8  10
ENDBRANCH   1   4
BRANCH   1  21
ATOM     21  C   UNL     1      43.548   4.830  10.552  0.00  0.00    +0.000 C 
BRANCH  21  26
ATOM     22  C   UNL     1      46.603   2.572   7.341  0.00  0.00    +0.000 A 
ATOM     23  C   UNL     1      46.112   1.535   8.128  0.00  0.00    +0.000 A 
ATOM     24  C   UNL     1      45.219   1.829   9.160  0.00  0.00    +0.000 A 
ATOM     25  C   UNL     1      44.825   3.148   9.383  0.00  0.00    +0.000 A 
ATOM     26  N   UNL     1      43.969   3.416  10.462  0.00  0.00    +0.000 N 
ATOM     27  N   UNL     1      45.314   4.161   8.637  0.00  0.00    +0.000 NA
ATOM     28  C   UNL     1      46.192   3.860   7.644  0.00  0.00    +0.000 A 
ATOM     29  H   UNL     1      43.182   2.773  10.480  0.00  0.00    +0.000 HD
BRANCH  22  31
ATOM     30  N   UNL     1      47.497   3.260   5.194  0.00  0.00    +0.000 N 
ATOM     31  C   UNL     1      47.547   2.364   6.225  0.00  0.00    +0.000 C 
ATOM     32  O   UNL     1      48.366   1.456   6.242  0.00  0.00    +0.000 OA
ATOM     33  H   UNL     1      48.225   3.181   4.492  0.00  0.00    +0.000 HD
ATOM     34  H   UNL     1      47.025   4.148   5.275  0.00  0.00    +0.000 HD
ENDBRANCH  22  31
ENDBRANCH  21  26
ENDBRANCH   1  21
TORSDOF 8
ENDMDL
MODEL 3
REMARK VINA RESULT:    -8.673      1.202      1.358
REMARK INTER + INTRA:         -12.953
REMARK INTER:                 -12.885
REMARK INTRA:                  -0.069
REMARK UNBOUND:                -0.477
REMARK  Name = 
REMARK  8 active torsions:
REMARK  status: ('A' for Active; 'I' for Inactive)
REMARK    1  A    between atoms: C_2  and  C_4
REMARK    2  A    between atoms: N_8  and  C_9
REMARK    3  A    between atoms: C_9  and  C_10
REMARK    4  A    between atoms: C_10  and  C_13
REMARK    5  A    between atoms: C_17  and  O_18
REMARK    6  A    between atoms: O_18  and  C_19
REMARK    7  A    between atoms: N_21  and  S_22
REMARK    8  A    between atoms: S_22  and  N_23
REMARK                            x       y       z     vdW  Elec       q    Type
REMARK                         _______ _______ _______ _____ _____    ______ ____
ROOT
ATOM      1  C   UNL     1      43.708   4.459  12.474  0.00  0.00    +0.000 C 
ATOM      2  F   UNL     1      42.649   4.782  13.288  0.00  0.00    +0.000 F 
ATOM      3  F   UNL     1      44.077   3.202  12.868  0.00  0.00    +0.000 F 
ENDROOT
BRANCH   1   4
ATOM      4  C   UNL     1      44.852   5.444  12.670  0.00  0.00    +0.000 A 
ATOM      5  C   UNL     1      44.835   6.761  12.195  0.00  0.00    +0.000 A 
ATOM      6  C   UNL     1      45.930   7.578  12.433  0.00  0.00    +0.000 A 
ATOM      7  N   UNL     1      47.029   7.193  13.113  0.00  0.00    +0.000 NA
ATOM      8  C   UNL     1      47.037   5.925  13.565  0.00  0.00    +0.000 A 
ATOM      9  C   UNL     1      45.997   5.025  13.370  0.00  0.00    +0.000 A 
BRANCH   8  10
ATOM     10  O   UNL     1      48.115   5.509  14.319  0.00  0.00    +0.000 OA
BRANCH  10  11
ATOM     11  C   UNL     1      47.931   5.557  15.757  0.00  0.00    +0.000 C 
ATOM     12  C   UNL     1      49.218   5.817  16.575  0.00  0.00    +0.000 C 
ATOM     13  N   UNL     1      48.817   4.777  17.585  0.00  0.00    +0.000 NA
ATOM     14  C   UNL     1      47.853   4.238  16.562  0.00  0.00    +0.000 C 
BRANCH  13  15
ATOM     15  S   UNL     1      48.389   5.212  19.155  0.00  0.00    +0.000 S 
ATOM     16  O   UNL     1      49.445   6.012  19.712  0.00  0.00    +0.000 OA
ATOM     17  O   UNL     1      47.004   5.614  19.151  0.00  0.00    +0.000 OA
BRANCH  15  18
ATOM     18  N   UNL     1      48.482   3.705  19.845  0.00  0.00    +0.000 NA
ATOM     19  H   UNL     1      49.184   3.673  20.579  0.00  0.00    +0.000 HD
ATOM     20  H   UNL     1      48.495   2.956  19.163  0.00  0.00    +0.000 HD
ENDBRANCH  15  18
ENDBRANCH  13  15
ENDBRANCH  10  11
ENDBRANCH   8  10
ENDBRANCH   1   4
BRANCH   1  21
ATOM     21  C   UNL     1      43.151   4.377  11.025  0.00  0.00    +0.000 C 
BRANCH  21  26
ATOM     22  C   UNL     1      46.430   2.406   7.847  0.00  0.00    +0.000 A 
ATOM     23  C   UNL     1      46.562   3.779   7.662  0.00  0.00    +0.000 A 
ATOM     24  C   UNL     1      45.758   4.645   8.405  0.00  0.00    +0.000 A 
ATOM     25  C   UNL     1      44.846   4.128   9.325  0.00  0.00    +0.000 A 
ATOM     26  N   UNL     1      44.015   5.024  10.016  0.00  0.00    +0.000 N 
ATOM     27  N   UNL     1      44.698   2.798   9.494  0.00  0.00    +0.000 NA
ATOM     28  C   UNL     1      45.479   1.967   8.753  0.00  0.00    +0.000 A 
ATOM     29  H   UNL     1      44.547   5.802  10.399  0.00  0.00    +0.000 HD
BRANCH  22  31
ATOM     30  N   UNL     1      48.317   1.875   6.418  0.00  0.00    +0.000 N 
ATOM     31  C   UNL     1      47.235   1.409   7.112  0.00  0.00    +0.000 C 
ATOM     32  O   UNL     1      46.972   0.216   7.158  0.00  0.00    +0.000 OA
ATOM     33  H   UNL     1      48.931   1.174   6.018  0.00  0.00    +0.000 HD
ATOM     34  H   UNL     1      48.702   2.794   6.574  0.00  0.00    +0.000 HD
ENDBRANCH  22  31
ENDBRANCH  21  26
ENDBRANCH   1  21
TORSDOF 8
ENDMDL
MODEL 4
REMARK VINA RESULT:    -8.176      3.421      4.811
REMARK INTER + INTRA:         -12.238
REMARK INTER:                 -11.679
REMARK INTRA:                  -0.558
REMARK UNBOUND:                -0.477
REMARK  Name = 
REMARK  8 active torsions:
REMARK  status: ('A' for Active; 'I' for Inactive)
REMARK    1  A    between atoms: C_2  and  C_4
REMARK    2  A    between atoms: N_8  and  C_9
REMARK    3  A    between atoms: C_9  and  C_10
REMARK    4  A    between atoms: C_10  and  C_13
REMARK    5  A    between atoms: C_17  and  O_18
REMARK    6  A    between atoms: O_18  and  C_19
REMARK    7  A    between atoms: N_21  and  S_22
REMARK    8  A    between atoms: S_22  and  N_23
REMARK                            x       y       z     vdW  Elec       q    Type
REMARK                         _______ _______ _______ _____ _____    ______ ____
ROOT
ATOM      1  C   UNL     1      43.490   5.311  12.216  0.00  0.00    +0.000 C 
ATOM      2  F   UNL     1      43.072   6.599  11.978  0.00  0.00    +0.000 F 
ATOM      3  F   UNL     1      42.623   4.835  13.161  0.00  0.00    +0.000 F 
ENDROOT
BRANCH   1   4
ATOM      4  C   UNL     1      44.918   5.301  12.742  0.00  0.00    +0.000 A 
ATOM      5  C   UNL     1      45.606   4.137  13.105  0.00  0.00    +0.000 A 
ATOM      6  C   UNL     1      46.910   4.239  13.569  0.00  0.00    +0.000 A 
ATOM      7  N   UNL     1      47.582   5.402  13.689  0.00  0.00    +0.000 NA
ATOM      8  C   UNL     1      46.912   6.516  13.340  0.00  0.00    +0.000 A 
ATOM      9  C   UNL     1      45.603   6.522  12.875  0.00  0.00    +0.000 A 
BRANCH   8  10
ATOM     10  O   UNL     1      47.582   7.721  13.388  0.00  0.00    +0.000 OA
BRANCH  10  11
ATOM     11  C   UNL     1      48.671   7.873  12.442  0.00  0.00    +0.000 C 
ATOM     12  C   UNL     1      50.089   7.765  13.050  0.00  0.00    +0.000 C 
ATOM     13  N   UNL     1      50.562   8.926  12.220  0.00  0.00    +0.000 NA
ATOM     14  C   UNL     1      49.116   9.290  12.009  0.00  0.00    +0.000 C 
BRANCH  13  15
ATOM     15  S   UNL     1      51.676   8.707  10.975  0.00  0.00    +0.000 S 
ATOM     16  O   UNL     1      51.551   7.362  10.482  0.00  0.00    +0.000 OA
ATOM     17  O   UNL     1      51.640   9.871  10.125  0.00  0.00    +0.000 OA
BRANCH  15  18
ATOM     18  N   UNL     1      53.060   8.781  11.887  0.00  0.00    +0.000 NA
ATOM     19  H   UNL     1      53.520   9.682  11.797  0.00  0.00    +0.000 HD
ATOM     20  H   UNL     1      53.642   7.955  11.794  0.00  0.00    +0.000 HD
ENDBRANCH  15  18
ENDBRANCH  13  15
ENDBRANCH  10  11
ENDBRANCH   8  10
ENDBRANCH   1   4
BRANCH   1  21
ATOM     21  C   UNL     1      43.269   4.517  10.899  0.00  0.00    +0.000 C 
BRANCH  21  26
ATOM     22  C   UNL     1      46.352   2.060   7.867  0.00  0.00    +0.000 A 
ATOM     23  C   UNL     1      46.490   3.391   7.484  0.00  0.00    +0.000 A 
ATOM     24  C   UNL     1      45.736   4.367   8.138  0.00  0.00    +0.000 A 
ATOM     25  C   UNL     1      44.868   4.001   9.167  0.00  0.00    +0.000 A 
ATOM     26  N   UNL     1      44.085   5.000   9.766  0.00  0.00    +0.000 N 
ATOM     27  N   UNL     1      44.715   2.710   9.529  0.00  0.00    +0.000 NA
ATOM     28  C   UNL     1      45.446   1.770   8.873  0.00  0.00    +0.000 A 
ATOM     29  H   UNL     1      44.644   5.815  10.008  0.00  0.00    +0.000 HD
BRANCH  22  31
ATOM     30  N   UNL     1      46.819  -0.312   7.664  0.00  0.00    +0.000 N 
ATOM     31  C   UNL     1      47.107   0.956   7.240  0.00  0.00    +0.000 C 
ATOM     32  O   UNL     1      47.922   1.162   6.352  0.00  0.00    +0.000 OA
ATOM     33  H   UNL     1      47.253  -1.068   7.147  0.00  0.00    +0.000 HD
ATOM     34  H   UNL     1      45.986  -0.527   8.192  0.00  0.00    +0.000 HD
ENDBRANCH  22  31
ENDBRANCH  21  26
ENDBRANCH   1  21
TORSDOF 8
ENDMDL
MODEL 5
REMARK VINA RESULT:    -7.822      3.348      9.148
REMARK INTER + INTRA:         -11.729
REMARK INTER:                 -11.632
REMARK INTRA:                  -0.097
REMARK UNBOUND:                -0.477
REMARK  Name = 
REMARK  8 active torsions:
REMARK  status: ('A' for Active; 'I' for Inactive)
REMARK    1  A    between atoms: C_2  and  C_4
REMARK    2  A    between atoms: N_8  and  C_9
REMARK    3  A    between atoms: C_9  and  C_10
REMARK    4  A    between atoms: C_10  and  C_13
REMARK    5  A    between atoms: C_17  and  O_18
REMARK    6  A    between atoms: O_18  and  C_19
REMARK    7  A    between atoms: N_21  and  S_22
REMARK    8  A    between atoms: S_22  and  N_23
REMARK                            x       y       z     vdW  Elec       q    Type
REMARK                         _______ _______ _______ _____ _____    ______ ____
ROOT
ATOM      1  C   UNL     1      46.796   6.622  12.483  0.00  0.00    +0.000 C 
ATOM      2  F   UNL     1      46.174   7.404  13.427  0.00  0.00    +0.000 F 
ATOM      3  F   UNL     1      47.007   7.461  11.424  0.00  0.00    +0.000 F 
ENDROOT
BRANCH   1   4
ATOM      4  C   UNL     1      45.900   5.459  12.078  0.00  0.00    +0.000 A 
ATOM      5  C   UNL     1      45.553   4.410  12.938  0.00  0.00    +0.000 A 
ATOM      6  C   UNL     1      44.725   3.400  12.469  0.00  0.00    +0.000 A 
ATOM      7  N   UNL     1      44.210   3.359  11.223  0.00  0.00    +0.000 NA
ATOM      8  C   UNL     1      44.551   4.372  10.405  0.00  0.00    +0.000 A 
ATOM      9  C   UNL     1      45.381   5.422  10.773  0.00  0.00    +0.000 A 
BRANCH   8  10
ATOM     10  O   UNL     1      43.997   4.402   9.141  0.00  0.00    +0.000 OA
BRANCH  10  11
ATOM     11  C   UNL     1      44.779   3.767   8.097  0.00  0.00    +0.000 C 
ATOM     12  C   UNL     1      45.459   2.439   8.503  0.00  0.00    +0.000 C 
ATOM     13  N   UNL     1      46.722   2.837   7.792  0.00  0.00    +0.000 NA
ATOM     14  C   UNL     1      46.220   4.256   7.817  0.00  0.00    +0.000 C 
BRANCH  13  15
ATOM     15  S   UNL     1      47.226   2.034   6.400  0.00  0.00    +0.000 S 
ATOM     16  O   UNL     1      47.224   0.620   6.662  0.00  0.00    +0.000 OA
ATOM     17  O   UNL     1      46.566   2.634   5.267  0.00  0.00    +0.000 OA
BRANCH  15  18
ATOM     18  N   UNL     1      48.806   2.542   6.399  0.00  0.00    +0.000 NA
ATOM     19  H   UNL     1      48.876   3.546   6.261  0.00  0.00    +0.000 HD
ATOM     20  H   UNL     1      49.412   1.956   5.835  0.00  0.00    +0.000 HD
ENDBRANCH  15  18
ENDBRANCH  13  15
ENDBRANCH  10  11
ENDBRANCH   8  10
ENDBRANCH   1   4
BRANCH   1  21
ATOM     21  C   UNL     1      48.175   6.217  13.073  0.00  0.00    +0.000 C 
BRANCH  21  26
ATOM     22  C   UNL     1      48.654   5.198  17.918  0.00  0.00    +0.000 A 
ATOM     23  C   UNL     1      48.942   6.557  17.827  0.00  0.00    +0.000 A 
ATOM     24  C   UNL     1      48.913   7.175  16.576  0.00  0.00    +0.000 A 
ATOM     25  C   UNL     1      48.587   6.432  15.441  0.00  0.00    +0.000 A 
ATOM     26  N   UNL     1      48.620   7.072  14.193  0.00  0.00    +0.000 N 
ATOM     27  N   UNL     1      48.327   5.110  15.519  0.00  0.00    +0.000 NA
ATOM     28  C   UNL     1      48.373   4.520  16.743  0.00  0.00    +0.000 A 
ATOM     29  H   UNL     1      48.132   7.964  14.220  0.00  0.00    +0.000 HD
BRANCH  22  31
ATOM     30  N   UNL     1      48.298   3.135  19.144  0.00  0.00    +0.000 N 
ATOM     31  C   UNL     1      48.655   4.454  19.194  0.00  0.00    +0.000 C 
ATOM     32  O   UNL     1      49.000   4.983  20.241  0.00  0.00    +0.000 OA
ATOM     33  H   UNL     1      48.416   2.605  19.999  0.00  0.00    +0.000 HD
ATOM     34  H   UNL     1      48.265   2.619  18.277  0.00  0.00    +0.000 HD
ENDBRANCH  22  31
ENDBRANCH  21  26
ENDBRANCH   1  21
TORSDOF 8
ENDMDL
MODEL 6
REMARK VINA RESULT:    -7.727      3.183      9.048
REMARK INTER + INTRA:         -11.593
REMARK INTER:                 -11.218
REMARK INTRA:                  -0.375
REMARK UNBOUND:                -0.477
REMARK  Name = 
REMARK  8 active torsions:
REMARK  status: ('A' for Active; 'I' for Inactive)
REMARK    1  A    between atoms: C_2  and  C_4
REMARK    2  A    between atoms: N_8  and  C_9
REMARK    3  A    between atoms: C_9  and  C_10
REMARK    4  A    between atoms: C_10  and  C_13
REMARK    5  A    between atoms: C_17  and  O_18
REMARK    6  A    between atoms: O_18  and  C_19
REMARK    7  A    between atoms: N_21  and  S_22
REMARK    8  A    between atoms: S_22  and  N_23
REMARK                            x       y       z     vdW  Elec       q    Type
REMARK                         _______ _______ _______ _____ _____    ______ ____
ROOT
ATOM      1  C   UNL     1      46.313   6.415  12.560  0.00  0.00    +0.000 C 
ATOM      2  F   UNL     1      46.021   7.570  13.246  0.00  0.00    +0.000 F 
ATOM      3  F   UNL     1      46.904   6.840  11.403  0.00  0.00    +0.000 F 
ENDROOT
BRANCH   1   4
ATOM      4  C   UNL     1      45.039   5.637  12.260  0.00  0.00    +0.000 A 
ATOM      5  C   UNL     1      43.821   5.856  12.914  0.00  0.00    +0.000 A 
ATOM      6  C   UNL     1      42.717   5.093  12.559  0.00  0.00    +0.000 A 
ATOM      7  N   UNL     1      42.729   4.142  11.603  0.00  0.00    +0.000 NA
ATOM      8  C   UNL     1      43.905   3.938  10.981  0.00  0.00    +0.000 A 
ATOM      9  C   UNL     1      45.069   4.640  11.269  0.00  0.00    +0.000 A 
BRANCH   8  10
ATOM     10  O   UNL     1      43.947   3.018   9.953  0.00  0.00    +0.000 OA
BRANCH  10  11
ATOM     11  C   UNL     1      45.179   2.987   9.188  0.00  0.00    +0.000 C 
ATOM     12  C   UNL     1      45.054   3.465   7.723  0.00  0.00    +0.000 C 
ATOM     13  N   UNL     1      45.931   2.338   7.252  0.00  0.00    +0.000 NA
ATOM     14  C   UNL     1      45.658   1.653   8.565  0.00  0.00    +0.000 C 
BRANCH  13  15
ATOM     15  S   UNL     1      47.472   2.635   6.640  0.00  0.00    +0.000 S 
ATOM     16  O   UNL     1      47.925   3.905   7.138  0.00  0.00    +0.000 OA
ATOM     17  O   UNL     1      48.242   1.420   6.745  0.00  0.00    +0.000 OA
BRANCH  15  18
ATOM     18  N   UNL     1      47.053   2.840   5.047  0.00  0.00    +0.000 NA
ATOM     19  H   UNL     1      46.286   2.230   4.781  0.00  0.00    +0.000 HD
ATOM     20  H   UNL     1      47.855   2.870   4.427  0.00  0.00    +0.000 HD
ENDBRANCH  15  18
ENDBRANCH  13  15
ENDBRANCH  10  11
ENDBRANCH   8  10
ENDBRANCH   1   4
BRANCH   1  21
ATOM     21  C   UNL     1      47.370   5.648  13.401  0.00  0.00    +0.000 C 
BRANCH  21  26
ATOM     22  C   UNL     1      48.634   4.475  18.066  0.00  0.00    +0.000 A 
ATOM     23  C   UNL     1      47.629   3.566  17.749  0.00  0.00    +0.000 A 
ATOM     24  C   UNL     1      47.029   3.629  16.490  0.00  0.00    +0.000 A 
ATOM     25  C   UNL     1      47.449   4.587  15.567  0.00  0.00    +0.000 A 
ATOM     26  N   UNL     1      46.789   4.658  14.331  0.00  0.00    +0.000 N 
ATOM     27  N   UNL     1      48.409   5.484  15.876  0.00  0.00    +0.000 NA
ATOM     28  C   UNL     1      48.973   5.419  17.111  0.00  0.00    +0.000 A 
ATOM     29  H   UNL     1      46.691   3.737  13.910  0.00  0.00    +0.000 HD
BRANCH  22  31
ATOM     30  N   UNL     1      48.675   3.930  20.430  0.00  0.00    +0.000 N 
ATOM     31  C   UNL     1      49.332   4.488  19.368  0.00  0.00    +0.000 C 
ATOM     32  O   UNL     1      50.463   4.940  19.482  0.00  0.00    +0.000 OA
ATOM     33  H   UNL     1      49.207   3.836  21.288  0.00  0.00    +0.000 HD
ATOM     34  H   UNL     1      47.874   3.329  20.311  0.00  0.00    +0.000 HD
ENDBRANCH  22  31
ENDBRANCH  21  26
ENDBRANCH   1  21
TORSDOF 8
ENDMDL
MODEL 7
REMARK VINA RESULT:    -7.556      2.667      3.281
REMARK INTER + INTRA:         -11.347
REMARK INTER:                 -10.879
REMARK INTRA:                  -0.468
REMARK UNBOUND:                -0.477
REMARK  Name = 
REMARK  8 active torsions:
REMARK  status: ('A' for Active; 'I' for Inactive)
REMARK    1  A    between atoms: C_2  and  C_4
REMARK    2  A    between atoms: N_8  and  C_9
REMARK    3  A    between atoms: C_9  and  C_10
REMARK    4  A    between atoms: C_10  and  C_13
REMARK    5  A    between atoms: C_17  and  O_18
REMARK    6  A    between atoms: O_18  and  C_19
REMARK    7  A    between atoms: N_21  and  S_22
REMARK    8  A    between atoms: S_22  and  N_23
REMARK                            x       y       z     vdW  Elec       q    Type
REMARK                         _______ _______ _______ _____ _____    ______ ____
ROOT
ATOM      1  C   UNL     1      44.218   5.581  12.192  0.00  0.00    +0.000 C 
ATOM      2  F   UNL     1      43.255   5.565  13.173  0.00  0.00    +0.000 F 
ATOM      3  F   UNL     1      45.158   4.682  12.615  0.00  0.00    +0.000 F 
ENDROOT
BRANCH   1   4
ATOM      4  C   UNL     1      44.823   6.972  12.062  0.00  0.00    +0.000 A 
ATOM      5  C   UNL     1      44.165   8.054  11.465  0.00  0.00    +0.000 A 
ATOM      6  C   UNL     1      44.806   9.283  11.402  0.00  0.00    +0.000 A 
ATOM      7  N   UNL     1      46.039   9.520  11.895  0.00  0.00    +0.000 NA
ATOM      8  C   UNL     1      46.664   8.474  12.466  0.00  0.00    +0.000 A 
ATOM      9  C   UNL     1      46.114   7.202  12.568  0.00  0.00    +0.000 A 
BRANCH   8  10
ATOM     10  O   UNL     1      47.902   8.687  13.038  0.00  0.00    +0.000 OA
BRANCH  10  11
ATOM     11  C   UNL     1      48.306   7.720  14.040  0.00  0.00    +0.000 C 
ATOM     12  C   UNL     1      48.431   8.277  15.477  0.00  0.00    +0.000 C 
ATOM     13  N   UNL     1      49.704   7.507  15.694  0.00  0.00    +0.000 NA
ATOM     14  C   UNL     1      49.803   7.363  14.198  0.00  0.00    +0.000 C 
BRANCH  13  15
ATOM     15  S   UNL     1      49.766   6.217  16.776  0.00  0.00    +0.000 S 
ATOM     16  O   UNL     1      49.605   6.732  18.109  0.00  0.00    +0.000 OA
ATOM     17  O   UNL     1      48.974   5.138  16.240  0.00  0.00    +0.000 OA
BRANCH  15  18
ATOM     18  N   UNL     1      51.366   5.826  16.578  0.00  0.00    +0.000 NA
ATOM     19  H   UNL     1      51.861   6.534  16.043  0.00  0.00    +0.000 HD
ATOM     20  H   UNL     1      51.508   4.860  16.306  0.00  0.00    +0.000 HD
ENDBRANCH  15  18
ENDBRANCH  13  15
ENDBRANCH  10  11
ENDBRANCH   8  10
ENDBRANCH   1   4
BRANCH   1  21
ATOM     21  C   UNL     1      43.553   5.030  10.901  0.00  0.00    +0.000 C 
BRANCH  21  26
ATOM     22  C   UNL     1      46.426   2.670   7.597  0.00  0.00    +0.000 A 
ATOM     23  C   UNL     1      45.754   1.644   8.255  0.00  0.00    +0.000 A 
ATOM     24  C   UNL     1      44.859   1.965   9.277  0.00  0.00    +0.000 A 
ATOM     25  C   UNL     1      44.642   3.301   9.617  0.00  0.00    +0.000 A 
ATOM     26  N   UNL     1      43.777   3.586  10.684  0.00  0.00    +0.000 N 
ATOM     27  N   UNL     1      45.306   4.299   8.997  0.00  0.00    +0.000 NA
ATOM     28  C   UNL     1      46.185   3.969   8.013  0.00  0.00    +0.000 A 
ATOM     29  H   UNL     1      42.907   3.063  10.607  0.00  0.00    +0.000 HD
BRANCH  22  31
ATOM     30  N   UNL     1      47.266   3.217   5.388  0.00  0.00    +0.000 N 
ATOM     31  C   UNL     1      47.389   2.435   6.502  0.00  0.00    +0.000 C 
ATOM     32  O   UNL     1      48.283   1.607   6.604  0.00  0.00    +0.000 OA
ATOM     33  H   UNL     1      48.001   3.132   4.694  0.00  0.00    +0.000 HD
ATOM     34  H   UNL     1      46.719   4.065   5.383  0.00  0.00    +0.000 HD
ENDBRANCH  22  31
ENDBRANCH  21  26
ENDBRANCH   1  21
TORSDOF 8
ENDMDL
MODEL 8
REMARK VINA RESULT:    -7.216      1.973      2.404
REMARK INTER + INTRA:         -10.857
REMARK INTER:                 -10.357
REMARK INTRA:                  -0.500
REMARK UNBOUND:                -0.477
REMARK  Name = 
REMARK  8 active torsions:
REMARK  status: ('A' for Active; 'I' for Inactive)
REMARK    1  A    between atoms: C_2  and  C_4
REMARK    2  A    between atoms: N_8  and  C_9
REMARK    3  A    between atoms: C_9  and  C_10
REMARK    4  A    between atoms: C_10  and  C_13
REMARK    5  A    between atoms: C_17  and  O_18
REMARK    6  A    between atoms: O_18  and  C_19
REMARK    7  A    between atoms: N_21  and  S_22
REMARK    8  A    between atoms: S_22  and  N_23
REMARK                            x       y       z     vdW  Elec       q    Type
REMARK                         _______ _______ _______ _____ _____    ______ ____
ROOT
ATOM      1  C   UNL     1      45.413   6.852  12.319  0.00  0.00    +0.000 C 
ATOM      2  F   UNL     1      44.762   8.045  12.526  0.00  0.00    +0.000 F 
ATOM      3  F   UNL     1      44.981   6.042  13.332  0.00  0.00    +0.000 F 
ENDROOT
BRANCH   1   4
ATOM      4  C   UNL     1      46.921   7.047  12.390  0.00  0.00    +0.000 A 
ATOM      5  C   UNL     1      47.708   7.429  11.297  0.00  0.00    +0.000 A 
ATOM      6  C   UNL     1      49.076   7.584  11.471  0.00  0.00    +0.000 A 
ATOM      7  N   UNL     1      49.716   7.399  12.644  0.00  0.00    +0.000 NA
ATOM      8  C   UNL     1      48.951   7.030  13.688  0.00  0.00    +0.000 A 
ATOM      9  C   UNL     1      47.577   6.838  13.615  0.00  0.00    +0.000 A 
BRANCH   8  10
ATOM     10  O   UNL     1      49.555   6.891  14.921  0.00  0.00    +0.000 OA
BRANCH  10  11
ATOM     11  C   UNL     1      48.750   6.254  15.947  0.00  0.00    +0.000 C 
ATOM     12  C   UNL     1      48.710   6.996  17.303  0.00  0.00    +0.000 C 
ATOM     13  N   UNL     1      48.851   5.698  18.048  0.00  0.00    +0.000 NA
ATOM     14  C   UNL     1      49.342   5.082  16.764  0.00  0.00    +0.000 C 
BRANCH  13  15
ATOM     15  S   UNL     1      47.581   5.083  18.969  0.00  0.00    +0.000 S 
ATOM     16  O   UNL     1      47.175   6.087  19.914  0.00  0.00    +0.000 OA
ATOM     17  O   UNL     1      46.666   4.406  18.084  0.00  0.00    +0.000 OA
BRANCH  15  18
ATOM     18  N   UNL     1      48.437   3.928  19.799  0.00  0.00    +0.000 NA
ATOM     19  H   UNL     1      48.636   4.222  20.752  0.00  0.00    +0.000 HD
ATOM     20  H   UNL     1      49.209   3.545  19.265  0.00  0.00    +0.000 HD
ENDBRANCH  15  18
ENDBRANCH  13  15
ENDBRANCH  10  11
ENDBRANCH   8  10
ENDBRANCH   1   4
BRANCH   1  21
ATOM     21  C   UNL     1      44.885   6.282  10.973  0.00  0.00    +0.000 C 
BRANCH  21  26
ATOM     22  C   UNL     1      46.297   2.911   7.599  0.00  0.00    +0.000 A 
ATOM     23  C   UNL     1      45.600   2.169   8.548  0.00  0.00    +0.000 A 
ATOM     24  C   UNL     1      45.069   2.820   9.663  0.00  0.00    +0.000 A 
ATOM     25  C   UNL     1      45.233   4.198   9.807  0.00  0.00    +0.000 A 
ATOM     26  N   UNL     1      44.734   4.812  10.965  0.00  0.00    +0.000 N 
ATOM     27  N   UNL     1      45.926   4.919   8.901  0.00  0.00    +0.000 NA
ATOM     28  C   UNL     1      46.448   4.268   7.828  0.00  0.00    +0.000 A 
ATOM     29  H   UNL     1      43.780   4.517  11.160  0.00  0.00    +0.000 HD
BRANCH  22  31
ATOM     30  N   UNL     1      47.183   3.168   5.356  0.00  0.00    +0.000 N 
ATOM     31  C   UNL     1      46.893   2.316   6.386  0.00  0.00    +0.000 C 
ATOM     32  O   UNL     1      47.154   1.123   6.321  0.00  0.00    +0.000 OA
ATOM     33  H   UNL     1      47.699   2.772   4.578  0.00  0.00    +0.000 HD
ATOM     34  H   UNL     1      47.222   4.168   5.479  0.00  0.00    +0.000 HD
ENDBRANCH  22  31
ENDBRANCH  21  26
ENDBRANCH   1  21
TORSDOF 8
ENDMDL
MODEL 9
REMARK VINA RESULT:    -7.206      4.179      4.961
REMARK INTER + INTRA:         -10.842
REMARK INTER:                 -10.494
REMARK INTRA:                  -0.348
REMARK UNBOUND:                -0.477
REMARK  Name = 
REMARK  8 active torsions:
REMARK  status: ('A' for Active; 'I' for Inactive)
REMARK    1  A    between atoms: C_2  and  C_4
REMARK    2  A    between atoms: N_8  and  C_9
REMARK    3  A    between atoms: C_9  and  C_10
REMARK    4  A    between atoms: C_10  and  C_13
REMARK    5  A    between atoms: C_17  and  O_18
REMARK    6  A    between atoms: O_18  and  C_19
REMARK    7  A    between atoms: N_21  and  S_22
REMARK    8  A    between atoms: S_22  and  N_23
REMARK                            x       y       z     vdW  Elec       q    Type
REMARK                         _______ _______ _______ _____ _____    ______ ____
ROOT
ATOM      1  C   UNL     1      44.409   5.012  12.322  0.00  0.00    +0.000 C 
ATOM      2  F   UNL     1      43.638   4.816  13.443  0.00  0.00    +0.000 F 
ATOM      3  F   UNL     1      45.512   4.228  12.519  0.00  0.00    +0.000 F 
ENDROOT
BRANCH   1   4
ATOM      4  C   UNL     1      44.804   6.477  12.196  0.00  0.00    +0.000 A 
ATOM      5  C   UNL     1      44.137   7.395  11.376  0.00  0.00    +0.000 A 
ATOM      6  C   UNL     1      44.576   8.711  11.338  0.00  0.00    +0.000 A 
ATOM      7  N   UNL     1      45.615   9.183  12.058  0.00  0.00    +0.000 NA
ATOM      8  C   UNL     1      46.250   8.293  12.842  0.00  0.00    +0.000 A 
ATOM      9  C   UNL     1      45.896   6.954  12.942  0.00  0.00    +0.000 A 
BRANCH   8  10
ATOM     10  O   UNL     1      47.279   8.748  13.642  0.00  0.00    +0.000 OA
BRANCH  10  11
ATOM     11  C   UNL     1      48.555   8.935  12.977  0.00  0.00    +0.000 C 
ATOM     12  C   UNL     1      48.978   7.787  12.033  0.00  0.00    +0.000 C 
ATOM     13  N   UNL     1      50.391   7.852  12.543  0.00  0.00    +0.000 NA
ATOM     14  C   UNL     1      49.865   8.609  13.733  0.00  0.00    +0.000 C 
BRANCH  13  15
ATOM     15  S   UNL     1      51.646   8.390  11.556  0.00  0.00    +0.000 S 
ATOM     16  O   UNL     1      51.659   7.595  10.358  0.00  0.00    +0.000 OA
ATOM     17  O   UNL     1      51.634   9.832  11.554  0.00  0.00    +0.000 OA
BRANCH  15  18
ATOM     18  N   UNL     1      52.914   7.891  12.504  0.00  0.00    +0.000 NA
ATOM     19  H   UNL     1      52.618   7.705  13.457  0.00  0.00    +0.000 HD
ATOM     20  H   UNL     1      53.748   8.457  12.382  0.00  0.00    +0.000 HD
ENDBRANCH  15  18
ENDBRANCH  13  15
ENDBRANCH  10  11
ENDBRANCH   8  10
ENDBRANCH   1   4
BRANCH   1  21
ATOM     21  C   UNL     1      43.607   4.442  11.120  0.00  0.00    +0.000 C 
BRANCH  21  26
ATOM     22  C   UNL     1      46.436   2.784   7.380  0.00  0.00    +0.000 A 
ATOM     23  C   UNL     1      45.963   1.624   7.987  0.00  0.00    +0.000 A 
ATOM     24  C   UNL     1      45.133   1.732   9.104  0.00  0.00    +0.000 A 
ATOM     25  C   UNL     1      44.782   2.992   9.589  0.00  0.00    +0.000 A 
ATOM     26  N   UNL     1      43.991   3.065  10.746  0.00  0.00    +0.000 N 
ATOM     27  N   UNL     1      45.253   4.120   9.018  0.00  0.00    +0.000 NA
ATOM     28  C   UNL     1      46.071   3.997   7.939  0.00  0.00    +0.000 A 
ATOM     29  H   UNL     1      43.190   2.439  10.688  0.00  0.00    +0.000 HD
BRANCH  22  31
ATOM     30  N   UNL     1      48.642   2.530   6.405  0.00  0.00    +0.000 N 
ATOM     31  C   UNL     1      47.314   2.775   6.192  0.00  0.00    +0.000 C 
ATOM     32  O   UNL     1      46.867   2.937   5.066  0.00  0.00    +0.000 OA
ATOM     33  H   UNL     1      49.215   2.407   5.577  0.00  0.00    +0.000 HD
ATOM     34  H   UNL     1      48.987   2.141   7.270  0.00  0.00    +0.000 HD
ENDBRANCH  22  31
ENDBRANCH  21  26
ENDBRANCH   1  21
TORSDOF 8
ENDMDL
