MODEL 1
REMARK VINA RESULT:    -9.110      0.000      0.000
REMARK INTER + INTRA:         -12.521
REMARK INTER:                 -11.773
REMARK INTRA:                  -0.748
REMARK UNBOUND:                -0.748
REMARK  Name = 
REMARK  5 active torsions:
REMARK  status: ('A' for Active; 'I' for Inactive)
REMARK    1  A    between atoms: C_2  and  C_4
REMARK    2  A    between atoms: C_7  and  N_8
REMARK    3  A    between atoms: N_8  and  C_9
REMARK    4  A    between atoms: C_9  and  C_10
REMARK    5  A    between atoms: C_12  and  C_13
REMARK                            x       y       z     vdW  Elec       q    Type
REMARK                         _______ _______ _______ _____ _____    ______ ____
ROOT
ATOM      1  C   UNL     1      45.107   3.954  12.475  0.00  0.00    +0.000 A 
ATOM      2  C   UNL     1      45.182   5.328  12.235  0.00  0.00    +0.000 A 
ATOM      3  C   UNL     1      46.221   6.090  12.786  0.00  0.00    +0.000 A 
ATOM      4  C   UNL     1      47.143   5.406  13.588  0.00  0.00    +0.000 A 
ATOM      5  C   UNL     1      47.005   4.040  13.778  0.00  0.00    +0.000 A 
ATOM      6  N   UNL     1      46.014   3.301  13.239  0.00  0.00    +0.000 NA
ENDROOT
BRANCH   3   7
ATOM      7  C   UNL     1      46.340   7.545  12.550  0.00  0.00    +0.000 A 
ATOM      8  C   UNL     1      47.556   8.184  12.402  0.00  0.00    +0.000 A 
ATOM      9  C   UNL     1      47.509   9.538  12.175  0.00  0.00    +0.000 A 
ATOM     10  N   UNL     1      46.365  10.236  12.105  0.00  0.00    +0.000 NA
ATOM     11  C   UNL     1      45.239   9.547  12.289  0.00  0.00    +0.000 A 
ATOM     12  N   UNL     1      44.053  10.246  12.222  0.00  0.00    +0.000 N 
ATOM     13  N   UNL     1      45.173   8.227  12.490  0.00  0.00    +0.000 NA
ATOM     14  H   UNL     1      44.191  11.094  11.691  0.00  0.00    +0.000 HD
ATOM     15  H   UNL     1      43.307   9.631  11.930  0.00  0.00    +0.000 HD
ENDBRANCH   3   7
BRANCH   1  16
ATOM     16  C   UNL     1      43.940   3.162  11.915  0.00  0.00    +0.000 C 
BRANCH  16  17
ATOM     17  N   UNL     1      43.631   3.608  10.552  0.00  0.00    +0.000 N 
ATOM     18  H   UNL     1      43.329   4.580  10.560  0.00  0.00    +0.000 HD
BRANCH  17  22
ATOM     19  C   UNL     1      46.442   2.664   7.545  0.00  0.00    +0.000 A 
ATOM     20  C   UNL     1      46.025   3.984   7.709  0.00  0.00    +0.000 A 
ATOM     21  C   UNL     1      45.072   4.304   8.684  0.00  0.00    +0.000 A 
ATOM     22  C   UNL     1      44.493   3.320   9.493  0.00  0.00    +0.000 A 
ATOM     23  C   UNL     1      44.939   1.999   9.325  0.00  0.00    +0.000 A 
ATOM     24  C   UNL     1      45.887   1.666   8.348  0.00  0.00    +0.000 A 
BRANCH  19  26
ATOM     25  N   UNL     1      47.467   2.986   5.362  0.00  0.00    +0.000 N 
ATOM     26  C   UNL     1      47.469   2.290   6.540  0.00  0.00    +0.000 C 
ATOM     27  O   UNL     1      48.309   1.429   6.764  0.00  0.00    +0.000 OA
ATOM     28  H   UNL     1      48.237   2.799   4.732  0.00  0.00    +0.000 HD
ATOM     29  H   UNL     1      46.975   3.861   5.251  0.00  0.00    +0.000 HD
ENDBRANCH  19  26
ENDBRANCH  17  22
ENDBRANCH  16  17
ENDBRANCH   1  16
TORSDOF 5
ENDMDL
MODEL 2
REMARK VINA RESULT:    -9.082      0.185      0.998
REMARK INTER + INTRA:         -12.485
REMARK INTER:                 -11.735
REMARK INTRA:                  -0.750
REMARK UNBOUND:                -0.748
REMARK  Name = 
REMARK  5 active torsions:
REMARK  status: ('A' for Active; 'I' for Inactive)
REMARK    1  A    between atoms: C_2  and  C_4
REMARK    2  A    between atoms: C_7  and  N_8
REMARK    3  A    between atoms: N_8  and  C_9
REMARK    4  A    between atoms: C_9  and  C_10
REMARK    5  A    between atoms: C_12  and  C_13
REMARK                            x       y       z     vdW  Elec       q    Type
REMARK                         _______ _______ _______ _____ _____    ______ ____
ROOT
ATOM      1  C   UNL     1      45.028   3.960  12.368  0.00  0.00    +0.000 A 
ATOM      2  C   UNL     1      45.137   5.335  12.142  0.00  0.00    +0.000 A 
ATOM      3  C   UNL     1      46.181   6.069  12.720  0.00  0.00    +0.000 A 
ATOM      4  C   UNL     1      47.073   5.358  13.534  0.00  0.00    +0.000 A 
ATOM      5  C   UNL     1      46.902   3.994  13.709  0.00  0.00    +0.000 A 
ATOM      6  N   UNL     1      45.905   3.281  13.144  0.00  0.00    +0.000 NA
ENDROOT
BRANCH   3   7
ATOM      7  C   UNL     1      46.336   7.523  12.500  0.00  0.00    +0.000 A 
ATOM      8  C   UNL     1      47.568   8.134  12.366  0.00  0.00    +0.000 A 
ATOM      9  C   UNL     1      47.554   9.492  12.153  0.00  0.00    +0.000 A 
ATOM     10  N   UNL     1      46.427  10.218  12.083  0.00  0.00    +0.000 NA
ATOM     11  C   UNL     1      45.284   9.553  12.254  0.00  0.00    +0.000 A 
ATOM     12  N   UNL     1      44.115  10.281  12.188  0.00  0.00    +0.000 N 
ATOM     13  N   UNL     1      45.186   8.234  12.441  0.00  0.00    +0.000 NA
ATOM     14  H   UNL     1      44.277  11.131  11.666  0.00  0.00    +0.000 HD
ATOM     15  H   UNL     1      43.358   9.687  11.885  0.00  0.00    +0.000 HD
ENDBRANCH   3   7
BRANCH   1  16
ATOM     16  C   UNL     1      43.856   3.199  11.777  0.00  0.00    +0.000 C 
BRANCH  16  17
ATOM     17  N   UNL     1      43.708   3.518  10.354  0.00  0.00    +0.000 N 
ATOM     18  H   UNL     1      43.378   4.474  10.239  0.00  0.00    +0.000 HD
BRANCH  17  22
ATOM     19  C   UNL     1      46.536   2.558   7.367  0.00  0.00    +0.000 A 
ATOM     20  C   UNL     1      46.042   1.553   8.199  0.00  0.00    +0.000 A 
ATOM     21  C   UNL     1      45.126   1.864   9.211  0.00  0.00    +0.000 A 
ATOM     22  C   UNL     1      44.705   3.180   9.438  0.00  0.00    +0.000 A 
ATOM     23  C   UNL     1      45.199   4.175   8.579  0.00  0.00    +0.000 A 
ATOM     24  C   UNL     1      46.121   3.876   7.567  0.00  0.00    +0.000 A 
BRANCH  19  26
ATOM     25  N   UNL     1      47.432   3.069   5.164  0.00  0.00    +0.000 N 
ATOM     26  C   UNL     1      47.488   2.262   6.267  0.00  0.00    +0.000 C 
ATOM     27  O   UNL     1      48.315   1.365   6.352  0.00  0.00    +0.000 OA
ATOM     28  H   UNL     1      48.156   2.929   4.471  0.00  0.00    +0.000 HD
ATOM     29  H   UNL     1      46.959   3.962   5.170  0.00  0.00    +0.000 HD
ENDBRANCH  19  26
ENDBRANCH  17  22
ENDBRANCH  16  17
ENDBRANCH   1  16
TORSDOF 5
ENDMDL
MODEL 3
REMARK VINA RESULT:    -8.903      2.166      3.965
REMARK INTER + INTRA:         -12.254
REMARK INTER:                 -11.744
REMARK INTRA:                  -0.510
REMARK UNBOUND:                -0.748
REMARK  Name = 
REMARK  5 active torsions:
REMARK  status: ('A' for Active; 'I' for Inactive)
REMARK    1  A    between atoms: C_2  and  C_4
REMARK    2  A    between atoms: C_7  and  N_8
REMARK    3  A    between atoms: N_8  and  C_9
REMARK    4  A    between atoms: C_9  and  C_10
REMARK    5  A    between atoms: C_12  and  C_13
REMARK                            x       y       z     vdW  Elec       q    Type
REMARK                         _______ _______ _______ _____ _____    ______ ____
ROOT
ATOM      1  C   UNL     1      45.186   5.247  12.182  0.00  0.00    +0.000 A 
ATOM      2  C   UNL     1      45.712   4.857  13.417  0.00  0.00    +0.000 A 
ATOM      3  C   UNL     1      46.858   5.480  13.928  0.00  0.00    +0.000 A 
ATOM      4  C   UNL     1      47.438   6.478  13.134  0.00  0.00    +0.000 A 
ATOM      5  C   UNL     1      46.856   6.812  11.922  0.00  0.00    +0.000 A 
ATOM      6  N   UNL     1      45.745   6.223  11.431  0.00  0.00    +0.000 NA
ENDROOT
BRANCH   3   7
ATOM      7  C   UNL     1      47.443   5.102  15.233  0.00  0.00    +0.000 A 
ATOM      8  C   UNL     1      48.514   5.768  15.796  0.00  0.00    +0.000 A 
ATOM      9  C   UNL     1      48.941   5.311  17.020  0.00  0.00    +0.000 A 
ATOM     10  N   UNL     1      48.378   4.272  17.658  0.00  0.00    +0.000 NA
ATOM     11  C   UNL     1      47.369   3.668  17.030  0.00  0.00    +0.000 A 
ATOM     12  N   UNL     1      46.779   2.598  17.668  0.00  0.00    +0.000 N 
ATOM     13  N   UNL     1      46.863   4.048  15.853  0.00  0.00    +0.000 NA
ATOM     14  H   UNL     1      46.956   2.659  18.660  0.00  0.00    +0.000 HD
ATOM     15  H   UNL     1      45.818   2.509  17.371  0.00  0.00    +0.000 HD
ENDBRANCH   3   7
BRANCH   1  16
ATOM     16  C   UNL     1      43.977   4.517  11.624  0.00  0.00    +0.000 C 
BRANCH  16  17
ATOM     17  N   UNL     1      43.889   4.716  10.174  0.00  0.00    +0.000 N 
ATOM     18  H   UNL     1      43.911   5.709   9.952  0.00  0.00    +0.000 HD
BRANCH  17  22
ATOM     19  C   UNL     1      46.395   2.326   7.756  0.00  0.00    +0.000 A 
ATOM     20  C   UNL     1      46.394   3.711   7.592  0.00  0.00    +0.000 A 
ATOM     21  C   UNL     1      45.547   4.511   8.368  0.00  0.00    +0.000 A 
ATOM     22  C   UNL     1      44.663   3.953   9.299  0.00  0.00    +0.000 A 
ATOM     23  C   UNL     1      44.691   2.558   9.462  0.00  0.00    +0.000 A 
ATOM     24  C   UNL     1      45.530   1.747   8.687  0.00  0.00    +0.000 A 
BRANCH  19  26
ATOM     25  N   UNL     1      48.394   2.035   6.400  0.00  0.00    +0.000 N 
ATOM     26  C   UNL     1      47.297   1.448   6.970  0.00  0.00    +0.000 C 
ATOM     27  O   UNL     1      47.099   0.245   6.866  0.00  0.00    +0.000 OA
ATOM     28  H   UNL     1      49.058   1.410   5.962  0.00  0.00    +0.000 HD
ATOM     29  H   UNL     1      48.726   2.947   6.680  0.00  0.00    +0.000 HD
ENDBRANCH  19  26
ENDBRANCH  17  22
ENDBRANCH  16  17
ENDBRANCH   1  16
TORSDOF 5
ENDMDL
MODEL 4
REMARK VINA RESULT:    -8.704      1.878      2.517
REMARK INTER + INTRA:         -11.997
REMARK INTER:                 -11.289
REMARK INTRA:                  -0.708
REMARK UNBOUND:                -0.748
REMARK  Name = 
REMARK  5 active torsions:
REMARK  status: ('A' for Active; 'I' for Inactive)
REMARK    1  A    between atoms: C_2  and  C_4
REMARK    2  A    between atoms: C_7  and  N_8
REMARK    3  A    between atoms: N_8  and  C_9
REMARK    4  A    between atoms: C_9  and  C_10
REMARK    5  A    between atoms: C_12  and  C_13
REMARK                            x       y       z     vdW  Elec       q    Type
REMARK                         _______ _______ _______ _____ _____    ______ ____
ROOT
ATOM      1  C   UNL     1      44.817   4.972  12.090  0.00  0.00    +0.000 A 
ATOM      2  C   UNL     1      45.638   6.070  11.817  0.00  0.00    +0.000 A 
ATOM      3  C   UNL     1      46.829   6.260  12.531  0.00  0.00    +0.000 A 
ATOM      4  C   UNL     1      47.124   5.315  13.522  0.00  0.00    +0.000 A 
ATOM      5  C   UNL     1      46.262   4.251  13.733  0.00  0.00    +0.000 A 
ATOM      6  N   UNL     1      45.121   4.057  13.040  0.00  0.00    +0.000 NA
ENDROOT
BRANCH   3   7
ATOM      7  C   UNL     1      47.729   7.403  12.269  0.00  0.00    +0.000 A 
ATOM      8  C   UNL     1      47.277   8.706  12.169  0.00  0.00    +0.000 A 
ATOM      9  C   UNL     1      48.232   9.665  11.935  0.00  0.00    +0.000 A 
ATOM     10  N   UNL     1      49.539   9.390  11.797  0.00  0.00    +0.000 NA
ATOM     11  C   UNL     1      49.884   8.105  11.878  0.00  0.00    +0.000 A 
ATOM     12  N   UNL     1      51.221   7.800  11.737  0.00  0.00    +0.000 N 
ATOM     13  N   UNL     1      49.039   7.099  12.126  0.00  0.00    +0.000 NA
ATOM     14  H   UNL     1      51.776   8.615  11.954  0.00  0.00    +0.000 HD
ATOM     15  H   UNL     1      51.433   6.947  12.233  0.00  0.00    +0.000 HD
ENDBRANCH   3   7
BRANCH   1  16
ATOM     16  C   UNL     1      43.504   4.820  11.343  0.00  0.00    +0.000 C 
BRANCH  16  17
ATOM     17  N   UNL     1      43.737   4.851   9.896  0.00  0.00    +0.000 N 
ATOM     18  H   UNL     1      43.832   5.812   9.575  0.00  0.00    +0.000 HD
BRANCH  17  22
ATOM     19  C   UNL     1      46.401   2.300   7.840  0.00  0.00    +0.000 A 
ATOM     20  C   UNL     1      45.506   1.762   8.764  0.00  0.00    +0.000 A 
ATOM     21  C   UNL     1      44.638   2.602   9.473  0.00  0.00    +0.000 A 
ATOM     22  C   UNL     1      44.661   3.991   9.302  0.00  0.00    +0.000 A 
ATOM     23  C   UNL     1      45.556   4.511   8.353  0.00  0.00    +0.000 A 
ATOM     24  C   UNL     1      46.434   3.682   7.643  0.00  0.00    +0.000 A 
BRANCH  19  26
ATOM     25  N   UNL     1      48.445   2.029   6.549  0.00  0.00    +0.000 N 
ATOM     26  C   UNL     1      47.318   1.439   7.051  0.00  0.00    +0.000 C 
ATOM     27  O   UNL     1      47.103   0.246   6.888  0.00  0.00    +0.000 OA
ATOM     28  H   UNL     1      49.115   1.411   6.109  0.00  0.00    +0.000 HD
ATOM     29  H   UNL     1      48.783   2.922   6.880  0.00  0.00    +0.000 HD
ENDBRANCH  19  26
ENDBRANCH  17  22
ENDBRANCH  16  17
ENDBRANCH   1  16
TORSDOF 5
ENDMDL
MODEL 5
REMARK VINA RESULT:    -8.093      2.042      2.769
REMARK INTER + INTRA:         -11.207
REMARK INTER:                 -10.536
REMARK INTRA:                  -0.671
REMARK UNBOUND:                -0.748
REMARK  Name = 
REMARK  5 active torsions:
REMARK  status: ('A' for Active; 'I' for Inactive)
REMARK    1  A    between atoms: C_2  and  C_4
REMARK    2  A    between atoms: C_7  and  N_8
REMARK    3  A    between atoms: N_8  and  C_9
REMARK    4  A    between atoms: C_9  and  C_10
REMARK    5  A    between atoms: C_12  and  C_13
REMARK                            x       y       z     vdW  Elec       q    Type
REMARK                         _______ _______ _______ _____ _____    ______ ____
ROOT
ATOM      1  C   UNL     1      44.643   5.013  11.899  0.00  0.00    +0.000 A 
ATOM      2  C   UNL     1      45.934   5.329  12.330  0.00  0.00    +0.000 A 
ATOM      3  C   UNL     1      46.366   6.662  12.359  0.00  0.00    +0.000 A 
ATOM      4  C   UNL     1      45.451   7.628  11.920  0.00  0.00    +0.000 A 
ATOM      5  C   UNL     1      44.187   7.238  11.510  0.00  0.00    +0.000 A 
ATOM      6  N   UNL     1      43.762   5.957  11.493  0.00  0.00    +0.000 NA
ENDROOT
BRANCH   3   7
ATOM      7  C   UNL     1      47.721   7.040  12.815  0.00  0.00    +0.000 A 
ATOM      8  C   UNL     1      48.650   7.643  11.988  0.00  0.00    +0.000 A 
ATOM      9  C   UNL     1      49.863   7.947  12.555  0.00  0.00    +0.000 A 
ATOM     10  N   UNL     1      50.169   7.680  13.834  0.00  0.00    +0.000 NA
ATOM     11  C   UNL     1      49.227   7.070  14.553  0.00  0.00    +0.000 A 
ATOM     12  N   UNL     1      49.522   6.785  15.869  0.00  0.00    +0.000 N 
ATOM     13  N   UNL     1      48.008   6.754  14.106  0.00  0.00    +0.000 NA
ATOM     14  H   UNL     1      50.258   7.398  16.189  0.00  0.00    +0.000 HD
ATOM     15  H   UNL     1      48.672   6.757  16.413  0.00  0.00    +0.000 HD
ENDBRANCH   3   7
BRANCH   1  16
ATOM     16  C   UNL     1      44.218   3.558  11.823  0.00  0.00    +0.000 C 
BRANCH  16  17
ATOM     17  N   UNL     1      43.689   3.252  10.491  0.00  0.00    +0.000 N 
ATOM     18  H   UNL     1      42.915   3.875  10.267  0.00  0.00    +0.000 HD
BRANCH  17  22
ATOM     19  C   UNL     1      46.497   2.578   7.409  0.00  0.00    +0.000 A 
ATOM     20  C   UNL     1      46.006   3.865   7.626  0.00  0.00    +0.000 A 
ATOM     21  C   UNL     1      45.054   4.095   8.626  0.00  0.00    +0.000 A 
ATOM     22  C   UNL     1      44.547   3.052   9.409  0.00  0.00    +0.000 A 
ATOM     23  C   UNL     1      45.067   1.766   9.187  0.00  0.00    +0.000 A 
ATOM     24  C   UNL     1      46.015   1.523   8.185  0.00  0.00    +0.000 A 
BRANCH  19  26
ATOM     25  N   UNL     1      47.392   2.943   5.177  0.00  0.00    +0.000 N 
ATOM     26  C   UNL     1      47.526   2.300   6.376  0.00  0.00    +0.000 C 
ATOM     27  O   UNL     1      48.477   1.562   6.594  0.00  0.00    +0.000 OA
ATOM     28  H   UNL     1      48.156   2.832   4.522  0.00  0.00    +0.000 HD
ATOM     29  H   UNL     1      46.788   3.743   5.056  0.00  0.00    +0.000 HD
ENDBRANCH  19  26
ENDBRANCH  17  22
ENDBRANCH  16  17
ENDBRANCH   1  16
TORSDOF 5
ENDMDL
MODEL 6
REMARK VINA RESULT:    -8.003      2.583      6.976
REMARK INTER + INTRA:         -11.090
REMARK INTER:                 -10.321
REMARK INTRA:                  -0.769
REMARK UNBOUND:                -0.748
REMARK  Name = 
REMARK  5 active torsions:
REMARK  status: ('A' for Active; 'I' for Inactive)
REMARK    1  A    between atoms: C_2  and  C_4
REMARK    2  A    between atoms: C_7  and  N_8
REMARK    3  A    between atoms: N_8  and  C_9
REMARK    4  A    between atoms: C_9  and  C_10
REMARK    5  A    between atoms: C_12  and  C_13
REMARK                            x       y       z     vdW  Elec       q    Type
REMARK                         _______ _______ _______ _____ _____    ______ ____
ROOT
ATOM      1  C   UNL     1      43.757   5.054  10.900  0.00  0.00    +0.000 A 
ATOM      2  C   UNL     1      44.595   4.600   9.878  0.00  0.00    +0.000 A 
ATOM      3  C   UNL     1      44.786   3.226   9.675  0.00  0.00    +0.000 A 
ATOM      4  C   UNL     1      44.117   2.363  10.552  0.00  0.00    +0.000 A 
ATOM      5  C   UNL     1      43.301   2.888  11.540  0.00  0.00    +0.000 A 
ATOM      6  N   UNL     1      43.104   4.210  11.732  0.00  0.00    +0.000 NA
ENDROOT
BRANCH   3   7
ATOM      7  C   UNL     1      45.658   2.704   8.601  0.00  0.00    +0.000 A 
ATOM      8  C   UNL     1      46.226   3.514   7.636  0.00  0.00    +0.000 A 
ATOM      9  C   UNL     1      47.025   2.888   6.709  0.00  0.00    +0.000 A 
ATOM     10  N   UNL     1      47.255   1.566   6.704  0.00  0.00    +0.000 NA
ATOM     11  C   UNL     1      46.644   0.855   7.653  0.00  0.00    +0.000 A 
ATOM     12  N   UNL     1      46.867  -0.505   7.664  0.00  0.00    +0.000 N 
ATOM     13  N   UNL     1      45.869   1.368   8.613  0.00  0.00    +0.000 NA
ATOM     14  H   UNL     1      47.733  -0.708   7.186  0.00  0.00    +0.000 HD
ATOM     15  H   UNL     1      46.758  -0.862   8.602  0.00  0.00    +0.000 HD
ENDBRANCH   3   7
BRANCH   1  16
ATOM     16  C   UNL     1      43.612   6.546  11.136  0.00  0.00    +0.000 C 
BRANCH  16  17
ATOM     17  N   UNL     1      44.220   6.920  12.416  0.00  0.00    +0.000 N 
ATOM     18  H   UNL     1      43.818   6.369  13.172  0.00  0.00    +0.000 HD
BRANCH  17  22
ATOM     19  C   UNL     1      48.415   7.402  12.485  0.00  0.00    +0.000 A 
ATOM     20  C   UNL     1      47.856   6.175  12.838  0.00  0.00    +0.000 A 
ATOM     21  C   UNL     1      46.465   6.012  12.847  0.00  0.00    +0.000 A 
ATOM     22  C   UNL     1      45.602   7.069  12.535  0.00  0.00    +0.000 A 
ATOM     23  C   UNL     1      46.185   8.292  12.164  0.00  0.00    +0.000 A 
ATOM     24  C   UNL     1      47.575   8.468  12.158  0.00  0.00    +0.000 A 
BRANCH  19  26
ATOM     25  N   UNL     1      50.545   7.635  13.636  0.00  0.00    +0.000 N 
ATOM     26  C   UNL     1      49.885   7.605  12.439  0.00  0.00    +0.000 C 
ATOM     27  O   UNL     1      50.491   7.700  11.380  0.00  0.00    +0.000 OA
ATOM     28  H   UNL     1      51.556   7.663  13.589  0.00  0.00    +0.000 HD
ATOM     29  H   UNL     1      50.128   7.300  14.493  0.00  0.00    +0.000 HD
ENDBRANCH  19  26
ENDBRANCH  17  22
ENDBRANCH  16  17
ENDBRANCH   1  16
TORSDOF 5
ENDMDL
MODEL 7
REMARK VINA RESULT:    -7.403      2.941      7.355
REMARK INTER + INTRA:         -10.315
REMARK INTER:                  -9.928
REMARK INTRA:                  -0.387
REMARK UNBOUND:                -0.748
REMARK  Name = 
REMARK  5 active torsions:
REMARK  status: ('A' for Active; 'I' for Inactive)
REMARK    1  A    between atoms: C_2  and  C_4
REMARK    2  A    between atoms: C_7  and  N_8
REMARK    3  A    between atoms: N_8  and  C_9
REMARK    4  A    between atoms: C_9  and  C_10
REMARK    5  A    between atoms: C_12  and  C_13
REMARK                            x       y       z     vdW  Elec       q    Type
REMARK                         _______ _______ _______ _____ _____    ______ ____
ROOT
ATOM      1  C   UNL     1      43.898   5.033  10.970  0.00  0.00    +0.000 A 
ATOM      2  C   UNL     1      44.696   4.567   9.922  0.00  0.00    +0.000 A 
ATOM      3  C   UNL     1      44.784   3.195   9.651  0.00  0.00    +0.000 A 
ATOM      4  C   UNL     1      44.055   2.342  10.490  0.00  0.00    +0.000 A 
ATOM      5  C   UNL     1      43.283   2.879  11.508  0.00  0.00    +0.000 A 
ATOM      6  N   UNL     1      43.186   4.200  11.764  0.00  0.00    +0.000 NA
ENDROOT
BRANCH   3   7
ATOM      7  C   UNL     1      45.611   2.662   8.548  0.00  0.00    +0.000 A 
ATOM      8  C   UNL     1      46.098   3.454   7.525  0.00  0.00    +0.000 A 
ATOM      9  C   UNL     1      46.864   2.821   6.577  0.00  0.00    +0.000 A 
ATOM     10  N   UNL     1      47.137   1.507   6.603  0.00  0.00    +0.000 NA
ATOM     11  C   UNL     1      46.603   0.812   7.608  0.00  0.00    +0.000 A 
ATOM     12  N   UNL     1      46.870  -0.539   7.652  0.00  0.00    +0.000 N 
ATOM     13  N   UNL     1      45.866   1.334   8.593  0.00  0.00    +0.000 NA
ATOM     14  H   UNL     1      47.713  -0.733   7.133  0.00  0.00    +0.000 HD
ATOM     15  H   UNL     1      46.825  -0.867   8.606  0.00  0.00    +0.000 HD
ENDBRANCH   3   7
BRANCH   1  16
ATOM     16  C   UNL     1      43.866   6.519  11.279  0.00  0.00    +0.000 C 
BRANCH  16  17
ATOM     17  N   UNL     1      45.167   7.127  10.985  0.00  0.00    +0.000 N 
ATOM     18  H   UNL     1      45.040   8.027  10.528  0.00  0.00    +0.000 HD
BRANCH  17  22
ATOM     19  C   UNL     1      48.028   7.119  14.091  0.00  0.00    +0.000 A 
ATOM     20  C   UNL     1      47.699   8.317  13.460  0.00  0.00    +0.000 A 
ATOM     21  C   UNL     1      46.773   8.328  12.409  0.00  0.00    +0.000 A 
ATOM     22  C   UNL     1      46.179   7.148  11.945  0.00  0.00    +0.000 A 
ATOM     23  C   UNL     1      46.510   5.954  12.606  0.00  0.00    +0.000 A 
ATOM     24  C   UNL     1      47.440   5.931  13.654  0.00  0.00    +0.000 A 
BRANCH  19  26
ATOM     25  N   UNL     1      48.470   6.801  16.462  0.00  0.00    +0.000 N 
ATOM     26  C   UNL     1      48.986   7.072  15.225  0.00  0.00    +0.000 C 
ATOM     27  O   UNL     1      50.188   7.227  15.062  0.00  0.00    +0.000 OA
ATOM     28  H   UNL     1      49.143   6.662  17.206  0.00  0.00    +0.000 HD
ATOM     29  H   UNL     1      47.547   6.412  16.591  0.00  0.00    +0.000 HD
ENDBRANCH  19  26
ENDBRANCH  17  22
ENDBRANCH  16  17
ENDBRANCH   1  16
TORSDOF 5
ENDMDL
MODEL 8
REMARK VINA RESULT:    -7.196      4.279      7.807
REMARK INTER + INTRA:         -10.048
REMARK INTER:                  -9.403
REMARK INTRA:                  -0.644
REMARK UNBOUND:                -0.748
REMARK  Name = 
REMARK  5 active torsions:
REMARK  status: ('A' for Active; 'I' for Inactive)
REMARK    1  A    between atoms: C_2  and  C_4
REMARK    2  A    between atoms: C_7  and  N_8
REMARK    3  A    between atoms: N_8  and  C_9
REMARK    4  A    between atoms: C_9  and  C_10
REMARK    5  A    between atoms: C_12  and  C_13
REMARK                            x       y       z     vdW  Elec       q    Type
REMARK                         _______ _______ _______ _____ _____    ______ ____
ROOT
ATOM      1  C   UNL     1      47.993   6.519  14.347  0.00  0.00    +0.000 A 
ATOM      2  C   UNL     1      46.930   5.731  13.899  0.00  0.00    +0.000 A 
ATOM      3  C   UNL     1      46.522   5.786  12.559  0.00  0.00    +0.000 A 
ATOM      4  C   UNL     1      47.217   6.673  11.726  0.00  0.00    +0.000 A 
ATOM      5  C   UNL     1      48.263   7.419  12.243  0.00  0.00    +0.000 A 
ATOM      6  N   UNL     1      48.668   7.361  13.529  0.00  0.00    +0.000 NA
ENDROOT
BRANCH   3   7
ATOM      7  C   UNL     1      45.406   4.964  12.043  0.00  0.00    +0.000 A 
ATOM      8  C   UNL     1      44.606   4.187  12.859  0.00  0.00    +0.000 A 
ATOM      9  C   UNL     1      43.600   3.487  12.238  0.00  0.00    +0.000 A 
ATOM     10  N   UNL     1      43.382   3.524  10.914  0.00  0.00    +0.000 NA
ATOM     11  C   UNL     1      44.218   4.275  10.198  0.00  0.00    +0.000 A 
ATOM     12  N   UNL     1      44.012   4.325   8.836  0.00  0.00    +0.000 N 
ATOM     13  N   UNL     1      45.211   5.012  10.705  0.00  0.00    +0.000 NA
ATOM     14  H   UNL     1      43.054   4.082   8.631  0.00  0.00    +0.000 HD
ATOM     15  H   UNL     1      44.359   5.199   8.468  0.00  0.00    +0.000 HD
ENDBRANCH   3   7
BRANCH   1  16
ATOM     16  C   UNL     1      48.379   6.485  15.815  0.00  0.00    +0.000 C 
BRANCH  16  17
ATOM     17  N   UNL     1      47.936   5.228  16.426  0.00  0.00    +0.000 N 
ATOM     18  H   UNL     1      47.155   4.837  15.903  0.00  0.00    +0.000 HD
BRANCH  17  22
ATOM     19  C   UNL     1      50.905   2.386  17.397  0.00  0.00    +0.000 A 
ATOM     20  C   UNL     1      49.669   1.955  16.917  0.00  0.00    +0.000 A 
ATOM     21  C   UNL     1      48.667   2.887  16.619  0.00  0.00    +0.000 A 
ATOM     22  C   UNL     1      48.859   4.259  16.820  0.00  0.00    +0.000 A 
ATOM     23  C   UNL     1      50.118   4.674  17.286  0.00  0.00    +0.000 A 
ATOM     24  C   UNL     1      51.125   3.750  17.593  0.00  0.00    +0.000 A 
BRANCH  19  26
ATOM     25  N   UNL     1      51.636   0.190  18.146  0.00  0.00    +0.000 N 
ATOM     26  C   UNL     1      52.000   1.430  17.698  0.00  0.00    +0.000 C 
ATOM     27  O   UNL     1      53.176   1.716  17.518  0.00  0.00    +0.000 OA
ATOM     28  H   UNL     1      52.382  -0.487  18.242  0.00  0.00    +0.000 HD
ATOM     29  H   UNL     1      50.694  -0.164  18.054  0.00  0.00    +0.000 HD
ENDBRANCH  19  26
ENDBRANCH  17  22
ENDBRANCH  16  17
ENDBRANCH   1  16
TORSDOF 5
ENDMDL
MODEL 9
REMARK VINA RESULT:    -7.190      5.242      8.254
REMARK INTER + INTRA:         -10.040
REMARK INTER:                  -9.529
REMARK INTRA:                  -0.511
REMARK UNBOUND:                -0.748
REMARK  Name = 
REMARK  5 active torsions:
REMARK  status: ('A' for Active; 'I' for Inactive)
REMARK    1  A    between atoms: C_2  and  C_4
REMARK    2  A    between atoms: C_7  and  N_8
REMARK    3  A    between atoms: N_8  and  C_9
REMARK    4  A    between atoms: C_9  and  C_10
REMARK    5  A    between atoms: C_12  and  C_13
REMARK                            x       y       z     vdW  Elec       q    Type
REMARK                         _______ _______ _______ _____ _____    ______ ____
ROOT
ATOM      1  C   UNL     1      47.715   4.833  15.592  0.00  0.00    +0.000 A 
ATOM      2  C   UNL     1      46.631   4.394  14.828  0.00  0.00    +0.000 A 
ATOM      3  C   UNL     1      46.308   5.032  13.623  0.00  0.00    +0.000 A 
ATOM      4  C   UNL     1      47.108   6.121  13.254  0.00  0.00    +0.000 A 
ATOM      5  C   UNL     1      48.169   6.495  14.063  0.00  0.00    +0.000 A 
ATOM      6  N   UNL     1      48.492   5.877  15.218  0.00  0.00    +0.000 NA
ENDROOT
BRANCH   3   7
ATOM      7  C   UNL     1      45.173   4.595  12.782  0.00  0.00    +0.000 A 
ATOM      8  C   UNL     1      45.127   3.357  12.168  0.00  0.00    +0.000 A 
ATOM      9  C   UNL     1      44.001   3.086  11.428  0.00  0.00    +0.000 A 
ATOM     10  N   UNL     1      42.988   3.954  11.278  0.00  0.00    +0.000 NA
ATOM     11  C   UNL     1      43.128   5.136  11.879  0.00  0.00    +0.000 A 
ATOM     12  N   UNL     1      42.099   6.042  11.736  0.00  0.00    +0.000 N 
ATOM     13  N   UNL     1      44.168   5.490  12.640  0.00  0.00    +0.000 NA
ATOM     14  H   UNL     1      41.248   5.551  11.506  0.00  0.00    +0.000 HD
ATOM     15  H   UNL     1      42.077   6.664  12.531  0.00  0.00    +0.000 HD
ENDBRANCH   3   7
BRANCH   1  16
ATOM     16  C   UNL     1      48.010   4.163  16.922  0.00  0.00    +0.000 C 
BRANCH  16  17
ATOM     17  N   UNL     1      49.322   4.583  17.424  0.00  0.00    +0.000 N 
ATOM     18  H   UNL     1      49.215   5.122  18.281  0.00  0.00    +0.000 HD
BRANCH  17  22
ATOM     19  C   UNL     1      52.407   1.727  17.822  0.00  0.00    +0.000 A 
ATOM     20  C   UNL     1      52.662   3.064  18.123  0.00  0.00    +0.000 A 
ATOM     21  C   UNL     1      51.655   4.024  17.968  0.00  0.00    +0.000 A 
ATOM     22  C   UNL     1      50.387   3.684  17.482  0.00  0.00    +0.000 A 
ATOM     23  C   UNL     1      50.144   2.329  17.202  0.00  0.00    +0.000 A 
ATOM     24  C   UNL     1      51.146   1.361  17.348  0.00  0.00    +0.000 A 
BRANCH  19  26
ATOM     25  N   UNL     1      53.610  -0.208  16.971  0.00  0.00    +0.000 N 
ATOM     26  C   UNL     1      53.441   0.677  17.999  0.00  0.00    +0.000 C 
ATOM     27  O   UNL     1      54.144   0.624  19.000  0.00  0.00    +0.000 OA
ATOM     28  H   UNL     1      54.390  -0.848  17.055  0.00  0.00    +0.000 HD
ATOM     29  H   UNL     1      53.246  -0.038  16.044  0.00  0.00    +0.000 HD
ENDBRANCH  19  26
ENDBRANCH  17  22
ENDBRANCH  16  17
ENDBRANCH   1  16
TORSDOF 5
ENDMDL
