MODEL 1
REMARK VINA RESULT:    -9.469      0.000      0.000
REMARK INTER + INTRA:         -12.294
REMARK INTER:                 -11.683
REMARK INTRA:                  -0.611
REMARK UNBOUND:                -0.611
REMARK  Name = 
REMARK  5 active torsions:
REMARK  status: ('A' for Active; 'I' for Inactive)
REMARK    1  A    between atoms: C_1  and  O_2
REMARK    2  A    between atoms: O_2  and  C_3
REMARK    3  A    between atoms: C_5  and  C_6
REMARK    4  A    between atoms: C_6  and  N_7
REMARK    5  A    between atoms: C_11  and  C_12
REMARK                            x       y       z     vdW  Elec       q    Type
REMARK                         _______ _______ _______ _____ _____    ______ ____
ROOT
ATOM      1  C   UNL     1      44.169   5.002  11.343  0.00  0.00    +0.000 C 
ATOM      2  C   UNL     1      42.855   5.541  11.904  0.00  0.00    +0.000 C 
ATOM      3  C   UNL     1      43.005   4.077  11.683  0.00  0.00    +0.000 C 
ENDROOT
BRANCH   1   6
ATOM      4  C   UNL     1      46.869   4.250  13.845  0.00  0.00    +0.000 A 
ATOM      5  C   UNL     1      45.695   4.084  13.158  0.00  0.00    +0.000 A 
ATOM      6  C   UNL     1      45.337   5.125  12.319  0.00  0.00    +0.000 A 
ATOM      7  N   UNL     1      46.071   6.251  12.263  0.00  0.00    +0.000 NA
ATOM      8  C   UNL     1      47.194   6.332  12.976  0.00  0.00    +0.000 A 
ATOM      9  N   UNL     1      47.900   7.497  12.924  0.00  0.00    +0.000 N 
ATOM     10  C   UNL     1      49.303   7.557  13.306  0.00  0.00    +0.000 C 
ATOM     11  C   UNL     1      49.542   8.889  14.029  0.00  0.00    +0.000 C 
ATOM     12  O   UNL     1      49.117  10.015  13.233  0.00  0.00    +0.000 OA
ATOM     13  C   UNL     1      47.714   9.909  12.921  0.00  0.00    +0.000 C 
ATOM     14  C   UNL     1      47.408   8.624  12.142  0.00  0.00    +0.000 C 
ATOM     15  N   UNL     1      47.634   5.343  13.761  0.00  0.00    +0.000 NA
BRANCH   4  17
ATOM     16  C   UNL     1      47.645   3.612  15.955  0.00  0.00    +0.000 C 
ATOM     17  O   UNL     1      47.275   3.195  14.643  0.00  0.00    +0.000 OA
ENDBRANCH   4  17
ENDBRANCH   1   6
BRANCH   1  18
ATOM     18  N   UNL     1      44.520   5.192   9.921  0.00  0.00    +0.000 N 
ATOM     19  C   UNL     1      45.300   4.284   9.187  0.00  0.00    +0.000 A 
ATOM     20  C   UNL     1      45.353   2.922   9.462  0.00  0.00    +0.000 A 
ATOM     21  C   UNL     1      46.017   2.056   8.591  0.00  0.00    +0.000 A 
ATOM     22  C   UNL     1      46.647   2.562   7.460  0.00  0.00    +0.000 A 
ATOM     23  C   UNL     1      46.591   3.938   7.283  0.00  0.00    +0.000 A 
ATOM     24  N   UNL     1      45.934   4.795   8.109  0.00  0.00    +0.000 NA
ATOM     25  H   UNL     1      44.771   6.123   9.601  0.00  0.00    +0.000 HD
BRANCH  22  26
ATOM     26  C   UNL     1      47.300   1.611   6.526  0.00  0.00    +0.000 C 
ATOM     27  N   UNL     1      48.203   2.086   5.620  0.00  0.00    +0.000 N 
ATOM     28  O   UNL     1      47.032   0.418   6.551  0.00  0.00    +0.000 OA
ATOM     29  H   UNL     1      48.486   3.045   5.504  0.00  0.00    +0.000 HD
ATOM     30  H   UNL     1      48.603   1.402   4.986  0.00  0.00    +0.000 HD
ENDBRANCH  22  26
ENDBRANCH   1  18
TORSDOF 4
ENDMDL
MODEL 2
REMARK VINA RESULT:    -7.137      1.300      3.394
REMARK INTER + INTRA:          -9.417
REMARK INTER:                  -9.066
REMARK INTRA:                  -0.351
REMARK UNBOUND:                -0.611
REMARK  Name = 
REMARK  5 active torsions:
REMARK  status: ('A' for Active; 'I' for Inactive)
REMARK    1  A    between atoms: C_1  and  O_2
REMARK    2  A    between atoms: O_2  and  C_3
REMARK    3  A    between atoms: C_5  and  C_6
REMARK    4  A    between atoms: C_6  and  N_7
REMARK    5  A    between atoms: C_11  and  C_12
REMARK                            x       y       z     vdW  Elec       q    Type
REMARK                         _______ _______ _______ _____ _____    ______ ____
ROOT
ATOM      1  C   UNL     1      44.506   4.883  11.743  0.00  0.00    +0.000 C 
ATOM      2  C   UNL     1      43.254   5.089  12.593  0.00  0.00    +0.000 C 
ATOM      3  C   UNL     1      43.807   3.717  12.433  0.00  0.00    +0.000 C 
ENDROOT
BRANCH   1   6
ATOM      4  C   UNL     1      47.409   7.122  12.567  0.00  0.00    +0.000 A 
ATOM      5  C   UNL     1      46.408   6.569  11.811  0.00  0.00    +0.000 A 
ATOM      6  C   UNL     1      45.766   5.478  12.370  0.00  0.00    +0.000 A 
ATOM      7  N   UNL     1      46.171   4.963  13.544  0.00  0.00    +0.000 NA
ATOM      8  C   UNL     1      47.163   5.558  14.208  0.00  0.00    +0.000 A 
ATOM      9  N   UNL     1      47.574   4.995  15.379  0.00  0.00    +0.000 N 
ATOM     10  C   UNL     1      48.327   5.753  16.367  0.00  0.00    +0.000 C 
ATOM     11  C   UNL     1      49.374   4.817  16.986  0.00  0.00    +0.000 C 
ATOM     12  O   UNL     1      48.772   3.620  17.521  0.00  0.00    +0.000 OA
ATOM     13  C   UNL     1      48.073   2.902  16.485  0.00  0.00    +0.000 C 
ATOM     14  C   UNL     1      46.968   3.759  15.857  0.00  0.00    +0.000 C 
ATOM     15  N   UNL     1      47.790   6.650  13.759  0.00  0.00    +0.000 NA
BRANCH   4  17
ATOM     16  C   UNL     1      48.951   8.832  12.966  0.00  0.00    +0.000 C 
ATOM     17  O   UNL     1      48.023   8.250  12.054  0.00  0.00    +0.000 OA
ENDBRANCH   4  17
ENDBRANCH   1   6
BRANCH   1  18
ATOM     18  N   UNL     1      44.443   4.964  10.270  0.00  0.00    +0.000 N 
ATOM     19  C   UNL     1      45.208   4.155   9.414  0.00  0.00    +0.000 A 
ATOM     20  C   UNL     1      45.644   2.878   9.754  0.00  0.00    +0.000 A 
ATOM     21  C   UNL     1      46.257   2.069   8.796  0.00  0.00    +0.000 A 
ATOM     22  C   UNL     1      46.454   2.550   7.507  0.00  0.00    +0.000 A 
ATOM     23  C   UNL     1      46.037   3.852   7.262  0.00  0.00    +0.000 A 
ATOM     24  N   UNL     1      45.421   4.649   8.176  0.00  0.00    +0.000 NA
ATOM     25  H   UNL     1      44.383   5.880   9.834  0.00  0.00    +0.000 HD
BRANCH  22  26
ATOM     26  C   UNL     1      47.061   1.648   6.497  0.00  0.00    +0.000 C 
ATOM     27  N   UNL     1      47.767   2.191   5.462  0.00  0.00    +0.000 N 
ATOM     28  O   UNL     1      46.929   0.434   6.575  0.00  0.00    +0.000 OA
ATOM     29  H   UNL     1      47.925   3.170   5.295  0.00  0.00    +0.000 HD
ATOM     30  H   UNL     1      48.140   1.535   4.784  0.00  0.00    +0.000 HD
ENDBRANCH  22  26
ENDBRANCH   1  18
TORSDOF 4
ENDMDL
