MODEL 1
REMARK VINA RESULT:    -9.487      0.000      0.000
REMARK INTER + INTRA:         -13.502
REMARK INTER:                 -12.814
REMARK INTRA:                  -0.687
REMARK UNBOUND:                -0.687
REMARK  Name = 
REMARK  9 active torsions:
REMARK  status: ('A' for Active; 'I' for Inactive)
REMARK    1  A    between atoms: C_1  and  C_2
REMARK    2  A    between atoms: C_5  and  N_6
REMARK    3  A    between atoms: N_6  and  C_7
REMARK    4  A    between atoms: C_7  and  C_8
REMARK    5  A    between atoms: C_8  and  C_9
REMARK    6  A    between atoms: C_8  and  C_10
REMARK    7  A    between atoms: C_8  and  C_11
REMARK    8  A    between atoms: N_16  and  C_17
REMARK    9  A    between atoms: C_25  and  C_26
REMARK                            x       y       z     vdW  Elec       q    Type
REMARK                         _______ _______ _______ _____ _____    ______ ____
ROOT
ATOM      1  C   UNL     1      43.801   5.792  11.803  0.00  0.00    +0.000 C 
ATOM      2  C   UNL     1      43.559   7.220  11.272  0.00  0.00    +0.000 C 
ATOM      3  C   UNL     1      42.775   5.501  12.926  0.00  0.00    +0.000 C 
ENDROOT
BRANCH   1   4
ATOM      4  C   UNL     1      45.226   5.673  12.370  0.00  0.00    +0.000 A 
ATOM      5  C   UNL     1      46.261   6.423  11.842  0.00  0.00    +0.000 A 
ATOM      6  C   UNL     1      47.491   6.271  12.431  0.00  0.00    +0.000 A 
ATOM      7  N   UNL     1      47.720   5.448  13.465  0.00  0.00    +0.000 NA
ATOM      8  C   UNL     1      46.685   4.727  13.906  0.00  0.00    +0.000 A 
ATOM      9  N   UNL     1      46.873   3.819  14.952  0.00  0.00    +0.000 N 
ATOM     10  N   UNL     1      45.443   4.812  13.395  0.00  0.00    +0.000 NA
ATOM     11  H   UNL     1      45.946   3.540  15.257  0.00  0.00    +0.000 HD
BRANCH   9  12
ATOM     12  C   UNL     1      47.833   4.018  15.992  0.00  0.00    +0.000 C 
ATOM     13  C   UNL     1      48.430   2.722  16.581  0.00  0.00    +0.000 C 
ATOM     14  C   UNL     1      48.309   3.385  17.969  0.00  0.00    +0.000 C 
ATOM     15  F   UNL     1      47.956   2.569  18.986  0.00  0.00    +0.000 F 
ATOM     16  F   UNL     1      49.400   4.072  18.380  0.00  0.00    +0.000 F 
ATOM     17  C   UNL     1      47.174   4.249  17.370  0.00  0.00    +0.000 C 
ENDBRANCH   9  12
ENDBRANCH   1   4
BRANCH   1  18
ATOM     18  C   UNL     1      43.521   4.752  10.676  0.00  0.00    +0.000 C 
BRANCH  18  19
ATOM     19  N   UNL     1      44.408   4.911   9.519  0.00  0.00    +0.000 N 
ATOM     20  H   UNL     1      45.121   5.626   9.686  0.00  0.00    +0.000 HD
BRANCH  19  25
ATOM     21  C   UNL     1      46.816   0.143   7.589  0.00  0.00    +0.000 C 
ATOM     22  C   UNL     1      46.183   1.445   7.989  0.00  0.00    +0.000 A 
ATOM     23  N   UNL     1      45.328   1.368   9.043  0.00  0.00    +0.000 NA
ATOM     24  C   UNL     1      44.762   2.519   9.479  0.00  0.00    +0.000 A 
ATOM     25  C   UNL     1      44.963   3.778   8.914  0.00  0.00    +0.000 A 
ATOM     26  C   UNL     1      45.850   3.822   7.839  0.00  0.00    +0.000 A 
ATOM     27  C   UNL     1      46.452   2.655   7.343  0.00  0.00    +0.000 A 
BRANCH  27  28
ATOM     28  C   UNL     1      47.391   2.741   6.191  0.00  0.00    +0.000 C 
ATOM     29  N   UNL     1      48.729   2.622   6.457  0.00  0.00    +0.000 N 
ATOM     30  O   UNL     1      47.013   2.924   5.045  0.00  0.00    +0.000 OA
ATOM     31  H   UNL     1      49.123   2.663   7.387  0.00  0.00    +0.000 HD
ATOM     32  H   UNL     1      49.355   2.758   5.671  0.00  0.00    +0.000 HD
ENDBRANCH  27  28
ENDBRANCH  19  25
ENDBRANCH  18  19
ENDBRANCH   1  18
TORSDOF 6
ENDMDL
MODEL 2
REMARK VINA RESULT:    -9.050      1.219      1.633
REMARK INTER + INTRA:         -12.912
REMARK INTER:                 -12.268
REMARK INTRA:                  -0.644
REMARK UNBOUND:                -0.687
REMARK  Name = 
REMARK  9 active torsions:
REMARK  status: ('A' for Active; 'I' for Inactive)
REMARK    1  A    between atoms: C_1  and  C_2
REMARK    2  A    between atoms: C_5  and  N_6
REMARK    3  A    between atoms: N_6  and  C_7
REMARK    4  A    between atoms: C_7  and  C_8
REMARK    5  A    between atoms: C_8  and  C_9
REMARK    6  A    between atoms: C_8  and  C_10
REMARK    7  A    between atoms: C_8  and  C_11
REMARK    8  A    between atoms: N_16  and  C_17
REMARK    9  A    between atoms: C_25  and  C_26
REMARK                            x       y       z     vdW  Elec       q    Type
REMARK                         _______ _______ _______ _____ _____    ______ ____
ROOT
ATOM      1  C   UNL     1      43.641   5.162  12.040  0.00  0.00    +0.000 C 
ATOM      2  C   UNL     1      43.343   6.447  11.240  0.00  0.00    +0.000 C 
ATOM      3  C   UNL     1      42.659   5.084  13.235  0.00  0.00    +0.000 C 
ENDROOT
BRANCH   1   4
ATOM      4  C   UNL     1      45.085   5.191  12.567  0.00  0.00    +0.000 A 
ATOM      5  C   UNL     1      46.032   6.018  11.991  0.00  0.00    +0.000 A 
ATOM      6  C   UNL     1      47.287   5.996  12.547  0.00  0.00    +0.000 A 
ATOM      7  N   UNL     1      47.618   5.226  13.594  0.00  0.00    +0.000 NA
ATOM      8  C   UNL     1      46.667   4.425  14.083  0.00  0.00    +0.000 A 
ATOM      9  N   UNL     1      46.967   3.566  15.145  0.00  0.00    +0.000 N 
ATOM     10  N   UNL     1      45.410   4.381  13.606  0.00  0.00    +0.000 NA
ATOM     11  H   UNL     1      46.078   3.212  15.484  0.00  0.00    +0.000 HD
BRANCH   9  12
ATOM     12  C   UNL     1      47.931   3.882  16.151  0.00  0.00    +0.000 C 
ATOM     13  C   UNL     1      48.604   2.659  16.811  0.00  0.00    +0.000 C 
ATOM     14  C   UNL     1      48.471   3.404  18.155  0.00  0.00    +0.000 C 
ATOM     15  F   UNL     1      48.177   2.639  19.230  0.00  0.00    +0.000 F 
ATOM     16  F   UNL     1      49.532   4.170  18.500  0.00  0.00    +0.000 F 
ATOM     17  C   UNL     1      47.284   4.169  17.524  0.00  0.00    +0.000 C 
ENDBRANCH   9  12
ENDBRANCH   1   4
BRANCH   1  18
ATOM     18  C   UNL     1      43.355   3.909  11.157  0.00  0.00    +0.000 C 
BRANCH  18  19
ATOM     19  N   UNL     1      44.545   3.081  10.939  0.00  0.00    +0.000 N 
ATOM     20  H   UNL     1      44.395   2.117  11.246  0.00  0.00    +0.000 HD
BRANCH  19  25
ATOM     21  C   UNL     1      46.701   3.458   5.698  0.00  0.00    +0.000 C 
ATOM     22  C   UNL     1      46.218   3.285   7.109  0.00  0.00    +0.000 A 
ATOM     23  N   UNL     1      45.574   4.360   7.633  0.00  0.00    +0.000 NA
ATOM     24  C   UNL     1      45.075   4.246   8.887  0.00  0.00    +0.000 A 
ATOM     25  C   UNL     1      45.196   3.121   9.701  0.00  0.00    +0.000 A 
ATOM     26  C   UNL     1      45.858   2.033   9.132  0.00  0.00    +0.000 A 
ATOM     27  C   UNL     1      46.403   2.106   7.840  0.00  0.00    +0.000 A 
BRANCH  27  28
ATOM     28  C   UNL     1      47.106   0.927   7.267  0.00  0.00    +0.000 C 
ATOM     29  N   UNL     1      46.673  -0.315   7.652  0.00  0.00    +0.000 N 
ATOM     30  O   UNL     1      48.044   1.030   6.493  0.00  0.00    +0.000 OA
ATOM     31  H   UNL     1      46.041  -0.474   8.425  0.00  0.00    +0.000 HD
ATOM     32  H   UNL     1      47.212  -1.102   7.310  0.00  0.00    +0.000 HD
ENDBRANCH  27  28
ENDBRANCH  19  25
ENDBRANCH  18  19
ENDBRANCH   1  18
TORSDOF 6
ENDMDL
MODEL 3
REMARK VINA RESULT:    -8.435      2.855      3.874
REMARK INTER + INTRA:         -12.081
REMARK INTER:                 -11.225
REMARK INTRA:                  -0.856
REMARK UNBOUND:                -0.687
REMARK  Name = 
REMARK  9 active torsions:
REMARK  status: ('A' for Active; 'I' for Inactive)
REMARK    1  A    between atoms: C_1  and  C_2
REMARK    2  A    between atoms: C_5  and  N_6
REMARK    3  A    between atoms: N_6  and  C_7
REMARK    4  A    between atoms: C_7  and  C_8
REMARK    5  A    between atoms: C_8  and  C_9
REMARK    6  A    between atoms: C_8  and  C_10
REMARK    7  A    between atoms: C_8  and  C_11
REMARK    8  A    between atoms: N_16  and  C_17
REMARK    9  A    between atoms: C_25  and  C_26
REMARK                            x       y       z     vdW  Elec       q    Type
REMARK                         _______ _______ _______ _____ _____    ______ ____
ROOT
ATOM      1  C   UNL     1      43.720   5.636  11.820  0.00  0.00    +0.000 C 
ATOM      2  C   UNL     1      43.506   7.049  11.239  0.00  0.00    +0.000 C 
ATOM      3  C   UNL     1      42.663   5.389  12.925  0.00  0.00    +0.000 C 
ENDROOT
BRANCH   1   4
ATOM      4  C   UNL     1      45.129   5.522  12.427  0.00  0.00    +0.000 A 
ATOM      5  C   UNL     1      45.642   4.292  12.795  0.00  0.00    +0.000 A 
ATOM      6  C   UNL     1      46.917   4.285  13.302  0.00  0.00    +0.000 A 
ATOM      7  N   UNL     1      47.661   5.392  13.450  0.00  0.00    +0.000 NA
ATOM      8  C   UNL     1      47.094   6.552  13.106  0.00  0.00    +0.000 A 
ATOM      9  N   UNL     1      47.804   7.744  13.280  0.00  0.00    +0.000 N 
ATOM     10  N   UNL     1      45.853   6.657  12.598  0.00  0.00    +0.000 NA
ATOM     11  H   UNL     1      47.287   8.459  12.778  0.00  0.00    +0.000 HD
BRANCH   9  12
ATOM     12  C   UNL     1      49.227   7.824  13.177  0.00  0.00    +0.000 C 
ATOM     13  C   UNL     1      49.786   9.253  13.002  0.00  0.00    +0.000 C 
ATOM     14  C   UNL     1      50.770   8.662  11.971  0.00  0.00    +0.000 C 
ATOM     15  F   UNL     1      51.040   9.439  10.899  0.00  0.00    +0.000 F 
ATOM     16  F   UNL     1      51.961   8.260  12.472  0.00  0.00    +0.000 F 
ATOM     17  C   UNL     1      49.735   7.534  11.747  0.00  0.00    +0.000 C 
ENDBRANCH   9  12
ENDBRANCH   1   4
BRANCH   1  18
ATOM     18  C   UNL     1      43.459   4.564  10.719  0.00  0.00    +0.000 C 
BRANCH  18  19
ATOM     19  N   UNL     1      44.270   4.773   9.515  0.00  0.00    +0.000 N 
ATOM     20  H   UNL     1      44.939   5.536   9.639  0.00  0.00    +0.000 HD
BRANCH  19  25
ATOM     21  C   UNL     1      46.858   0.142   7.487  0.00  0.00    +0.000 C 
ATOM     22  C   UNL     1      46.176   1.410   7.914  0.00  0.00    +0.000 A 
ATOM     23  N   UNL     1      45.322   1.278   8.962  0.00  0.00    +0.000 NA
ATOM     24  C   UNL     1      44.712   2.397   9.422  0.00  0.00    +0.000 A 
ATOM     25  C   UNL     1      44.868   3.675   8.887  0.00  0.00    +0.000 A 
ATOM     26  C   UNL     1      45.755   3.777   7.816  0.00  0.00    +0.000 A 
ATOM     27  C   UNL     1      46.402   2.644   7.296  0.00  0.00    +0.000 A 
BRANCH  27  28
ATOM     28  C   UNL     1      47.340   2.791   6.150  0.00  0.00    +0.000 C 
ATOM     29  N   UNL     1      48.682   2.785   6.427  0.00  0.00    +0.000 N 
ATOM     30  O   UNL     1      46.959   2.927   4.998  0.00  0.00    +0.000 OA
ATOM     31  H   UNL     1      49.063   2.871   7.360  0.00  0.00    +0.000 HD
ATOM     32  H   UNL     1      49.301   2.961   5.644  0.00  0.00    +0.000 HD
ENDBRANCH  27  28
ENDBRANCH  19  25
ENDBRANCH  18  19
ENDBRANCH   1  18
TORSDOF 6
ENDMDL
MODEL 4
REMARK VINA RESULT:    -8.197      3.006      3.571
REMARK INTER + INTRA:         -11.760
REMARK INTER:                 -11.033
REMARK INTRA:                  -0.727
REMARK UNBOUND:                -0.687
REMARK  Name = 
REMARK  9 active torsions:
REMARK  status: ('A' for Active; 'I' for Inactive)
REMARK    1  A    between atoms: C_1  and  C_2
REMARK    2  A    between atoms: C_5  and  N_6
REMARK    3  A    between atoms: N_6  and  C_7
REMARK    4  A    between atoms: C_7  and  C_8
REMARK    5  A    between atoms: C_8  and  C_9
REMARK    6  A    between atoms: C_8  and  C_10
REMARK    7  A    between atoms: C_8  and  C_11
REMARK    8  A    between atoms: N_16  and  C_17
REMARK    9  A    between atoms: C_25  and  C_26
REMARK                            x       y       z     vdW  Elec       q    Type
REMARK                         _______ _______ _______ _____ _____    ______ ____
ROOT
ATOM      1  C   UNL     1      44.135   5.002  12.041  0.00  0.00    +0.000 C 
ATOM      2  C   UNL     1      42.991   5.140  13.067  0.00  0.00    +0.000 C 
ATOM      3  C   UNL     1      45.026   3.803  12.451  0.00  0.00    +0.000 C 
ENDROOT
BRANCH   1   4
ATOM      4  C   UNL     1      44.984   6.284  12.021  0.00  0.00    +0.000 A 
ATOM      5  C   UNL     1      44.393   7.520  11.827  0.00  0.00    +0.000 A 
ATOM      6  C   UNL     1      45.227   8.610  11.852  0.00  0.00    +0.000 A 
ATOM      7  N   UNL     1      46.551   8.524  12.051  0.00  0.00    +0.000 NA
ATOM      8  C   UNL     1      47.063   7.299  12.198  0.00  0.00    +0.000 A 
ATOM      9  N   UNL     1      48.443   7.144  12.364  0.00  0.00    +0.000 N 
ATOM     10  N   UNL     1      46.325   6.174  12.192  0.00  0.00    +0.000 NA
ATOM     11  H   UNL     1      48.589   6.184  12.657  0.00  0.00    +0.000 HD
BRANCH   9  12
ATOM     12  C   UNL     1      49.263   8.119  13.012  0.00  0.00    +0.000 C 
ATOM     13  C   UNL     1      50.696   8.237  12.450  0.00  0.00    +0.000 C 
ATOM     14  C   UNL     1      51.179   8.359  13.911  0.00  0.00    +0.000 C 
ATOM     15  F   UNL     1      52.351   7.752  14.199  0.00  0.00    +0.000 F 
ATOM     16  F   UNL     1      51.265   9.622  14.389  0.00  0.00    +0.000 F 
ATOM     17  C   UNL     1      49.900   7.587  14.314  0.00  0.00    +0.000 C 
ENDBRANCH   9  12
ENDBRANCH   1   4
BRANCH   1  18
ATOM     18  C   UNL     1      43.552   4.653  10.638  0.00  0.00    +0.000 C 
BRANCH  18  19
ATOM     19  N   UNL     1      44.526   4.826   9.556  0.00  0.00    +0.000 N 
ATOM     20  H   UNL     1      45.271   5.476   9.819  0.00  0.00    +0.000 HD
BRANCH  19  25
ATOM     21  C   UNL     1      46.783   0.061   7.445  0.00  0.00    +0.000 C 
ATOM     22  C   UNL     1      46.192   1.366   7.894  0.00  0.00    +0.000 A 
ATOM     23  N   UNL     1      45.333   1.277   8.943  0.00  0.00    +0.000 NA
ATOM     24  C   UNL     1      44.803   2.427   9.424  0.00  0.00    +0.000 A 
ATOM     25  C   UNL     1      45.045   3.700   8.908  0.00  0.00    +0.000 A 
ATOM     26  C   UNL     1      45.934   3.758   7.835  0.00  0.00    +0.000 A 
ATOM     27  C   UNL     1      46.500   2.591   7.295  0.00  0.00    +0.000 A 
BRANCH  27  28
ATOM     28  C   UNL     1      47.443   2.692   6.148  0.00  0.00    +0.000 C 
ATOM     29  N   UNL     1      48.783   2.673   6.428  0.00  0.00    +0.000 N 
ATOM     30  O   UNL     1      47.066   2.801   4.992  0.00  0.00    +0.000 OA
ATOM     31  H   UNL     1      49.164   2.779   7.359  0.00  0.00    +0.000 HD
ATOM     32  H   UNL     1      49.407   2.818   5.642  0.00  0.00    +0.000 HD
ENDBRANCH  27  28
ENDBRANCH  19  25
ENDBRANCH  18  19
ENDBRANCH   1  18
TORSDOF 6
ENDMDL
MODEL 5
REMARK VINA RESULT:    -7.623      2.095      2.494
REMARK INTER + INTRA:         -10.984
REMARK INTER:                 -10.383
REMARK INTRA:                  -0.601
REMARK UNBOUND:                -0.687
REMARK  Name = 
REMARK  9 active torsions:
REMARK  status: ('A' for Active; 'I' for Inactive)
REMARK    1  A    between atoms: C_1  and  C_2
REMARK    2  A    between atoms: C_5  and  N_6
REMARK    3  A    between atoms: N_6  and  C_7
REMARK    4  A    between atoms: C_7  and  C_8
REMARK    5  A    between atoms: C_8  and  C_9
REMARK    6  A    between atoms: C_8  and  C_10
REMARK    7  A    between atoms: C_8  and  C_11
REMARK    8  A    between atoms: N_16  and  C_17
REMARK    9  A    between atoms: C_25  and  C_26
REMARK                            x       y       z     vdW  Elec       q    Type
REMARK                         _______ _______ _______ _____ _____    ______ ____
ROOT
ATOM      1  C   UNL     1      45.230   6.007  11.737  0.00  0.00    +0.000 C 
ATOM      2  C   UNL     1      43.761   6.472  11.794  0.00  0.00    +0.000 C 
ATOM      3  C   UNL     1      45.340   4.626  12.429  0.00  0.00    +0.000 C 
ENDROOT
BRANCH   1   4
ATOM      4  C   UNL     1      46.133   7.017  12.466  0.00  0.00    +0.000 A 
ATOM      5  C   UNL     1      45.821   8.364  12.477  0.00  0.00    +0.000 A 
ATOM      6  C   UNL     1      46.670   9.185  13.176  0.00  0.00    +0.000 A 
ATOM      7  N   UNL     1      47.756   8.744  13.828  0.00  0.00    +0.000 NA
ATOM      8  C   UNL     1      48.020   7.436  13.749  0.00  0.00    +0.000 A 
ATOM      9  N   UNL     1      49.164   6.925  14.371  0.00  0.00    +0.000 N 
ATOM     10  N   UNL     1      47.245   6.555  13.092  0.00  0.00    +0.000 NA
ATOM     11  H   UNL     1      49.064   5.915  14.364  0.00  0.00    +0.000 HD
BRANCH   9  12
ATOM     12  C   UNL     1      49.716   7.484  15.565  0.00  0.00    +0.000 C 
ATOM     13  C   UNL     1      50.610   6.523  16.377  0.00  0.00    +0.000 C 
ATOM     14  C   UNL     1      49.939   7.089  17.646  0.00  0.00    +0.000 C 
ATOM     15  F   UNL     1      49.702   6.202  18.637  0.00  0.00    +0.000 F 
ATOM     16  F   UNL     1      50.566   8.147  18.210  0.00  0.00    +0.000 F 
ATOM     17  C   UNL     1      48.727   7.443  16.751  0.00  0.00    +0.000 C 
ENDBRANCH   9  12
ENDBRANCH   1   4
BRANCH   1  18
ATOM     18  C   UNL     1      45.660   5.788  10.254  0.00  0.00    +0.000 C 
BRANCH  18  19
ATOM     19  N   UNL     1      44.718   4.950   9.505  0.00  0.00    +0.000 N 
ATOM     20  H   UNL     1      44.151   5.505   8.859  0.00  0.00    +0.000 HD
BRANCH  19  25
ATOM     21  C   UNL     1      46.710   0.003   7.551  0.00  0.00    +0.000 C 
ATOM     22  C   UNL     1      46.191   1.352   7.958  0.00  0.00    +0.000 A 
ATOM     23  N   UNL     1      45.338   1.345   9.015  0.00  0.00    +0.000 NA
ATOM     24  C   UNL     1      44.872   2.537   9.457  0.00  0.00    +0.000 A 
ATOM     25  C   UNL     1      45.174   3.776   8.894  0.00  0.00    +0.000 A 
ATOM     26  C   UNL     1      46.056   3.750   7.814  0.00  0.00    +0.000 A 
ATOM     27  C   UNL     1      46.556   2.538   7.312  0.00  0.00    +0.000 A 
BRANCH  27  28
ATOM     28  C   UNL     1      47.493   2.549   6.156  0.00  0.00    +0.000 C 
ATOM     29  N   UNL     1      48.831   2.439   6.426  0.00  0.00    +0.000 N 
ATOM     30  O   UNL     1      47.114   2.662   5.001  0.00  0.00    +0.000 OA
ATOM     31  H   UNL     1      49.227   2.536   7.352  0.00  0.00    +0.000 HD
ATOM     32  H   UNL     1      49.456   2.525   5.633  0.00  0.00    +0.000 HD
ENDBRANCH  27  28
ENDBRANCH  19  25
ENDBRANCH  18  19
ENDBRANCH   1  18
TORSDOF 6
ENDMDL
MODEL 6
REMARK VINA RESULT:    -7.503      3.784      5.107
REMARK INTER + INTRA:         -10.822
REMARK INTER:                 -10.383
REMARK INTRA:                  -0.440
REMARK UNBOUND:                -0.687
REMARK  Name = 
REMARK  9 active torsions:
REMARK  status: ('A' for Active; 'I' for Inactive)
REMARK    1  A    between atoms: C_1  and  C_2
REMARK    2  A    between atoms: C_5  and  N_6
REMARK    3  A    between atoms: N_6  and  C_7
REMARK    4  A    between atoms: C_7  and  C_8
REMARK    5  A    between atoms: C_8  and  C_9
REMARK    6  A    between atoms: C_8  and  C_10
REMARK    7  A    between atoms: C_8  and  C_11
REMARK    8  A    between atoms: N_16  and  C_17
REMARK    9  A    between atoms: C_25  and  C_26
REMARK                            x       y       z     vdW  Elec       q    Type
REMARK                         _______ _______ _______ _____ _____    ______ ____
ROOT
ATOM      1  C   UNL     1      45.714   5.889  11.907  0.00  0.00    +0.000 C 
ATOM      2  C   UNL     1      44.529   6.706  12.460  0.00  0.00    +0.000 C 
ATOM      3  C   UNL     1      45.540   4.411  12.336  0.00  0.00    +0.000 C 
ENDROOT
BRANCH   1   4
ATOM      4  C   UNL     1      47.039   6.431  12.470  0.00  0.00    +0.000 A 
ATOM      5  C   UNL     1      47.412   6.170  13.776  0.00  0.00    +0.000 A 
ATOM      6  C   UNL     1      48.623   6.671  14.181  0.00  0.00    +0.000 A 
ATOM      7  N   UNL     1      49.433   7.383  13.384  0.00  0.00    +0.000 NA
ATOM      8  C   UNL     1      48.999   7.629  12.144  0.00  0.00    +0.000 A 
ATOM      9  N   UNL     1      49.780   8.405  11.281  0.00  0.00    +0.000 N 
ATOM     10  N   UNL     1      47.830   7.177  11.657  0.00  0.00    +0.000 NA
ATOM     11  H   UNL     1      49.376   8.296  10.357  0.00  0.00    +0.000 HD
BRANCH   9  12
ATOM     12  C   UNL     1      51.208   8.427  11.334  0.00  0.00    +0.000 C 
ATOM     13  C   UNL     1      51.871   9.528  10.478  0.00  0.00    +0.000 C 
ATOM     14  C   UNL     1      52.925   8.476  10.074  0.00  0.00    +0.000 C 
ATOM     15  F   UNL     1      53.361   8.536   8.797  0.00  0.00    +0.000 F 
ATOM     16  F   UNL     1      54.026   8.427  10.860  0.00  0.00    +0.000 F 
ATOM     17  C   UNL     1      51.853   7.402  10.374  0.00  0.00    +0.000 C 
ENDBRANCH   9  12
ENDBRANCH   1   4
BRANCH   1  18
ATOM     18  C   UNL     1      45.683   5.897  10.348  0.00  0.00    +0.000 C 
BRANCH  18  19
ATOM     19  N   UNL     1      44.704   4.959   9.792  0.00  0.00    +0.000 N 
ATOM     20  H   UNL     1      43.981   5.443   9.252  0.00  0.00    +0.000 HD
BRANCH  19  25
ATOM     21  C   UNL     1      46.598   0.074   7.599  0.00  0.00    +0.000 C 
ATOM     22  C   UNL     1      46.115   1.414   8.073  0.00  0.00    +0.000 A 
ATOM     23  N   UNL     1      45.176   1.373   9.054  0.00  0.00    +0.000 NA
ATOM     24  C   UNL     1      44.736   2.552   9.555  0.00  0.00    +0.000 A 
ATOM     25  C   UNL     1      45.148   3.812   9.124  0.00  0.00    +0.000 A 
ATOM     26  C   UNL     1      46.116   3.820   8.120  0.00  0.00    +0.000 A 
ATOM     27  C   UNL     1      46.595   2.624   7.561  0.00  0.00    +0.000 A 
BRANCH  27  28
ATOM     28  C   UNL     1      47.626   2.671   6.489  0.00  0.00    +0.000 C 
ATOM     29  N   UNL     1      47.258   3.206   5.282  0.00  0.00    +0.000 N 
ATOM     30  O   UNL     1      48.760   2.246   6.644  0.00  0.00    +0.000 OA
ATOM     31  H   UNL     1      46.300   3.397   5.021  0.00  0.00    +0.000 HD
ATOM     32  H   UNL     1      47.951   3.160   4.543  0.00  0.00    +0.000 HD
ENDBRANCH  27  28
ENDBRANCH  19  25
ENDBRANCH  18  19
ENDBRANCH   1  18
TORSDOF 6
ENDMDL
MODEL 7
REMARK VINA RESULT:    -7.261      4.505      8.452
REMARK INTER + INTRA:         -10.495
REMARK INTER:                 -10.842
REMARK INTRA:                   0.347
REMARK UNBOUND:                -0.687
REMARK  Name = 
REMARK  9 active torsions:
REMARK  status: ('A' for Active; 'I' for Inactive)
REMARK    1  A    between atoms: C_1  and  C_2
REMARK    2  A    between atoms: C_5  and  N_6
REMARK    3  A    between atoms: N_6  and  C_7
REMARK    4  A    between atoms: C_7  and  C_8
REMARK    5  A    between atoms: C_8  and  C_9
REMARK    6  A    between atoms: C_8  and  C_10
REMARK    7  A    between atoms: C_8  and  C_11
REMARK    8  A    between atoms: N_16  and  C_17
REMARK    9  A    between atoms: C_25  and  C_26
REMARK                            x       y       z     vdW  Elec       q    Type
REMARK                         _______ _______ _______ _____ _____    ______ ____
ROOT
ATOM      1  C   UNL     1      43.965   4.564  12.243  0.00  0.00    +0.000 C 
ATOM      2  C   UNL     1      43.649   3.076  12.495  0.00  0.00    +0.000 C 
ATOM      3  C   UNL     1      42.635   5.359  12.238  0.00  0.00    +0.000 C 
ENDROOT
BRANCH   1   4
ATOM      4  C   UNL     1      44.664   4.734  10.883  0.00  0.00    +0.000 A 
ATOM      5  C   UNL     1      45.544   5.779  10.666  0.00  0.00    +0.000 A 
ATOM      6  C   UNL     1      46.141   5.832   9.432  0.00  0.00    +0.000 A 
ATOM      7  N   UNL     1      45.910   4.938   8.459  0.00  0.00    +0.000 NA
ATOM      8  C   UNL     1      45.024   3.973   8.721  0.00  0.00    +0.000 A 
ATOM      9  N   UNL     1      44.710   3.038   7.729  0.00  0.00    +0.000 N 
ATOM     10  N   UNL     1      44.393   3.838   9.901  0.00  0.00    +0.000 NA
ATOM     11  H   UNL     1      44.192   2.297   8.191  0.00  0.00    +0.000 HD
BRANCH   9  12
ATOM     12  C   UNL     1      45.645   2.614   6.736  0.00  0.00    +0.000 C 
ATOM     13  C   UNL     1      46.762   1.682   7.253  0.00  0.00    +0.000 C 
ATOM     14  C   UNL     1      47.737   2.478   6.361  0.00  0.00    +0.000 C 
ATOM     15  F   UNL     1      48.970   2.688   6.872  0.00  0.00    +0.000 F 
ATOM     16  F   UNL     1      47.910   1.989   5.111  0.00  0.00    +0.000 F 
ATOM     17  C   UNL     1      46.748   3.663   6.473  0.00  0.00    +0.000 C 
ENDBRANCH   9  12
ENDBRANCH   1   4
BRANCH   1  18
ATOM     18  C   UNL     1      44.811   5.136  13.421  0.00  0.00    +0.000 C 
BRANCH  18  19
ATOM     19  N   UNL     1      45.886   4.232  13.842  0.00  0.00    +0.000 N 
ATOM     20  H   UNL     1      46.331   3.776  13.041  0.00  0.00    +0.000 HD
BRANCH  19  25
ATOM     21  C   UNL     1      50.128   6.082  17.135  0.00  0.00    +0.000 C 
ATOM     22  C   UNL     1      48.953   5.556  16.362  0.00  0.00    +0.000 A 
ATOM     23  N   UNL     1      48.676   6.223  15.212  0.00  0.00    +0.000 NA
ATOM     24  C   UNL     1      47.655   5.766  14.448  0.00  0.00    +0.000 A 
ATOM     25  C   UNL     1      46.841   4.679  14.762  0.00  0.00    +0.000 A 
ATOM     26  C   UNL     1      47.155   4.012  15.947  0.00  0.00    +0.000 A 
ATOM     27  C   UNL     1      48.197   4.455  16.778  0.00  0.00    +0.000 A 
BRANCH  27  28
ATOM     28  C   UNL     1      48.500   3.721  18.036  0.00  0.00    +0.000 C 
ATOM     29  N   UNL     1      47.905   4.166  19.186  0.00  0.00    +0.000 N 
ATOM     30  O   UNL     1      49.257   2.763  18.074  0.00  0.00    +0.000 OA
ATOM     31  H   UNL     1      47.429   5.055  19.265  0.00  0.00    +0.000 HD
ATOM     32  H   UNL     1      48.183   3.700  20.043  0.00  0.00    +0.000 HD
ENDBRANCH  27  28
ENDBRANCH  19  25
ENDBRANCH  18  19
ENDBRANCH   1  18
TORSDOF 6
ENDMDL
MODEL 8
REMARK VINA RESULT:    -7.123      4.546      8.135
REMARK INTER + INTRA:         -10.308
REMARK INTER:                  -8.937
REMARK INTRA:                  -1.371
REMARK UNBOUND:                -0.687
REMARK  Name = 
REMARK  9 active torsions:
REMARK  status: ('A' for Active; 'I' for Inactive)
REMARK    1  A    between atoms: C_1  and  C_2
REMARK    2  A    between atoms: C_5  and  N_6
REMARK    3  A    between atoms: N_6  and  C_7
REMARK    4  A    between atoms: C_7  and  C_8
REMARK    5  A    between atoms: C_8  and  C_9
REMARK    6  A    between atoms: C_8  and  C_10
REMARK    7  A    between atoms: C_8  and  C_11
REMARK    8  A    between atoms: N_16  and  C_17
REMARK    9  A    between atoms: C_25  and  C_26
REMARK                            x       y       z     vdW  Elec       q    Type
REMARK                         _______ _______ _______ _____ _____    ______ ____
ROOT
ATOM      1  C   UNL     1      49.805   8.620  12.470  0.00  0.00    +0.000 C 
ATOM      2  C   UNL     1      49.968  10.131  12.202  0.00  0.00    +0.000 C 
ATOM      3  C   UNL     1      50.394   7.838  11.270  0.00  0.00    +0.000 C 
ENDROOT
BRANCH   1   4
ATOM      4  C   UNL     1      48.316   8.269  12.627  0.00  0.00    +0.000 A 
ATOM      5  C   UNL     1      47.358   9.265  12.694  0.00  0.00    +0.000 A 
ATOM      6  C   UNL     1      46.053   8.856  12.805  0.00  0.00    +0.000 A 
ATOM      7  N   UNL     1      45.684   7.567  12.852  0.00  0.00    +0.000 NA
ATOM      8  C   UNL     1      46.660   6.655  12.817  0.00  0.00    +0.000 A 
ATOM      9  N   UNL     1      46.338   5.297  12.907  0.00  0.00    +0.000 N 
ATOM     10  N   UNL     1      47.965   6.961  12.704  0.00  0.00    +0.000 NA
ATOM     11  H   UNL     1      47.180   4.788  12.658  0.00  0.00    +0.000 HD
BRANCH   9  12
ATOM     12  C   UNL     1      45.116   4.753  12.405  0.00  0.00    +0.000 C 
ATOM     13  C   UNL     1      45.093   3.213  12.287  0.00  0.00    +0.000 C 
ATOM     14  C   UNL     1      44.367   3.402  10.939  0.00  0.00    +0.000 C 
ATOM     15  F   UNL     1      44.701   2.532   9.960  0.00  0.00    +0.000 F 
ATOM     16  F   UNL     1      43.016   3.415  11.005  0.00  0.00    +0.000 F 
ATOM     17  C   UNL     1      45.036   4.795  10.863  0.00  0.00    +0.000 C 
ENDBRANCH   9  12
ENDBRANCH   1   4
BRANCH   1  18
ATOM     18  C   UNL     1      50.648   8.208  13.716  0.00  0.00    +0.000 C 
BRANCH  18  19
ATOM     19  N   UNL     1      49.883   8.263  14.965  0.00  0.00    +0.000 N 
ATOM     20  H   UNL     1      48.950   8.657  14.820  0.00  0.00    +0.000 HD
BRANCH  19  25
ATOM     21  C   UNL     1      50.067   3.453  17.980  0.00  0.00    +0.000 C 
ATOM     22  C   UNL     1      49.916   4.748  17.235  0.00  0.00    +0.000 A 
ATOM     23  N   UNL     1      51.083   5.362  16.907  0.00  0.00    +0.000 NA
ATOM     24  C   UNL     1      51.011   6.511  16.194  0.00  0.00    +0.000 A 
ATOM     25  C   UNL     1      49.830   7.135  15.792  0.00  0.00    +0.000 A 
ATOM     26  C   UNL     1      48.651   6.477  16.140  0.00  0.00    +0.000 A 
ATOM     27  C   UNL     1      48.674   5.289  16.889  0.00  0.00    +0.000 A 
BRANCH  27  28
ATOM     28  C   UNL     1      47.395   4.617  17.245  0.00  0.00    +0.000 C 
ATOM     29  N   UNL     1      46.761   5.029  18.387  0.00  0.00    +0.000 N 
ATOM     30  O   UNL     1      46.911   3.720  16.572  0.00  0.00    +0.000 OA
ATOM     31  H   UNL     1      47.191   5.619  19.086  0.00  0.00    +0.000 HD
ATOM     32  H   UNL     1      45.932   4.508  18.651  0.00  0.00    +0.000 HD
ENDBRANCH  27  28
ENDBRANCH  19  25
ENDBRANCH  18  19
ENDBRANCH   1  18
TORSDOF 6
ENDMDL
MODEL 9
REMARK VINA RESULT:    -7.010      2.572      4.474
REMARK INTER + INTRA:         -10.155
REMARK INTER:                  -9.167
REMARK INTRA:                  -0.989
REMARK UNBOUND:                -0.687
REMARK  Name = 
REMARK  9 active torsions:
REMARK  status: ('A' for Active; 'I' for Inactive)
REMARK    1  A    between atoms: C_1  and  C_2
REMARK    2  A    between atoms: C_5  and  N_6
REMARK    3  A    between atoms: N_6  and  C_7
REMARK    4  A    between atoms: C_7  and  C_8
REMARK    5  A    between atoms: C_8  and  C_9
REMARK    6  A    between atoms: C_8  and  C_10
REMARK    7  A    between atoms: C_8  and  C_11
REMARK    8  A    between atoms: N_16  and  C_17
REMARK    9  A    between atoms: C_25  and  C_26
REMARK                            x       y       z     vdW  Elec       q    Type
REMARK                         _______ _______ _______ _____ _____    ______ ____
ROOT
ATOM      1  C   UNL     1      48.925   8.262  12.234  0.00  0.00    +0.000 C 
ATOM      2  C   UNL     1      50.318   7.962  11.642  0.00  0.00    +0.000 C 
ATOM      3  C   UNL     1      48.484   9.672  11.770  0.00  0.00    +0.000 C 
ENDROOT
BRANCH   1   4
ATOM      4  C   UNL     1      48.984   8.225  13.770  0.00  0.00    +0.000 A 
ATOM      5  C   UNL     1      48.571   9.312  14.520  0.00  0.00    +0.000 A 
ATOM      6  C   UNL     1      48.633   9.176  15.884  0.00  0.00    +0.000 A 
ATOM      7  N   UNL     1      49.067   8.066  16.498  0.00  0.00    +0.000 NA
ATOM      8  C   UNL     1      49.483   7.064  15.717  0.00  0.00    +0.000 A 
ATOM      9  N   UNL     1      49.988   5.899  16.300  0.00  0.00    +0.000 N 
ATOM     10  N   UNL     1      49.455   7.104  14.372  0.00  0.00    +0.000 NA
ATOM     11  H   UNL     1      50.049   5.211  15.556  0.00  0.00    +0.000 HD
BRANCH   9  12
ATOM     12  C   UNL     1      49.539   5.404  17.564  0.00  0.00    +0.000 C 
ATOM     13  C   UNL     1      49.868   3.920  17.833  0.00  0.00    +0.000 C 
ATOM     14  C   UNL     1      48.454   3.792  18.437  0.00  0.00    +0.000 C 
ATOM     15  F   UNL     1      47.809   2.630  18.193  0.00  0.00    +0.000 F 
ATOM     16  F   UNL     1      48.370   4.013  19.769  0.00  0.00    +0.000 F 
ATOM     17  C   UNL     1      48.051   4.990  17.544  0.00  0.00    +0.000 C 
ENDBRANCH   9  12
ENDBRANCH   1   4
BRANCH   1  18
ATOM     18  C   UNL     1      47.876   7.264  11.655  0.00  0.00    +0.000 C 
BRANCH  18  19
ATOM     19  N   UNL     1      46.754   7.022  12.568  0.00  0.00    +0.000 N 
ATOM     20  H   UNL     1      46.240   7.883  12.770  0.00  0.00    +0.000 HD
BRANCH  19  25
ATOM     21  C   UNL     1      43.449   2.439  11.997  0.00  0.00    +0.000 C 
ATOM     22  C   UNL     1      44.292   3.681  12.039  0.00  0.00    +0.000 A 
ATOM     23  N   UNL     1      44.445   4.230  13.272  0.00  0.00    +0.000 NA
ATOM     24  C   UNL     1      45.232   5.327  13.380  0.00  0.00    +0.000 A 
ATOM     25  C   UNL     1      45.878   5.959  12.319  0.00  0.00    +0.000 A 
ATOM     26  C   UNL     1      45.705   5.368  11.067  0.00  0.00    +0.000 A 
ATOM     27  C   UNL     1      44.889   4.237  10.903  0.00  0.00    +0.000 A 
BRANCH  27  28
ATOM     28  C   UNL     1      44.726   3.635   9.553  0.00  0.00    +0.000 C 
ATOM     29  N   UNL     1      43.996   4.339   8.631  0.00  0.00    +0.000 N 
ATOM     30  O   UNL     1      45.200   2.551   9.251  0.00  0.00    +0.000 OA
ATOM     31  H   UNL     1      43.420   5.137   8.862  0.00  0.00    +0.000 HD
ATOM     32  H   UNL     1      43.833   3.878   7.743  0.00  0.00    +0.000 HD
ENDBRANCH  27  28
ENDBRANCH  19  25
ENDBRANCH  18  19
ENDBRANCH   1  18
TORSDOF 6
ENDMDL
