MODEL 1
REMARK VINA RESULT:    -9.761      0.000      0.000
REMARK INTER + INTRA:         -14.049
REMARK INTER:                 -13.756
REMARK INTRA:                  -0.293
REMARK UNBOUND:                -0.293
REMARK  Name = 
REMARK  8 active torsions:
REMARK  status: ('A' for Active; 'I' for Inactive)
REMARK    1  A    between atoms: C_1  and  O_2
REMARK    2  A    between atoms: O_2  and  C_3
REMARK    3  A    between atoms: C_6  and  C_7
REMARK    4  A    between atoms: C_7  and  N_8
REMARK    5  A    between atoms: N_8  and  C_9
REMARK    6  A    between atoms: C_12  and  C_13
REMARK    7  A    between atoms: C_21  and  C_22
REMARK    8  A    between atoms: C_25  and  C_26
REMARK                            x       y       z     vdW  Elec       q    Type
REMARK                         _______ _______ _______ _____ _____    ______ ____
ROOT
ATOM      1  C   UNL     1      47.881   6.463  12.913  0.00  0.00    +0.000 A 
ATOM      2  C   UNL     1      47.294   6.866  11.703  0.00  0.00    +0.000 A 
ATOM      3  C   UNL     1      46.053   6.354  11.304  0.00  0.00    +0.000 A 
ATOM      4  C   UNL     1      45.397   5.380  12.061  0.00  0.00    +0.000 A 
ATOM      5  C   UNL     1      46.068   4.907  13.201  0.00  0.00    +0.000 A 
ATOM      6  C   UNL     1      47.251   5.484  13.708  0.00  0.00    +0.000 A 
ENDROOT
BRANCH   6   7
ATOM      7  C   UNL     1      47.665   5.137  15.095  0.00  0.00    +0.000 A 
ATOM      8  C   UNL     1      48.463   5.966  15.895  0.00  0.00    +0.000 A 
ATOM      9  C   UNL     1      48.753   5.633  17.226  0.00  0.00    +0.000 A 
ATOM     10  C   UNL     1      48.272   4.445  17.782  0.00  0.00    +0.000 A 
ATOM     11  C   UNL     1      47.511   3.580  16.997  0.00  0.00    +0.000 A 
ATOM     12  C   UNL     1      47.204   3.935  15.680  0.00  0.00    +0.000 A 
BRANCH  10  13
ATOM     13  C   UNL     1      48.607   4.131  19.196  0.00  0.00    +0.000 C 
ATOM     14  N   UNL     1      48.256   2.896  19.670  0.00  0.00    +0.000 N 
ATOM     15  O   UNL     1      49.148   4.950  19.925  0.00  0.00    +0.000 OA
ATOM     16  H   UNL     1      47.602   2.293  19.193  0.00  0.00    +0.000 HD
ATOM     17  H   UNL     1      48.400   2.745  20.659  0.00  0.00    +0.000 HD
ENDBRANCH  10  13
ENDBRANCH   6   7
BRANCH   4  18
ATOM     18  C   UNL     1      43.996   4.871  11.717  0.00  0.00    +0.000 C 
ATOM     19  C   UNL     1      42.891   5.144  12.719  0.00  0.00    +0.000 C 
ATOM     20  C   UNL     1      43.427   3.764  12.614  0.00  0.00    +0.000 C 
BRANCH  18  21
ATOM     21  N   UNL     1      43.834   4.619  10.283  0.00  0.00    +0.000 N 
ATOM     22  H   UNL     1      42.964   4.952   9.878  0.00  0.00    +0.000 HD
BRANCH  21  23
ATOM     23  C   UNL     1      44.590   3.820   9.416  0.00  0.00    +0.000 A 
ATOM     24  C   UNL     1      44.739   2.437   9.524  0.00  0.00    +0.000 A 
ATOM     25  C   UNL     1      45.633   1.742   8.687  0.00  0.00    +0.000 A 
ATOM     26  C   UNL     1      46.378   2.421   7.718  0.00  0.00    +0.000 A 
ATOM     27  C   UNL     1      46.222   3.801   7.586  0.00  0.00    +0.000 A 
ATOM     28  C   UNL     1      45.341   4.483   8.431  0.00  0.00    +0.000 A 
BRANCH  26  29
ATOM     29  C   UNL     1      47.352   1.665   6.893  0.00  0.00    +0.000 C 
ATOM     30  N   UNL     1      48.477   2.330   6.484  0.00  0.00    +0.000 N 
ATOM     31  O   UNL     1      47.161   0.499   6.576  0.00  0.00    +0.000 OA
ATOM     32  H   UNL     1      48.570   3.333   6.536  0.00  0.00    +0.000 HD
ATOM     33  H   UNL     1      49.102   1.826   5.870  0.00  0.00    +0.000 HD
ENDBRANCH  26  29
ENDBRANCH  21  23
ENDBRANCH  18  21
ENDBRANCH   4  18
BRANCH   1  35
ATOM     34  C   UNL     1      49.832   7.756  12.454  0.00  0.00    +0.000 C 
ATOM     35  O   UNL     1      49.076   6.965  13.360  0.00  0.00    +0.000 OA
ENDBRANCH   1  35
TORSDOF 7
ENDMDL
MODEL 2
REMARK VINA RESULT:    -9.507      2.558      4.879
REMARK INTER + INTRA:         -13.690
REMARK INTER:                 -12.411
REMARK INTRA:                  -1.279
REMARK UNBOUND:                -0.293
REMARK  Name = 
REMARK  8 active torsions:
REMARK  status: ('A' for Active; 'I' for Inactive)
REMARK    1  A    between atoms: C_1  and  O_2
REMARK    2  A    between atoms: O_2  and  C_3
REMARK    3  A    between atoms: C_6  and  C_7
REMARK    4  A    between atoms: C_7  and  N_8
REMARK    5  A    between atoms: N_8  and  C_9
REMARK    6  A    between atoms: C_12  and  C_13
REMARK    7  A    between atoms: C_21  and  C_22
REMARK    8  A    between atoms: C_25  and  C_26
REMARK                            x       y       z     vdW  Elec       q    Type
REMARK                         _______ _______ _______ _____ _____    ______ ____
ROOT
ATOM      1  C   UNL     1      47.483   5.695  13.714  0.00  0.00    +0.000 A 
ATOM      2  C   UNL     1      46.655   4.591  13.967  0.00  0.00    +0.000 A 
ATOM      3  C   UNL     1      45.472   4.400  13.241  0.00  0.00    +0.000 A 
ATOM      4  C   UNL     1      45.049   5.336  12.294  0.00  0.00    +0.000 A 
ATOM      5  C   UNL     1      45.834   6.492  12.151  0.00  0.00    +0.000 A 
ATOM      6  C   UNL     1      47.093   6.662  12.764  0.00  0.00    +0.000 A 
ENDROOT
BRANCH   6   7
ATOM      7  C   UNL     1      47.977   7.749  12.263  0.00  0.00    +0.000 A 
ATOM      8  C   UNL     1      47.617   9.104  12.268  0.00  0.00    +0.000 A 
ATOM      9  C   UNL     1      48.520  10.098  11.865  0.00  0.00    +0.000 A 
ATOM     10  C   UNL     1      49.801   9.758  11.422  0.00  0.00    +0.000 A 
ATOM     11  C   UNL     1      50.172   8.415  11.367  0.00  0.00    +0.000 A 
ATOM     12  C   UNL     1      49.274   7.433  11.796  0.00  0.00    +0.000 A 
BRANCH  10  13
ATOM     13  C   UNL     1      50.724  10.845  11.002  0.00  0.00    +0.000 C 
ATOM     14  N   UNL     1      51.644  11.281  11.917  0.00  0.00    +0.000 N 
ATOM     15  O   UNL     1      50.651  11.358   9.895  0.00  0.00    +0.000 OA
ATOM     16  H   UNL     1      51.581  11.066  12.901  0.00  0.00    +0.000 HD
ATOM     17  H   UNL     1      52.188  12.088  11.646  0.00  0.00    +0.000 HD
ENDBRANCH  10  13
ENDBRANCH   6   7
BRANCH   4  18
ATOM     18  C   UNL     1      43.822   5.115  11.408  0.00  0.00    +0.000 C 
ATOM     19  C   UNL     1      43.033   6.342  10.993  0.00  0.00    +0.000 C 
ATOM     20  C   UNL     1      42.458   5.447  12.028  0.00  0.00    +0.000 C 
BRANCH  18  21
ATOM     21  N   UNL     1      43.863   3.827  10.712  0.00  0.00    +0.000 N 
ATOM     22  H   UNL     1      43.347   3.074  11.156  0.00  0.00    +0.000 HD
BRANCH  21  23
ATOM     23  C   UNL     1      44.659   3.407   9.638  0.00  0.00    +0.000 A 
ATOM     24  C   UNL     1      44.991   2.080   9.356  0.00  0.00    +0.000 A 
ATOM     25  C   UNL     1      45.912   1.770   8.337  0.00  0.00    +0.000 A 
ATOM     26  C   UNL     1      46.500   2.784   7.574  0.00  0.00    +0.000 A 
ATOM     27  C   UNL     1      46.161   4.112   7.833  0.00  0.00    +0.000 A 
ATOM     28  C   UNL     1      45.256   4.410   8.855  0.00  0.00    +0.000 A 
BRANCH  26  29
ATOM     29  C   UNL     1      47.509   2.424   6.548  0.00  0.00    +0.000 C 
ATOM     30  N   UNL     1      47.465   3.103   5.359  0.00  0.00    +0.000 N 
ATOM     31  O   UNL     1      48.342   1.549   6.741  0.00  0.00    +0.000 OA
ATOM     32  H   UNL     1      46.677   3.666   5.079  0.00  0.00    +0.000 HD
ATOM     33  H   UNL     1      48.114   2.806   4.644  0.00  0.00    +0.000 HD
ENDBRANCH  26  29
ENDBRANCH  21  23
ENDBRANCH  18  21
ENDBRANCH   4  18
BRANCH   1  35
ATOM     34  C   UNL     1      48.593   6.365  15.716  0.00  0.00    +0.000 C 
ATOM     35  O   UNL     1      48.666   5.902  14.374  0.00  0.00    +0.000 OA
ENDBRANCH   1  35
TORSDOF 7
ENDMDL
MODEL 3
REMARK VINA RESULT:    -8.735      3.176      3.884
REMARK INTER + INTRA:         -12.602
REMARK INTER:                 -11.702
REMARK INTRA:                  -0.900
REMARK UNBOUND:                -0.293
REMARK  Name = 
REMARK  8 active torsions:
REMARK  status: ('A' for Active; 'I' for Inactive)
REMARK    1  A    between atoms: C_1  and  O_2
REMARK    2  A    between atoms: O_2  and  C_3
REMARK    3  A    between atoms: C_6  and  C_7
REMARK    4  A    between atoms: C_7  and  N_8
REMARK    5  A    between atoms: N_8  and  C_9
REMARK    6  A    between atoms: C_12  and  C_13
REMARK    7  A    between atoms: C_21  and  C_22
REMARK    8  A    between atoms: C_25  and  C_26
REMARK                            x       y       z     vdW  Elec       q    Type
REMARK                         _______ _______ _______ _____ _____    ______ ____
ROOT
ATOM      1  C   UNL     1      45.281   8.275  11.670  0.00  0.00    +0.000 A 
ATOM      2  C   UNL     1      43.946   7.943  11.392  0.00  0.00    +0.000 A 
ATOM      3  C   UNL     1      43.538   6.604  11.333  0.00  0.00    +0.000 A 
ATOM      4  C   UNL     1      44.458   5.563  11.481  0.00  0.00    +0.000 A 
ATOM      5  C   UNL     1      45.806   5.926  11.634  0.00  0.00    +0.000 A 
ATOM      6  C   UNL     1      46.240   7.254  11.829  0.00  0.00    +0.000 A 
ENDROOT
BRANCH   6   7
ATOM      7  C   UNL     1      47.624   7.475  12.330  0.00  0.00    +0.000 A 
ATOM      8  C   UNL     1      48.713   7.763  11.496  0.00  0.00    +0.000 A 
ATOM      9  C   UNL     1      49.980   8.048  12.026  0.00  0.00    +0.000 A 
ATOM     10  C   UNL     1      50.195   8.026  13.406  0.00  0.00    +0.000 A 
ATOM     11  C   UNL     1      49.140   7.701  14.258  0.00  0.00    +0.000 A 
ATOM     12  C   UNL     1      47.875   7.445  13.721  0.00  0.00    +0.000 A 
BRANCH  10  13
ATOM     13  C   UNL     1      51.555   8.332  13.922  0.00  0.00    +0.000 C 
ATOM     14  N   UNL     1      52.614   8.104  13.086  0.00  0.00    +0.000 N 
ATOM     15  O   UNL     1      51.734   8.744  15.060  0.00  0.00    +0.000 OA
ATOM     16  H   UNL     1      52.539   7.545  12.248  0.00  0.00    +0.000 HD
ATOM     17  H   UNL     1      53.532   8.220  13.493  0.00  0.00    +0.000 HD
ENDBRANCH  10  13
ENDBRANCH   6   7
BRANCH   4  18
ATOM     18  C   UNL     1      44.039   4.093  11.527  0.00  0.00    +0.000 C 
ATOM     19  C   UNL     1      43.490   3.566  12.839  0.00  0.00    +0.000 C 
ATOM     20  C   UNL     1      44.863   3.172  12.436  0.00  0.00    +0.000 C 
BRANCH  18  21
ATOM     21  N   UNL     1      43.789   3.545  10.192  0.00  0.00    +0.000 N 
ATOM     22  H   UNL     1      42.830   3.263  10.009  0.00  0.00    +0.000 HD
BRANCH  21  23
ATOM     23  C   UNL     1      44.690   3.159   9.191  0.00  0.00    +0.000 A 
ATOM     24  C   UNL     1      45.142   1.856   8.976  0.00  0.00    +0.000 A 
ATOM     25  C   UNL     1      46.155   1.592   8.035  0.00  0.00    +0.000 A 
ATOM     26  C   UNL     1      46.718   2.628   7.283  0.00  0.00    +0.000 A 
ATOM     27  C   UNL     1      46.260   3.932   7.473  0.00  0.00    +0.000 A 
ATOM     28  C   UNL     1      45.262   4.185   8.419  0.00  0.00    +0.000 A 
BRANCH  26  29
ATOM     29  C   UNL     1      47.823   2.321   6.342  0.00  0.00    +0.000 C 
ATOM     30  N   UNL     1      47.833   2.988   5.145  0.00  0.00    +0.000 N 
ATOM     31  O   UNL     1      48.687   1.497   6.608  0.00  0.00    +0.000 OA
ATOM     32  H   UNL     1      47.037   3.504   4.799  0.00  0.00    +0.000 HD
ATOM     33  H   UNL     1      48.552   2.725   4.487  0.00  0.00    +0.000 HD
ENDBRANCH  26  29
ENDBRANCH  21  23
ENDBRANCH  18  21
ENDBRANCH   4  18
BRANCH   1  35
ATOM     34  C   UNL     1      44.733  10.596  11.741  0.00  0.00    +0.000 C 
ATOM     35  O   UNL     1      45.717   9.571  11.773  0.00  0.00    +0.000 OA
ENDBRANCH   1  35
TORSDOF 7
ENDMDL
MODEL 4
REMARK VINA RESULT:    -7.794      3.065      7.857
REMARK INTER + INTRA:         -11.276
REMARK INTER:                  -9.462
REMARK INTRA:                  -1.814
REMARK UNBOUND:                -0.293
REMARK  Name = 
REMARK  8 active torsions:
REMARK  status: ('A' for Active; 'I' for Inactive)
REMARK    1  A    between atoms: C_1  and  O_2
REMARK    2  A    between atoms: O_2  and  C_3
REMARK    3  A    between atoms: C_6  and  C_7
REMARK    4  A    between atoms: C_7  and  N_8
REMARK    5  A    between atoms: N_8  and  C_9
REMARK    6  A    between atoms: C_12  and  C_13
REMARK    7  A    between atoms: C_21  and  C_22
REMARK    8  A    between atoms: C_25  and  C_26
REMARK                            x       y       z     vdW  Elec       q    Type
REMARK                         _______ _______ _______ _____ _____    ______ ____
ROOT
ATOM      1  C   UNL     1      49.619   7.464  13.369  0.00  0.00    +0.000 A 
ATOM      2  C   UNL     1      50.617   8.138  14.090  0.00  0.00    +0.000 A 
ATOM      3  C   UNL     1      50.407   8.515  15.422  0.00  0.00    +0.000 A 
ATOM      4  C   UNL     1      49.178   8.293  16.049  0.00  0.00    +0.000 A 
ATOM      5  C   UNL     1      48.159   7.730  15.264  0.00  0.00    +0.000 A 
ATOM      6  C   UNL     1      48.365   7.219  13.965  0.00  0.00    +0.000 A 
ENDROOT
BRANCH   6   7
ATOM      7  C   UNL     1      47.317   6.338  13.382  0.00  0.00    +0.000 A 
ATOM      8  C   UNL     1      46.534   6.695  12.275  0.00  0.00    +0.000 A 
ATOM      9  C   UNL     1      45.620   5.794  11.710  0.00  0.00    +0.000 A 
ATOM     10  C   UNL     1      45.448   4.519  12.256  0.00  0.00    +0.000 A 
ATOM     11  C   UNL     1      46.183   4.152  13.383  0.00  0.00    +0.000 A 
ATOM     12  C   UNL     1      47.111   5.048  13.922  0.00  0.00    +0.000 A 
BRANCH  10  13
ATOM     13  C   UNL     1      44.466   3.599  11.626  0.00  0.00    +0.000 C 
ATOM     14  N   UNL     1      44.043   2.525  12.361  0.00  0.00    +0.000 N 
ATOM     15  O   UNL     1      44.067   3.769  10.482  0.00  0.00    +0.000 OA
ATOM     16  H   UNL     1      44.519   2.211  13.195  0.00  0.00    +0.000 HD
ATOM     17  H   UNL     1      43.458   1.859  11.876  0.00  0.00    +0.000 HD
ENDBRANCH  10  13
ENDBRANCH   6   7
BRANCH   4  18
ATOM     18  C   UNL     1      48.941   8.594  17.530  0.00  0.00    +0.000 C 
ATOM     19  C   UNL     1      47.849   9.589  17.872  0.00  0.00    +0.000 C 
ATOM     20  C   UNL     1      49.264  10.018  18.002  0.00  0.00    +0.000 C 
BRANCH  18  21
ATOM     21  N   UNL     1      49.469   7.543  18.402  0.00  0.00    +0.000 N 
ATOM     22  H   UNL     1      49.855   7.862  19.286  0.00  0.00    +0.000 HD
BRANCH  21  23
ATOM     23  C   UNL     1      49.712   6.188  18.138  0.00  0.00    +0.000 A 
ATOM     24  C   UNL     1      50.965   5.636  17.865  0.00  0.00    +0.000 A 
ATOM     25  C   UNL     1      51.087   4.289  17.473  0.00  0.00    +0.000 A 
ATOM     26  C   UNL     1      49.958   3.472  17.366  0.00  0.00    +0.000 A 
ATOM     27  C   UNL     1      48.703   4.007  17.656  0.00  0.00    +0.000 A 
ATOM     28  C   UNL     1      48.591   5.348  18.032  0.00  0.00    +0.000 A 
BRANCH  26  29
ATOM     29  C   UNL     1      50.119   2.074  16.895  0.00  0.00    +0.000 C 
ATOM     30  N   UNL     1      50.935   1.255  17.630  0.00  0.00    +0.000 N 
ATOM     31  O   UNL     1      49.561   1.664  15.887  0.00  0.00    +0.000 OA
ATOM     32  H   UNL     1      51.574   1.602  18.329  0.00  0.00    +0.000 HD
ATOM     33  H   UNL     1      51.088   0.325  17.265  0.00  0.00    +0.000 HD
ENDBRANCH  26  29
ENDBRANCH  21  23
ENDBRANCH  18  21
ENDBRANCH   4  18
BRANCH   1  35
ATOM     34  C   UNL     1      50.690   7.790  11.262  0.00  0.00    +0.000 C 
ATOM     35  O   UNL     1      49.794   7.045  12.075  0.00  0.00    +0.000 OA
ENDBRANCH   1  35
TORSDOF 7
ENDMDL
MODEL 5
REMARK VINA RESULT:    -7.779      3.238      8.437
REMARK INTER + INTRA:         -11.255
REMARK INTER:                 -10.422
REMARK INTRA:                  -0.833
REMARK UNBOUND:                -0.293
REMARK  Name = 
REMARK  8 active torsions:
REMARK  status: ('A' for Active; 'I' for Inactive)
REMARK    1  A    between atoms: C_1  and  O_2
REMARK    2  A    between atoms: O_2  and  C_3
REMARK    3  A    between atoms: C_6  and  C_7
REMARK    4  A    between atoms: C_7  and  N_8
REMARK    5  A    between atoms: N_8  and  C_9
REMARK    6  A    between atoms: C_12  and  C_13
REMARK    7  A    between atoms: C_21  and  C_22
REMARK    8  A    between atoms: C_25  and  C_26
REMARK                            x       y       z     vdW  Elec       q    Type
REMARK                         _______ _______ _______ _____ _____    ______ ____
ROOT
ATOM      1  C   UNL     1      48.980   7.163  13.559  0.00  0.00    +0.000 A 
ATOM      2  C   UNL     1      50.006   7.480  14.462  0.00  0.00    +0.000 A 
ATOM      3  C   UNL     1      50.021   6.932  15.751  0.00  0.00    +0.000 A 
ATOM      4  C   UNL     1      48.982   6.111  16.197  0.00  0.00    +0.000 A 
ATOM      5  C   UNL     1      47.908   5.912  15.315  0.00  0.00    +0.000 A 
ATOM      6  C   UNL     1      47.914   6.336  13.969  0.00  0.00    +0.000 A 
ENDROOT
BRANCH   6   7
ATOM      7  C   UNL     1      46.893   5.765  13.048  0.00  0.00    +0.000 A 
ATOM      8  C   UNL     1      46.435   6.423  11.898  0.00  0.00    +0.000 A 
ATOM      9  C   UNL     1      45.537   5.805  11.016  0.00  0.00    +0.000 A 
ATOM     10  C   UNL     1      45.053   4.520  11.278  0.00  0.00    +0.000 A 
ATOM     11  C   UNL     1      45.459   3.859  12.436  0.00  0.00    +0.000 A 
ATOM     12  C   UNL     1      46.376   4.473  13.295  0.00  0.00    +0.000 A 
BRANCH  10  13
ATOM     13  C   UNL     1      44.100   3.906  10.317  0.00  0.00    +0.000 C 
ATOM     14  N   UNL     1      44.047   4.435   9.055  0.00  0.00    +0.000 N 
ATOM     15  O   UNL     1      43.366   2.984  10.640  0.00  0.00    +0.000 OA
ATOM     16  H   UNL     1      44.444   5.333   8.821  0.00  0.00    +0.000 HD
ATOM     17  H   UNL     1      43.321   4.070   8.454  0.00  0.00    +0.000 HD
ENDBRANCH  10  13
ENDBRANCH   6   7
BRANCH   4  18
ATOM     18  C   UNL     1      49.010   5.410  17.557  0.00  0.00    +0.000 C 
ATOM     19  C   UNL     1      47.718   4.783  18.043  0.00  0.00    +0.000 C 
ATOM     20  C   UNL     1      48.174   6.047  18.676  0.00  0.00    +0.000 C 
BRANCH  18  21
ATOM     21  N   UNL     1      50.368   5.040  17.963  0.00  0.00    +0.000 N 
ATOM     22  H   UNL     1      50.949   5.806  18.290  0.00  0.00    +0.000 HD
BRANCH  21  23
ATOM     23  C   UNL     1      51.065   3.837  17.790  0.00  0.00    +0.000 A 
ATOM     24  C   UNL     1      50.499   2.635  17.362  0.00  0.00    +0.000 A 
ATOM     25  C   UNL     1      51.254   1.447  17.354  0.00  0.00    +0.000 A 
ATOM     26  C   UNL     1      52.592   1.449  17.759  0.00  0.00    +0.000 A 
ATOM     27  C   UNL     1      53.175   2.648  18.169  0.00  0.00    +0.000 A 
ATOM     28  C   UNL     1      52.414   3.820  18.185  0.00  0.00    +0.000 A 
BRANCH  26  29
ATOM     29  C   UNL     1      53.339   0.168  17.792  0.00  0.00    +0.000 C 
ATOM     30  N   UNL     1      53.890  -0.268  16.616  0.00  0.00    +0.000 N 
ATOM     31  O   UNL     1      53.454  -0.486  18.819  0.00  0.00    +0.000 OA
ATOM     32  H   UNL     1      53.641   0.118  15.718  0.00  0.00    +0.000 HD
ATOM     33  H   UNL     1      54.341  -1.172  16.635  0.00  0.00    +0.000 HD
ENDBRANCH  26  29
ENDBRANCH  21  23
ENDBRANCH  18  21
ENDBRANCH   4  18
BRANCH   1  35
ATOM     34  C   UNL     1      50.161   7.639  11.542  0.00  0.00    +0.000 C 
ATOM     35  O   UNL     1      48.945   7.647  12.277  0.00  0.00    +0.000 OA
ENDBRANCH   1  35
TORSDOF 7
ENDMDL
MODEL 6
REMARK VINA RESULT:    -7.622      3.040      5.190
REMARK INTER + INTRA:         -11.034
REMARK INTER:                  -9.701
REMARK INTRA:                  -1.332
REMARK UNBOUND:                -0.293
REMARK  Name = 
REMARK  8 active torsions:
REMARK  status: ('A' for Active; 'I' for Inactive)
REMARK    1  A    between atoms: C_1  and  O_2
REMARK    2  A    between atoms: O_2  and  C_3
REMARK    3  A    between atoms: C_6  and  C_7
REMARK    4  A    between atoms: C_7  and  N_8
REMARK    5  A    between atoms: N_8  and  C_9
REMARK    6  A    between atoms: C_12  and  C_13
REMARK    7  A    between atoms: C_21  and  C_22
REMARK    8  A    between atoms: C_25  and  C_26
REMARK                            x       y       z     vdW  Elec       q    Type
REMARK                         _______ _______ _______ _____ _____    ______ ____
ROOT
ATOM      1  C   UNL     1      49.440   7.430  17.767  0.00  0.00    +0.000 A 
ATOM      2  C   UNL     1      48.687   8.524  17.315  0.00  0.00    +0.000 A 
ATOM      3  C   UNL     1      48.329   8.639  15.966  0.00  0.00    +0.000 A 
ATOM      4  C   UNL     1      48.766   7.706  15.022  0.00  0.00    +0.000 A 
ATOM      5  C   UNL     1      49.620   6.691  15.483  0.00  0.00    +0.000 A 
ATOM      6  C   UNL     1      49.899   6.464  16.847  0.00  0.00    +0.000 A 
ENDROOT
BRANCH   6   7
ATOM      7  C   UNL     1      50.515   5.165  17.233  0.00  0.00    +0.000 A 
ATOM      8  C   UNL     1      49.799   3.963  17.317  0.00  0.00    +0.000 A 
ATOM      9  C   UNL     1      50.443   2.751  17.600  0.00  0.00    +0.000 A 
ATOM     10  C   UNL     1      51.821   2.715  17.833  0.00  0.00    +0.000 A 
ATOM     11  C   UNL     1      52.552   3.901  17.797  0.00  0.00    +0.000 A 
ATOM     12  C   UNL     1      51.905   5.101  17.487  0.00  0.00    +0.000 A 
BRANCH  10  13
ATOM     13  C   UNL     1      52.461   1.407  18.132  0.00  0.00    +0.000 C 
ATOM     14  N   UNL     1      51.688   0.284  18.014  0.00  0.00    +0.000 N 
ATOM     15  O   UNL     1      53.625   1.330  18.499  0.00  0.00    +0.000 OA
ATOM     16  H   UNL     1      50.680   0.317  17.957  0.00  0.00    +0.000 HD
ATOM     17  H   UNL     1      52.113  -0.580  18.322  0.00  0.00    +0.000 HD
ENDBRANCH  10  13
ENDBRANCH   6   7
BRANCH   4  18
ATOM     18  C   UNL     1      48.313   7.736  13.562  0.00  0.00    +0.000 C 
ATOM     19  C   UNL     1      49.362   7.461  12.502  0.00  0.00    +0.000 C 
ATOM     20  C   UNL     1      48.889   8.856  12.686  0.00  0.00    +0.000 C 
BRANCH  18  21
ATOM     21  N   UNL     1      46.865   7.557  13.425  0.00  0.00    +0.000 N 
ATOM     22  H   UNL     1      46.294   8.260  13.883  0.00  0.00    +0.000 HD
BRANCH  21  23
ATOM     23  C   UNL     1      46.133   6.468  12.935  0.00  0.00    +0.000 A 
ATOM     24  C   UNL     1      45.971   5.248  13.594  0.00  0.00    +0.000 A 
ATOM     25  C   UNL     1      45.334   4.165  12.957  0.00  0.00    +0.000 A 
ATOM     26  C   UNL     1      44.836   4.295  11.657  0.00  0.00    +0.000 A 
ATOM     27  C   UNL     1      44.973   5.515  10.996  0.00  0.00    +0.000 A 
ATOM     28  C   UNL     1      45.618   6.580  11.632  0.00  0.00    +0.000 A 
BRANCH  26  29
ATOM     29  C   UNL     1      44.222   3.116  10.997  0.00  0.00    +0.000 C 
ATOM     30  N   UNL     1      44.973   2.462  10.056  0.00  0.00    +0.000 N 
ATOM     31  O   UNL     1      43.089   2.743  11.266  0.00  0.00    +0.000 OA
ATOM     32  H   UNL     1      45.810   2.856   9.654  0.00  0.00    +0.000 HD
ATOM     33  H   UNL     1      44.523   1.701   9.567  0.00  0.00    +0.000 HD
ENDBRANCH  26  29
ENDBRANCH  21  23
ENDBRANCH  18  21
ENDBRANCH   4  18
BRANCH   1  35
ATOM     34  C   UNL     1      50.824   8.075  19.599  0.00  0.00    +0.000 C 
ATOM     35  O   UNL     1      49.782   7.258  19.084  0.00  0.00    +0.000 OA
ENDBRANCH   1  35
TORSDOF 7
ENDMDL
MODEL 7
REMARK VINA RESULT:    -7.615      2.043      8.553
REMARK INTER + INTRA:         -11.024
REMARK INTER:                 -10.395
REMARK INTRA:                  -0.629
REMARK UNBOUND:                -0.293
REMARK  Name = 
REMARK  8 active torsions:
REMARK  status: ('A' for Active; 'I' for Inactive)
REMARK    1  A    between atoms: C_1  and  O_2
REMARK    2  A    between atoms: O_2  and  C_3
REMARK    3  A    between atoms: C_6  and  C_7
REMARK    4  A    between atoms: C_7  and  N_8
REMARK    5  A    between atoms: N_8  and  C_9
REMARK    6  A    between atoms: C_12  and  C_13
REMARK    7  A    between atoms: C_21  and  C_22
REMARK    8  A    between atoms: C_25  and  C_26
REMARK                            x       y       z     vdW  Elec       q    Type
REMARK                         _______ _______ _______ _____ _____    ______ ____
ROOT
ATOM      1  C   UNL     1      43.794   4.421  11.384  0.00  0.00    +0.000 A 
ATOM      2  C   UNL     1      43.362   5.222  12.451  0.00  0.00    +0.000 A 
ATOM      3  C   UNL     1      44.172   6.251  12.950  0.00  0.00    +0.000 A 
ATOM      4  C   UNL     1      45.458   6.464  12.446  0.00  0.00    +0.000 A 
ATOM      5  C   UNL     1      45.910   5.567  11.463  0.00  0.00    +0.000 A 
ATOM      6  C   UNL     1      45.084   4.605  10.845  0.00  0.00    +0.000 A 
ENDROOT
BRANCH   6   7
ATOM      7  C   UNL     1      45.567   3.967   9.589  0.00  0.00    +0.000 A 
ATOM      8  C   UNL     1      46.027   4.691   8.481  0.00  0.00    +0.000 A 
ATOM      9  C   UNL     1      46.553   4.042   7.355  0.00  0.00    +0.000 A 
ATOM     10  C   UNL     1      46.606   2.646   7.299  0.00  0.00    +0.000 A 
ATOM     11  C   UNL     1      46.116   1.900   8.370  0.00  0.00    +0.000 A 
ATOM     12  C   UNL     1      45.620   2.557   9.499  0.00  0.00    +0.000 A 
BRANCH  10  13
ATOM     13  C   UNL     1      47.168   2.001   6.084  0.00  0.00    +0.000 C 
ATOM     14  N   UNL     1      47.849   2.798   5.204  0.00  0.00    +0.000 N 
ATOM     15  O   UNL     1      47.008   0.811   5.855  0.00  0.00    +0.000 OA
ATOM     16  H   UNL     1      47.796   3.806   5.224  0.00  0.00    +0.000 HD
ATOM     17  H   UNL     1      48.131   2.359   4.338  0.00  0.00    +0.000 HD
ENDBRANCH  10  13
ENDBRANCH   6   7
BRANCH   4  18
ATOM     18  C   UNL     1      46.333   7.637  12.888  0.00  0.00    +0.000 C 
ATOM     19  C   UNL     1      45.645   8.967  13.127  0.00  0.00    +0.000 C 
ATOM     20  C   UNL     1      46.467   8.805  11.901  0.00  0.00    +0.000 C 
BRANCH  18  21
ATOM     21  N   UNL     1      47.605   7.195  13.465  0.00  0.00    +0.000 N 
ATOM     22  H   UNL     1      48.435   7.449  12.938  0.00  0.00    +0.000 HD
BRANCH  21  23
ATOM     23  C   UNL     1      47.857   6.309  14.520  0.00  0.00    +0.000 A 
ATOM     24  C   UNL     1      47.252   5.061  14.683  0.00  0.00    +0.000 A 
ATOM     25  C   UNL     1      47.466   4.304  15.851  0.00  0.00    +0.000 A 
ATOM     26  C   UNL     1      48.305   4.779  16.864  0.00  0.00    +0.000 A 
ATOM     27  C   UNL     1      48.933   6.014  16.704  0.00  0.00    +0.000 A 
ATOM     28  C   UNL     1      48.703   6.763  15.546  0.00  0.00    +0.000 A 
BRANCH  26  29
ATOM     29  C   UNL     1      48.463   3.980  18.105  0.00  0.00    +0.000 C 
ATOM     30  N   UNL     1      47.979   4.523  19.266  0.00  0.00    +0.000 N 
ATOM     31  O   UNL     1      49.011   2.887  18.103  0.00  0.00    +0.000 OA
ATOM     32  H   UNL     1      47.721   5.494  19.350  0.00  0.00    +0.000 HD
ATOM     33  H   UNL     1      48.148   4.000  20.114  0.00  0.00    +0.000 HD
ENDBRANCH  26  29
ENDBRANCH  21  23
ENDBRANCH  18  21
ENDBRANCH   4  18
BRANCH   1  35
ATOM     34  C   UNL     1      43.046   2.158  11.478  0.00  0.00    +0.000 C 
ATOM     35  O   UNL     1      43.020   3.428  10.841  0.00  0.00    +0.000 OA
ENDBRANCH   1  35
TORSDOF 7
ENDMDL
MODEL 8
REMARK VINA RESULT:    -7.570      3.185      5.699
REMARK INTER + INTRA:         -10.960
REMARK INTER:                  -9.724
REMARK INTRA:                  -1.236
REMARK UNBOUND:                -0.293
REMARK  Name = 
REMARK  8 active torsions:
REMARK  status: ('A' for Active; 'I' for Inactive)
REMARK    1  A    between atoms: C_1  and  O_2
REMARK    2  A    between atoms: O_2  and  C_3
REMARK    3  A    between atoms: C_6  and  C_7
REMARK    4  A    between atoms: C_7  and  N_8
REMARK    5  A    between atoms: N_8  and  C_9
REMARK    6  A    between atoms: C_12  and  C_13
REMARK    7  A    between atoms: C_21  and  C_22
REMARK    8  A    between atoms: C_25  and  C_26
REMARK                            x       y       z     vdW  Elec       q    Type
REMARK                         _______ _______ _______ _____ _____    ______ ____
ROOT
ATOM      1  C   UNL     1      49.391   6.112  18.492  0.00  0.00    +0.000 A 
ATOM      2  C   UNL     1      48.544   7.202  18.238  0.00  0.00    +0.000 A 
ATOM      3  C   UNL     1      48.273   7.608  16.925  0.00  0.00    +0.000 A 
ATOM      4  C   UNL     1      48.888   6.986  15.836  0.00  0.00    +0.000 A 
ATOM      5  C   UNL     1      49.825   5.980  16.128  0.00  0.00    +0.000 A 
ATOM      6  C   UNL     1      50.030   5.455  17.421  0.00  0.00    +0.000 A 
ENDROOT
BRANCH   6   7
ATOM      7  C   UNL     1      50.772   4.171  17.548  0.00  0.00    +0.000 A 
ATOM      8  C   UNL     1      50.180   2.913  17.362  0.00  0.00    +0.000 A 
ATOM      9  C   UNL     1      50.942   1.737  17.407  0.00  0.00    +0.000 A 
ATOM     10  C   UNL     1      52.314   1.788  17.667  0.00  0.00    +0.000 A 
ATOM     11  C   UNL     1      52.922   3.022  17.899  0.00  0.00    +0.000 A 
ATOM     12  C   UNL     1      52.158   4.191  17.824  0.00  0.00    +0.000 A 
BRANCH  10  13
ATOM     13  C   UNL     1      53.081   0.516  17.709  0.00  0.00    +0.000 C 
ATOM     14  N   UNL     1      52.565  -0.509  18.456  0.00  0.00    +0.000 N 
ATOM     15  O   UNL     1      54.149   0.388  17.127  0.00  0.00    +0.000 OA
ATOM     16  H   UNL     1      51.833  -0.373  19.138  0.00  0.00    +0.000 HD
ATOM     17  H   UNL     1      53.153  -1.325  18.553  0.00  0.00    +0.000 HD
ENDBRANCH  10  13
ENDBRANCH   6   7
BRANCH   4  18
ATOM     18  C   UNL     1      48.542   7.328  14.387  0.00  0.00    +0.000 C 
ATOM     19  C   UNL     1      49.681   7.352  13.386  0.00  0.00    +0.000 C 
ATOM     20  C   UNL     1      49.107   8.645  13.837  0.00  0.00    +0.000 C 
BRANCH  18  21
ATOM     21  N   UNL     1      47.123   7.118  14.090  0.00  0.00    +0.000 N 
ATOM     22  H   UNL     1      46.475   7.473  14.786  0.00  0.00    +0.000 HD
BRANCH  21  23
ATOM     23  C   UNL     1      46.514   6.335  13.101  0.00  0.00    +0.000 A 
ATOM     24  C   UNL     1      46.429   6.672  11.749  0.00  0.00    +0.000 A 
ATOM     25  C   UNL     1      45.674   5.886  10.857  0.00  0.00    +0.000 A 
ATOM     26  C   UNL     1      45.007   4.741  11.304  0.00  0.00    +0.000 A 
ATOM     27  C   UNL     1      45.101   4.382  12.649  0.00  0.00    +0.000 A 
ATOM     28  C   UNL     1      45.843   5.176  13.528  0.00  0.00    +0.000 A 
BRANCH  26  29
ATOM     29  C   UNL     1      44.175   3.970  10.349  0.00  0.00    +0.000 C 
ATOM     30  N   UNL     1      44.039   4.477   9.083  0.00  0.00    +0.000 N 
ATOM     31  O   UNL     1      43.618   2.930  10.671  0.00  0.00    +0.000 OA
ATOM     32  H   UNL     1      44.295   5.422   8.842  0.00  0.00    +0.000 HD
ATOM     33  H   UNL     1      43.420   3.978   8.460  0.00  0.00    +0.000 HD
ENDBRANCH  26  29
ENDBRANCH  21  23
ENDBRANCH  18  21
ENDBRANCH   4  18
BRANCH   1  35
ATOM     34  C   UNL     1      48.624   4.944  20.425  0.00  0.00    +0.000 C 
ATOM     35  O   UNL     1      49.656   5.658  19.758  0.00  0.00    +0.000 OA
ENDBRANCH   1  35
TORSDOF 7
ENDMDL
MODEL 9
REMARK VINA RESULT:    -7.354      3.207      8.589
REMARK INTER + INTRA:         -10.657
REMARK INTER:                  -9.089
REMARK INTRA:                  -1.568
REMARK UNBOUND:                -0.293
REMARK  Name = 
REMARK  8 active torsions:
REMARK  status: ('A' for Active; 'I' for Inactive)
REMARK    1  A    between atoms: C_1  and  O_2
REMARK    2  A    between atoms: O_2  and  C_3
REMARK    3  A    between atoms: C_6  and  C_7
REMARK    4  A    between atoms: C_7  and  N_8
REMARK    5  A    between atoms: N_8  and  C_9
REMARK    6  A    between atoms: C_12  and  C_13
REMARK    7  A    between atoms: C_21  and  C_22
REMARK    8  A    between atoms: C_25  and  C_26
REMARK                            x       y       z     vdW  Elec       q    Type
REMARK                         _______ _______ _______ _____ _____    ______ ____
ROOT
ATOM      1  C   UNL     1      46.238   8.977  12.055  0.00  0.00    +0.000 A 
ATOM      2  C   UNL     1      47.095  10.080  12.184  0.00  0.00    +0.000 A 
ATOM      3  C   UNL     1      48.481   9.903  12.286  0.00  0.00    +0.000 A 
ATOM      4  C   UNL     1      49.043   8.625  12.330  0.00  0.00    +0.000 A 
ATOM      5  C   UNL     1      48.150   7.540  12.325  0.00  0.00    +0.000 A 
ATOM      6  C   UNL     1      46.765   7.670  12.093  0.00  0.00    +0.000 A 
ENDROOT
BRANCH   6   7
ATOM      7  C   UNL     1      45.991   6.443  11.758  0.00  0.00    +0.000 A 
ATOM      8  C   UNL     1      45.782   5.994  10.446  0.00  0.00    +0.000 A 
ATOM      9  C   UNL     1      45.120   4.786  10.188  0.00  0.00    +0.000 A 
ATOM     10  C   UNL     1      44.625   4.008  11.238  0.00  0.00    +0.000 A 
ATOM     11  C   UNL     1      44.780   4.451  12.550  0.00  0.00    +0.000 A 
ATOM     12  C   UNL     1      45.466   5.643  12.799  0.00  0.00    +0.000 A 
BRANCH  10  13
ATOM     13  C   UNL     1      43.926   2.736  10.916  0.00  0.00    +0.000 C 
ATOM     14  N   UNL     1      44.373   2.026   9.834  0.00  0.00    +0.000 N 
ATOM     15  O   UNL     1      42.968   2.345  11.568  0.00  0.00    +0.000 OA
ATOM     16  H   UNL     1      44.984   2.421   9.135  0.00  0.00    +0.000 HD
ATOM     17  H   UNL     1      43.819   1.221   9.574  0.00  0.00    +0.000 HD
ENDBRANCH  10  13
ENDBRANCH   6   7
BRANCH   4  18
ATOM     18  C   UNL     1      50.554   8.388  12.336  0.00  0.00    +0.000 C 
ATOM     19  C   UNL     1      51.390   9.203  11.369  0.00  0.00    +0.000 C 
ATOM     20  C   UNL     1      51.157   7.768  11.069  0.00  0.00    +0.000 C 
BRANCH  18  21
ATOM     21  N   UNL     1      51.014   7.768  13.581  0.00  0.00    +0.000 N 
ATOM     22  H   UNL     1      51.756   7.083  13.478  0.00  0.00    +0.000 HD
BRANCH  21  23
ATOM     23  C   UNL     1      50.466   7.816  14.870  0.00  0.00    +0.000 A 
ATOM     24  C   UNL     1      49.773   6.773  15.487  0.00  0.00    +0.000 A 
ATOM     25  C   UNL     1      49.138   6.967  16.728  0.00  0.00    +0.000 A 
ATOM     26  C   UNL     1      49.203   8.203  17.378  0.00  0.00    +0.000 A 
ATOM     27  C   UNL     1      49.910   9.247  16.782  0.00  0.00    +0.000 A 
ATOM     28  C   UNL     1      50.526   9.048  15.542  0.00  0.00    +0.000 A 
BRANCH  26  29
ATOM     29  C   UNL     1      48.475   8.387  18.657  0.00  0.00    +0.000 C 
ATOM     30  N   UNL     1      47.131   8.120  18.658  0.00  0.00    +0.000 N 
ATOM     31  O   UNL     1      49.039   8.772  19.672  0.00  0.00    +0.000 OA
ATOM     32  H   UNL     1      46.594   8.013  17.811  0.00  0.00    +0.000 HD
ATOM     33  H   UNL     1      46.633   8.310  19.516  0.00  0.00    +0.000 HD
ENDBRANCH  26  29
ENDBRANCH  21  23
ENDBRANCH  18  21
ENDBRANCH   4  18
BRANCH   1  35
ATOM     34  C   UNL     1      44.365  10.412  11.706  0.00  0.00    +0.000 C 
ATOM     35  O   UNL     1      44.880   9.105  11.916  0.00  0.00    +0.000 OA
ENDBRANCH   1  35
TORSDOF 7
ENDMDL
