MODEL 1
REMARK VINA RESULT:    -9.574      0.000      0.000
REMARK INTER + INTRA:         -13.441
REMARK INTER:                 -12.373
REMARK INTRA:                  -1.068
REMARK UNBOUND:                -1.068
REMARK  Name = 
REMARK  5 active torsions:
REMARK  status: ('A' for Active; 'I' for Inactive)
REMARK    1  A    between atoms: C_2  and  C_4
REMARK    2  A    between atoms: N_8  and  C_9
REMARK    3  A    between atoms: C_9  and  C_10
REMARK    4  A    between atoms: C_10  and  C_13
REMARK    5  A    between atoms: C_17  and  C_18
REMARK                            x       y       z     vdW  Elec       q    Type
REMARK                         _______ _______ _______ _____ _____    ______ ____
ROOT
ATOM      1  C   UNL     1      43.255   4.375  11.200  0.00  0.00    +0.000 C 
ENDROOT
BRANCH   1   6
ATOM      2  C   UNL     1      46.488   2.529   7.713  0.00  0.00    +0.000 A 
ATOM      3  C   UNL     1      45.658   1.858   8.603  0.00  0.00    +0.000 A 
ATOM      4  C   UNL     1      44.734   2.586   9.350  0.00  0.00    +0.000 A 
ATOM      5  C   UNL     1      44.663   3.970   9.213  0.00  0.00    +0.000 A 
ATOM      6  N   UNL     1      43.709   4.739   9.851  0.00  0.00    +0.000 N 
ATOM      7  N   UNL     1      45.488   4.633   8.379  0.00  0.00    +0.000 NA
ATOM      8  C   UNL     1      46.383   3.909   7.654  0.00  0.00    +0.000 A 
ATOM      9  H   UNL     1      43.931   5.725   9.709  0.00  0.00    +0.000 HD
BRANCH   2  11
ATOM     10  N   UNL     1      48.560   2.528   6.450  0.00  0.00    +0.000 N 
ATOM     11  C   UNL     1      47.457   1.827   6.849  0.00  0.00    +0.000 C 
ATOM     12  O   UNL     1      47.299   0.653   6.530  0.00  0.00    +0.000 OA
ATOM     13  H   UNL     1      49.273   2.008   5.952  0.00  0.00    +0.000 HD
ATOM     14  H   UNL     1      48.851   3.384   6.908  0.00  0.00    +0.000 HD
ENDBRANCH   2  11
ENDBRANCH   1   6
BRANCH   1  15
ATOM     15  C   UNL     1      43.407   5.516  12.240  0.00  0.00    +0.000 C 
ATOM     16  F   UNL     1      42.930   6.670  11.686  0.00  0.00    +0.000 F 
ATOM     17  F   UNL     1      42.592   5.260  13.305  0.00  0.00    +0.000 F 
BRANCH  15  18
ATOM     18  C   UNL     1      44.860   5.637  12.660  0.00  0.00    +0.000 A 
ATOM     19  C   UNL     1      45.492   6.893  12.696  0.00  0.00    +0.000 A 
ATOM     20  C   UNL     1      46.801   7.018  13.163  0.00  0.00    +0.000 A 
ATOM     21  C   UNL     1      47.486   5.896  13.623  0.00  0.00    +0.000 A 
ATOM     22  C   UNL     1      46.865   4.644  13.612  0.00  0.00    +0.000 A 
ATOM     23  C   UNL     1      45.567   4.511  13.107  0.00  0.00    +0.000 A 
BRANCH  22  24
ATOM     24  C   UNL     1      47.510   3.524  14.297  0.00  0.00    +0.000 C 
ATOM     25  C   UNL     1      47.610   3.477  15.632  0.00  0.00    +0.000 C 
ATOM     26  C   UNL     1      47.127   4.419  16.722  0.00  0.00    +0.000 C 
ATOM     27  C   UNL     1      47.358   3.215  17.654  0.00  0.00    +0.000 C 
ATOM     28  C   UNL     1      48.269   2.534  16.611  0.00  0.00    +0.000 C 
ENDBRANCH  22  24
ENDBRANCH  15  18
ENDBRANCH   1  15
TORSDOF 5
ENDMDL
MODEL 2
REMARK VINA RESULT:    -9.399      1.483      3.396
REMARK INTER + INTRA:         -13.215
REMARK INTER:                 -12.135
REMARK INTRA:                  -1.080
REMARK UNBOUND:                -1.068
REMARK  Name = 
REMARK  5 active torsions:
REMARK  status: ('A' for Active; 'I' for Inactive)
REMARK    1  A    between atoms: C_2  and  C_4
REMARK    2  A    between atoms: N_8  and  C_9
REMARK    3  A    between atoms: C_9  and  C_10
REMARK    4  A    between atoms: C_10  and  C_13
REMARK    5  A    between atoms: C_17  and  C_18
REMARK                            x       y       z     vdW  Elec       q    Type
REMARK                         _______ _______ _______ _____ _____    ______ ____
ROOT
ATOM      1  C   UNL     1      43.318   4.419  11.163  0.00  0.00    +0.000 C 
ENDROOT
BRANCH   1   6
ATOM      2  C   UNL     1      46.488   2.494   7.662  0.00  0.00    +0.000 A 
ATOM      3  C   UNL     1      45.686   1.843   8.591  0.00  0.00    +0.000 A 
ATOM      4  C   UNL     1      44.772   2.586   9.337  0.00  0.00    +0.000 A 
ATOM      5  C   UNL     1      44.684   3.964   9.158  0.00  0.00    +0.000 A 
ATOM      6  N   UNL     1      43.737   4.745   9.793  0.00  0.00    +0.000 N 
ATOM      7  N   UNL     1      45.482   4.609   8.284  0.00  0.00    +0.000 NA
ATOM      8  C   UNL     1      46.368   3.870   7.561  0.00  0.00    +0.000 A 
ATOM      9  H   UNL     1      43.945   5.727   9.615  0.00  0.00    +0.000 HD
BRANCH   2  11
ATOM     10  N   UNL     1      48.563   2.452   6.403  0.00  0.00    +0.000 N 
ATOM     11  C   UNL     1      47.444   1.773   6.797  0.00  0.00    +0.000 C 
ATOM     12  O   UNL     1      47.261   0.605   6.473  0.00  0.00    +0.000 OA
ATOM     13  H   UNL     1      49.265   1.918   5.905  0.00  0.00    +0.000 HD
ATOM     14  H   UNL     1      48.872   3.299   6.866  0.00  0.00    +0.000 HD
ENDBRANCH   2  11
ENDBRANCH   1   6
BRANCH   1  15
ATOM     15  C   UNL     1      43.473   5.597  12.161  0.00  0.00    +0.000 C 
ATOM     16  F   UNL     1      43.049   6.741  11.546  0.00  0.00    +0.000 F 
ATOM     17  F   UNL     1      42.617   5.410  13.209  0.00  0.00    +0.000 F 
BRANCH  15  18
ATOM     18  C   UNL     1      44.915   5.693  12.622  0.00  0.00    +0.000 A 
ATOM     19  C   UNL     1      45.433   4.770  13.548  0.00  0.00    +0.000 A 
ATOM     20  C   UNL     1      46.780   4.802  13.909  0.00  0.00    +0.000 A 
ATOM     21  C   UNL     1      47.632   5.741  13.332  0.00  0.00    +0.000 A 
ATOM     22  C   UNL     1      47.137   6.654  12.396  0.00  0.00    +0.000 A 
ATOM     23  C   UNL     1      45.778   6.647  12.063  0.00  0.00    +0.000 A 
BRANCH  22  24
ATOM     24  C   UNL     1      48.079   7.480  11.640  0.00  0.00    +0.000 C 
ATOM     25  C   UNL     1      48.347   8.745  11.991  0.00  0.00    +0.000 C 
ATOM     26  C   UNL     1      47.857   9.606  13.143  0.00  0.00    +0.000 C 
ATOM     27  C   UNL     1      49.065  10.494  12.793  0.00  0.00    +0.000 C 
ATOM     28  C   UNL     1      49.178   9.855  11.392  0.00  0.00    +0.000 C 
ENDBRANCH  22  24
ENDBRANCH  15  18
ENDBRANCH   1  15
TORSDOF 5
ENDMDL
MODEL 3
REMARK VINA RESULT:    -8.697      2.004      4.142
REMARK INTER + INTRA:         -12.308
REMARK INTER:                 -11.706
REMARK INTRA:                  -0.602
REMARK UNBOUND:                -1.068
REMARK  Name = 
REMARK  5 active torsions:
REMARK  status: ('A' for Active; 'I' for Inactive)
REMARK    1  A    between atoms: C_2  and  C_4
REMARK    2  A    between atoms: N_8  and  C_9
REMARK    3  A    between atoms: C_9  and  C_10
REMARK    4  A    between atoms: C_10  and  C_13
REMARK    5  A    between atoms: C_17  and  C_18
REMARK                            x       y       z     vdW  Elec       q    Type
REMARK                         _______ _______ _______ _____ _____    ______ ____
ROOT
ATOM      1  C   UNL     1      43.367   3.987  11.250  0.00  0.00    +0.000 C 
ENDROOT
BRANCH   1   6
ATOM      2  C   UNL     1      46.602   2.730   7.513  0.00  0.00    +0.000 A 
ATOM      3  C   UNL     1      45.864   1.917   8.364  0.00  0.00    +0.000 A 
ATOM      4  C   UNL     1      44.914   2.497   9.202  0.00  0.00    +0.000 A 
ATOM      5  C   UNL     1      44.726   3.876   9.192  0.00  0.00    +0.000 A 
ATOM      6  N   UNL     1      43.738   4.505   9.926  0.00  0.00    +0.000 N 
ATOM      7  N   UNL     1      45.462   4.677   8.396  0.00  0.00    +0.000 NA
ATOM      8  C   UNL     1      46.384   4.096   7.580  0.00  0.00    +0.000 A 
ATOM      9  H   UNL     1      43.874   5.514   9.867  0.00  0.00    +0.000 HD
BRANCH   2  11
ATOM     10  N   UNL     1      47.911   2.969   5.483  0.00  0.00    +0.000 N 
ATOM     11  C   UNL     1      47.591   2.189   6.559  0.00  0.00    +0.000 C 
ATOM     12  O   UNL     1      48.128   1.102   6.739  0.00  0.00    +0.000 OA
ATOM     13  H   UNL     1      48.669   2.643   4.895  0.00  0.00    +0.000 HD
ATOM     14  H   UNL     1      47.701   3.960   5.452  0.00  0.00    +0.000 HD
ENDBRANCH   2  11
ENDBRANCH   1   6
BRANCH   1  15
ATOM     15  C   UNL     1      43.212   5.090  12.331  0.00  0.00    +0.000 C 
ATOM     16  F   UNL     1      42.280   5.990  11.897  0.00  0.00    +0.000 F 
ATOM     17  F   UNL     1      42.683   4.535  13.461  0.00  0.00    +0.000 F 
BRANCH  15  18
ATOM     18  C   UNL     1      44.558   5.739  12.599  0.00  0.00    +0.000 A 
ATOM     19  C   UNL     1      45.731   4.966  12.627  0.00  0.00    +0.000 A 
ATOM     20  C   UNL     1      46.978   5.570  12.788  0.00  0.00    +0.000 A 
ATOM     21  C   UNL     1      47.071   6.956  12.898  0.00  0.00    +0.000 A 
ATOM     22  C   UNL     1      45.915   7.740  12.853  0.00  0.00    +0.000 A 
ATOM     23  C   UNL     1      44.661   7.131  12.731  0.00  0.00    +0.000 A 
BRANCH  22  24
ATOM     24  C   UNL     1      46.044   9.193  12.748  0.00  0.00    +0.000 C 
ATOM     25  C   UNL     1      45.300   9.908  11.894  0.00  0.00    +0.000 C 
ATOM     26  C   UNL     1      44.208   9.508  10.917  0.00  0.00    +0.000 C 
ATOM     27  C   UNL     1      43.864  11.009  10.922  0.00  0.00    +0.000 C 
ATOM     28  C   UNL     1      45.252  11.364  11.495  0.00  0.00    +0.000 C 
ENDBRANCH  22  24
ENDBRANCH  15  18
ENDBRANCH   1  15
TORSDOF 5
ENDMDL
MODEL 4
REMARK VINA RESULT:    -8.613      2.251      2.701
REMARK INTER + INTRA:         -12.198
REMARK INTER:                 -11.223
REMARK INTRA:                  -0.976
REMARK UNBOUND:                -1.068
REMARK  Name = 
REMARK  5 active torsions:
REMARK  status: ('A' for Active; 'I' for Inactive)
REMARK    1  A    between atoms: C_2  and  C_4
REMARK    2  A    between atoms: N_8  and  C_9
REMARK    3  A    between atoms: C_9  and  C_10
REMARK    4  A    between atoms: C_10  and  C_13
REMARK    5  A    between atoms: C_17  and  C_18
REMARK                            x       y       z     vdW  Elec       q    Type
REMARK                         _______ _______ _______ _____ _____    ______ ____
ROOT
ATOM      1  C   UNL     1      43.606   4.256  11.149  0.00  0.00    +0.000 C 
ENDROOT
BRANCH   1   6
ATOM      2  C   UNL     1      46.702   2.799   7.366  0.00  0.00    +0.000 A 
ATOM      3  C   UNL     1      45.893   2.037   8.200  0.00  0.00    +0.000 A 
ATOM      4  C   UNL     1      45.002   2.681   9.057  0.00  0.00    +0.000 A 
ATOM      5  C   UNL     1      44.944   4.072   9.083  0.00  0.00    +0.000 A 
ATOM      6  N   UNL     1      44.020   4.771   9.837  0.00  0.00    +0.000 N 
ATOM      7  N   UNL     1      45.749   4.821   8.304  0.00  0.00    +0.000 NA
ATOM      8  C   UNL     1      46.611   4.178   7.470  0.00  0.00    +0.000 A 
ATOM      9  H   UNL     1      44.249   5.764   9.802  0.00  0.00    +0.000 HD
BRANCH   2  11
ATOM     10  N   UNL     1      47.944   2.930   5.285  0.00  0.00    +0.000 N 
ATOM     11  C   UNL     1      47.633   2.193   6.394  0.00  0.00    +0.000 C 
ATOM     12  O   UNL     1      48.135   1.092   6.588  0.00  0.00    +0.000 OA
ATOM     13  H   UNL     1      48.667   2.557   4.681  0.00  0.00    +0.000 HD
ATOM     14  H   UNL     1      47.770   3.927   5.233  0.00  0.00    +0.000 HD
ENDBRANCH   2  11
ENDBRANCH   1   6
BRANCH   1  15
ATOM     15  C   UNL     1      44.681   4.427  12.255  0.00  0.00    +0.000 C 
ATOM     16  F   UNL     1      44.083   4.237  13.470  0.00  0.00    +0.000 F 
ATOM     17  F   UNL     1      45.601   3.424  12.142  0.00  0.00    +0.000 F 
BRANCH  15  18
ATOM     18  C   UNL     1      45.324   5.797  12.138  0.00  0.00    +0.000 A 
ATOM     19  C   UNL     1      44.534   6.959  12.119  0.00  0.00    +0.000 A 
ATOM     20  C   UNL     1      45.125   8.222  12.099  0.00  0.00    +0.000 A 
ATOM     21  C   UNL     1      46.513   8.341  12.121  0.00  0.00    +0.000 A 
ATOM     22  C   UNL     1      47.313   7.196  12.160  0.00  0.00    +0.000 A 
ATOM     23  C   UNL     1      46.721   5.928  12.141  0.00  0.00    +0.000 A 
BRANCH  22  24
ATOM     24  C   UNL     1      48.748   7.338  12.406  0.00  0.00    +0.000 C 
ATOM     25  C   UNL     1      49.243   7.455  13.645  0.00  0.00    +0.000 C 
ATOM     26  C   UNL     1      48.578   7.446  15.011  0.00  0.00    +0.000 C 
ATOM     27  C   UNL     1      50.002   7.186  15.535  0.00  0.00    +0.000 C 
ATOM     28  C   UNL     1      50.622   7.694  14.215  0.00  0.00    +0.000 C 
ENDBRANCH  22  24
ENDBRANCH  15  18
ENDBRANCH   1  15
TORSDOF 5
ENDMDL
MODEL 5
REMARK VINA RESULT:    -8.118      4.128      7.960
REMARK INTER + INTRA:         -11.560
REMARK INTER:                 -10.717
REMARK INTRA:                  -0.843
REMARK UNBOUND:                -1.068
REMARK  Name = 
REMARK  5 active torsions:
REMARK  status: ('A' for Active; 'I' for Inactive)
REMARK    1  A    between atoms: C_2  and  C_4
REMARK    2  A    between atoms: N_8  and  C_9
REMARK    3  A    between atoms: C_9  and  C_10
REMARK    4  A    between atoms: C_10  and  C_13
REMARK    5  A    between atoms: C_17  and  C_18
REMARK                            x       y       z     vdW  Elec       q    Type
REMARK                         _______ _______ _______ _____ _____    ______ ____
ROOT
ATOM      1  C   UNL     1      45.887   5.891  13.101  0.00  0.00    +0.000 C 
ENDROOT
BRANCH   1   6
ATOM      2  C   UNL     1      48.551   4.451  17.205  0.00  0.00    +0.000 A 
ATOM      3  C   UNL     1      47.494   3.819  16.562  0.00  0.00    +0.000 A 
ATOM      4  C   UNL     1      47.034   4.330  15.349  0.00  0.00    +0.000 A 
ATOM      5  C   UNL     1      47.621   5.470  14.807  0.00  0.00    +0.000 A 
ATOM      6  N   UNL     1      47.278   5.973  13.566  0.00  0.00    +0.000 N 
ATOM      7  N   UNL     1      48.623   6.110  15.441  0.00  0.00    +0.000 NA
ATOM      8  C   UNL     1      49.064   5.598  16.622  0.00  0.00    +0.000 A 
ATOM      9  H   UNL     1      47.737   6.875  13.437  0.00  0.00    +0.000 HD
BRANCH   2  11
ATOM     10  N   UNL     1      48.346   3.119  19.223  0.00  0.00    +0.000 N 
ATOM     11  C   UNL     1      49.129   3.944  18.465  0.00  0.00    +0.000 C 
ATOM     12  O   UNL     1      50.275   4.220  18.802  0.00  0.00    +0.000 OA
ATOM     13  H   UNL     1      48.787   2.686  20.026  0.00  0.00    +0.000 HD
ATOM     14  H   UNL     1      47.523   2.661  18.849  0.00  0.00    +0.000 HD
ENDBRANCH   2  11
ENDBRANCH   1   6
BRANCH   1  15
ATOM     15  C   UNL     1      45.712   6.215  11.593  0.00  0.00    +0.000 C 
ATOM     16  F   UNL     1      44.789   7.215  11.472  0.00  0.00    +0.000 F 
ATOM     17  F   UNL     1      46.878   6.737  11.111  0.00  0.00    +0.000 F 
BRANCH  15  18
ATOM     18  C   UNL     1      45.304   4.961  10.843  0.00  0.00    +0.000 A 
ATOM     19  C   UNL     1      44.500   3.987  11.462  0.00  0.00    +0.000 A 
ATOM     20  C   UNL     1      44.053   2.875  10.748  0.00  0.00    +0.000 A 
ATOM     21  C   UNL     1      44.380   2.734   9.402  0.00  0.00    +0.000 A 
ATOM     22  C   UNL     1      45.162   3.704   8.767  0.00  0.00    +0.000 A 
ATOM     23  C   UNL     1      45.644   4.799   9.492  0.00  0.00    +0.000 A 
BRANCH  22  24
ATOM     24  C   UNL     1      45.311   3.657   7.312  0.00  0.00    +0.000 C 
ATOM     25  C   UNL     1      46.370   3.079   6.729  0.00  0.00    +0.000 C 
ATOM     26  C   UNL     1      47.576   2.355   7.302  0.00  0.00    +0.000 C 
ATOM     27  C   UNL     1      47.745   1.820   5.868  0.00  0.00    +0.000 C 
ATOM     28  C   UNL     1      46.848   2.942   5.303  0.00  0.00    +0.000 C 
ENDBRANCH  22  24
ENDBRANCH  15  18
ENDBRANCH   1  15
TORSDOF 5
ENDMDL
MODEL 6
REMARK VINA RESULT:    -8.059      4.334      8.274
REMARK INTER + INTRA:         -11.484
REMARK INTER:                 -10.707
REMARK INTRA:                  -0.776
REMARK UNBOUND:                -1.068
REMARK  Name = 
REMARK  5 active torsions:
REMARK  status: ('A' for Active; 'I' for Inactive)
REMARK    1  A    between atoms: C_2  and  C_4
REMARK    2  A    between atoms: N_8  and  C_9
REMARK    3  A    between atoms: C_9  and  C_10
REMARK    4  A    between atoms: C_10  and  C_13
REMARK    5  A    between atoms: C_17  and  C_18
REMARK                            x       y       z     vdW  Elec       q    Type
REMARK                         _______ _______ _______ _____ _____    ______ ____
ROOT
ATOM      1  C   UNL     1      46.782   5.169  13.382  0.00  0.00    +0.000 C 
ENDROOT
BRANCH   1   6
ATOM      2  C   UNL     1      48.614   4.409  18.081  0.00  0.00    +0.000 A 
ATOM      3  C   UNL     1      48.774   5.493  17.226  0.00  0.00    +0.000 A 
ATOM      4  C   UNL     1      48.033   5.543  16.047  0.00  0.00    +0.000 A 
ATOM      5  C   UNL     1      47.158   4.507  15.730  0.00  0.00    +0.000 A 
ATOM      6  N   UNL     1      46.325   4.539  14.628  0.00  0.00    +0.000 N 
ATOM      7  N   UNL     1      47.022   3.435  16.535  0.00  0.00    +0.000 NA
ATOM      8  C   UNL     1      47.750   3.401  17.685  0.00  0.00    +0.000 A 
ATOM      9  H   UNL     1      45.877   3.628  14.525  0.00  0.00    +0.000 HD
BRANCH   2  11
ATOM     10  N   UNL     1      48.636   3.756  20.418  0.00  0.00    +0.000 N 
ATOM     11  C   UNL     1      49.323   4.305  19.372  0.00  0.00    +0.000 C 
ATOM     12  O   UNL     1      50.488   4.664  19.494  0.00  0.00    +0.000 OA
ATOM     13  H   UNL     1      49.162   3.585  21.267  0.00  0.00    +0.000 HD
ATOM     14  H   UNL     1      47.792   3.211  20.284  0.00  0.00    +0.000 HD
ENDBRANCH   2  11
ENDBRANCH   1   6
BRANCH   1  15
ATOM     15  C   UNL     1      45.630   5.718  12.500  0.00  0.00    +0.000 C 
ATOM     16  F   UNL     1      44.617   6.129  13.321  0.00  0.00    +0.000 F 
ATOM     17  F   UNL     1      46.057   6.846  11.858  0.00  0.00    +0.000 F 
BRANCH  15  18
ATOM     18  C   UNL     1      45.179   4.650  11.520  0.00  0.00    +0.000 A 
ATOM     19  C   UNL     1      44.238   3.679  11.905  0.00  0.00    +0.000 A 
ATOM     20  C   UNL     1      43.758   2.748  10.982  0.00  0.00    +0.000 A 
ATOM     21  C   UNL     1      44.193   2.792   9.660  0.00  0.00    +0.000 A 
ATOM     22  C   UNL     1      45.113   3.764   9.257  0.00  0.00    +0.000 A 
ATOM     23  C   UNL     1      45.625   4.672  10.190  0.00  0.00    +0.000 A 
BRANCH  22  24
ATOM     24  C   UNL     1      45.388   3.936   7.831  0.00  0.00    +0.000 C 
ATOM     25  C   UNL     1      46.233   3.131   7.173  0.00  0.00    +0.000 C 
ATOM     26  C   UNL     1      47.042   1.924   7.618  0.00  0.00    +0.000 C 
ATOM     27  C   UNL     1      47.163   1.640   6.110  0.00  0.00    +0.000 C 
ATOM     28  C   UNL     1      46.780   3.095   5.765  0.00  0.00    +0.000 C 
ENDBRANCH  22  24
ENDBRANCH  15  18
ENDBRANCH   1  15
TORSDOF 5
ENDMDL
MODEL 7
REMARK VINA RESULT:    -7.601      1.571      2.125
REMARK INTER + INTRA:         -10.891
REMARK INTER:                 -10.006
REMARK INTRA:                  -0.885
REMARK UNBOUND:                -1.068
REMARK  Name = 
REMARK  5 active torsions:
REMARK  status: ('A' for Active; 'I' for Inactive)
REMARK    1  A    between atoms: C_2  and  C_4
REMARK    2  A    between atoms: N_8  and  C_9
REMARK    3  A    between atoms: C_9  and  C_10
REMARK    4  A    between atoms: C_10  and  C_13
REMARK    5  A    between atoms: C_17  and  C_18
REMARK                            x       y       z     vdW  Elec       q    Type
REMARK                         _______ _______ _______ _____ _____    ______ ____
ROOT
ATOM      1  C   UNL     1      43.946   5.320  10.988  0.00  0.00    +0.000 C 
ENDROOT
BRANCH   1   6
ATOM      2  C   UNL     1      46.331   2.024   7.911  0.00  0.00    +0.000 A 
ATOM      3  C   UNL     1      45.625   1.796   9.087  0.00  0.00    +0.000 A 
ATOM      4  C   UNL     1      44.915   2.846   9.666  0.00  0.00    +0.000 A 
ATOM      5  C   UNL     1      44.931   4.107   9.077  0.00  0.00    +0.000 A 
ATOM      6  N   UNL     1      44.174   5.165   9.545  0.00  0.00    +0.000 N 
ATOM      7  N   UNL     1      45.641   4.347   7.957  0.00  0.00    +0.000 NA
ATOM      8  C   UNL     1      46.328   3.312   7.400  0.00  0.00    +0.000 A 
ATOM      9  H   UNL     1      44.445   6.012   9.045  0.00  0.00    +0.000 HD
BRANCH   2  11
ATOM     10  N   UNL     1      46.780  -0.335   7.560  0.00  0.00    +0.000 N 
ATOM     11  C   UNL     1      47.066   0.955   7.208  0.00  0.00    +0.000 C 
ATOM     12  O   UNL     1      47.873   1.207   6.320  0.00  0.00    +0.000 OA
ATOM     13  H   UNL     1      47.204  -1.063   6.998  0.00  0.00    +0.000 HD
ATOM     14  H   UNL     1      45.944  -0.581   8.077  0.00  0.00    +0.000 HD
ENDBRANCH   2  11
ENDBRANCH   1   6
BRANCH   1  15
ATOM     15  C   UNL     1      44.991   6.227  11.692  0.00  0.00    +0.000 C 
ATOM     16  F   UNL     1      45.796   6.779  10.735  0.00  0.00    +0.000 F 
ATOM     17  F   UNL     1      44.346   7.280  12.275  0.00  0.00    +0.000 F 
BRANCH  15  18
ATOM     18  C   UNL     1      45.775   5.415  12.705  0.00  0.00    +0.000 A 
ATOM     19  C   UNL     1      45.778   4.010  12.649  0.00  0.00    +0.000 A 
ATOM     20  C   UNL     1      46.565   3.264  13.526  0.00  0.00    +0.000 A 
ATOM     21  C   UNL     1      47.379   3.911  14.452  0.00  0.00    +0.000 A 
ATOM     22  C   UNL     1      47.403   5.308  14.508  0.00  0.00    +0.000 A 
ATOM     23  C   UNL     1      46.584   6.056  13.656  0.00  0.00    +0.000 A 
BRANCH  22  24
ATOM     24  C   UNL     1      48.418   5.970  15.327  0.00  0.00    +0.000 C 
ATOM     25  C   UNL     1      48.456   5.825  16.658  0.00  0.00    +0.000 C 
ATOM     26  C   UNL     1      47.602   5.013  17.617  0.00  0.00    +0.000 C 
ATOM     27  C   UNL     1      48.762   5.240  18.603  0.00  0.00    +0.000 C 
ATOM     28  C   UNL     1      49.296   6.420  17.764  0.00  0.00    +0.000 C 
ENDBRANCH  22  24
ENDBRANCH  15  18
ENDBRANCH   1  15
TORSDOF 5
ENDMDL
MODEL 8
REMARK VINA RESULT:    -7.241      3.982      7.195
REMARK INTER + INTRA:         -10.426
REMARK INTER:                  -9.505
REMARK INTRA:                  -0.921
REMARK UNBOUND:                -1.068
REMARK  Name = 
REMARK  5 active torsions:
REMARK  status: ('A' for Active; 'I' for Inactive)
REMARK    1  A    between atoms: C_2  and  C_4
REMARK    2  A    between atoms: N_8  and  C_9
REMARK    3  A    between atoms: C_9  and  C_10
REMARK    4  A    between atoms: C_10  and  C_13
REMARK    5  A    between atoms: C_17  and  C_18
REMARK                            x       y       z     vdW  Elec       q    Type
REMARK                         _______ _______ _______ _____ _____    ______ ____
ROOT
ATOM      1  C   UNL     1      46.220   5.512  13.372  0.00  0.00    +0.000 C 
ENDROOT
BRANCH   1   6
ATOM      2  C   UNL     1      50.512   8.142  12.549  0.00  0.00    +0.000 A 
ATOM      3  C   UNL     1      49.692   7.470  11.650  0.00  0.00    +0.000 A 
ATOM      4  C   UNL     1      48.473   6.961  12.094  0.00  0.00    +0.000 A 
ATOM      5  C   UNL     1      48.098   7.113  13.426  0.00  0.00    +0.000 A 
ATOM      6  N   UNL     1      46.864   6.718  13.908  0.00  0.00    +0.000 N 
ATOM      7  N   UNL     1      48.902   7.733  14.313  0.00  0.00    +0.000 NA
ATOM      8  C   UNL     1      50.088   8.228  13.865  0.00  0.00    +0.000 A 
ATOM      9  H   UNL     1      46.864   6.806  14.925  0.00  0.00    +0.000 HD
BRANCH   2  11
ATOM     10  N   UNL     1      52.928   8.274  12.740  0.00  0.00    +0.000 N 
ATOM     11  C   UNL     1      51.794   8.755  12.147  0.00  0.00    +0.000 C 
ATOM     12  O   UNL     1      51.845   9.633  11.293  0.00  0.00    +0.000 OA
ATOM     13  H   UNL     1      53.809   8.620  12.380  0.00  0.00    +0.000 HD
ATOM     14  H   UNL     1      52.947   7.387  13.229  0.00  0.00    +0.000 HD
ENDBRANCH   2  11
ENDBRANCH   1   6
BRANCH   1  15
ATOM     15  C   UNL     1      45.007   5.809  12.451  0.00  0.00    +0.000 C 
ATOM     16  F   UNL     1      43.911   6.024  13.239  0.00  0.00    +0.000 F 
ATOM     17  F   UNL     1      45.221   6.988  11.796  0.00  0.00    +0.000 F 
BRANCH  15  18
ATOM     18  C   UNL     1      44.802   4.657  11.484  0.00  0.00    +0.000 A 
ATOM     19  C   UNL     1      44.041   3.536  11.858  0.00  0.00    +0.000 A 
ATOM     20  C   UNL     1      43.780   2.515  10.943  0.00  0.00    +0.000 A 
ATOM     21  C   UNL     1      44.255   2.613   9.638  0.00  0.00    +0.000 A 
ATOM     22  C   UNL     1      44.997   3.730   9.245  0.00  0.00    +0.000 A 
ATOM     23  C   UNL     1      45.293   4.735  10.172  0.00  0.00    +0.000 A 
BRANCH  22  24
ATOM     24  C   UNL     1      45.296   3.923   7.826  0.00  0.00    +0.000 C 
ATOM     25  C   UNL     1      46.180   3.150   7.180  0.00  0.00    +0.000 C 
ATOM     26  C   UNL     1      47.018   1.967   7.633  0.00  0.00    +0.000 C 
ATOM     27  C   UNL     1      47.180   1.698   6.126  0.00  0.00    +0.000 C 
ATOM     28  C   UNL     1      46.757   3.143   5.784  0.00  0.00    +0.000 C 
ENDBRANCH  22  24
ENDBRANCH  15  18
ENDBRANCH   1  15
TORSDOF 5
ENDMDL
MODEL 9
REMARK VINA RESULT:    -7.110      4.118      6.476
REMARK INTER + INTRA:         -10.256
REMARK INTER:                  -9.407
REMARK INTRA:                  -0.850
REMARK UNBOUND:                -1.068
REMARK  Name = 
REMARK  5 active torsions:
REMARK  status: ('A' for Active; 'I' for Inactive)
REMARK    1  A    between atoms: C_2  and  C_4
REMARK    2  A    between atoms: N_8  and  C_9
REMARK    3  A    between atoms: C_9  and  C_10
REMARK    4  A    between atoms: C_10  and  C_13
REMARK    5  A    between atoms: C_17  and  C_18
REMARK                            x       y       z     vdW  Elec       q    Type
REMARK                         _______ _______ _______ _____ _____    ______ ____
ROOT
ATOM      1  C   UNL     1      47.534   3.914  15.900  0.00  0.00    +0.000 C 
ENDROOT
BRANCH   1   6
ATOM      2  C   UNL     1      44.621   4.726  11.792  0.00  0.00    +0.000 A 
ATOM      3  C   UNL     1      45.161   5.634  12.697  0.00  0.00    +0.000 A 
ATOM      4  C   UNL     1      46.070   5.182  13.651  0.00  0.00    +0.000 A 
ATOM      5  C   UNL     1      46.414   3.834  13.702  0.00  0.00    +0.000 A 
ATOM      6  N   UNL     1      47.378   3.337  14.558  0.00  0.00    +0.000 N 
ATOM      7  N   UNL     1      45.870   2.940  12.852  0.00  0.00    +0.000 NA
ATOM      8  C   UNL     1      44.986   3.396  11.923  0.00  0.00    +0.000 A 
ATOM      9  H   UNL     1      47.367   2.317  14.513  0.00  0.00    +0.000 HD
BRANCH   2  11
ATOM     10  N   UNL     1      43.976   4.705   9.453  0.00  0.00    +0.000 N 
ATOM     11  C   UNL     1      43.692   5.133  10.720  0.00  0.00    +0.000 C 
ATOM     12  O   UNL     1      42.689   5.797  10.957  0.00  0.00    +0.000 OA
ATOM     13  H   UNL     1      43.278   4.892   8.743  0.00  0.00    +0.000 HD
ATOM     14  H   UNL     1      44.624   3.947   9.271  0.00  0.00    +0.000 HD
ENDBRANCH   2  11
ENDBRANCH   1   6
BRANCH   1  15
ATOM     15  C   UNL     1      48.103   2.920  16.946  0.00  0.00    +0.000 C 
ATOM     16  F   UNL     1      47.055   2.280  17.546  0.00  0.00    +0.000 F 
ATOM     17  F   UNL     1      48.803   1.942  16.298  0.00  0.00    +0.000 F 
BRANCH  15  18
ATOM     18  C   UNL     1      48.970   3.665  17.944  0.00  0.00    +0.000 A 
ATOM     19  C   UNL     1      50.364   3.731  17.772  0.00  0.00    +0.000 A 
ATOM     20  C   UNL     1      51.153   4.487  18.639  0.00  0.00    +0.000 A 
ATOM     21  C   UNL     1      50.559   5.204  19.674  0.00  0.00    +0.000 A 
ATOM     22  C   UNL     1      49.172   5.164  19.848  0.00  0.00    +0.000 A 
ATOM     23  C   UNL     1      48.384   4.376  19.002  0.00  0.00    +0.000 A 
BRANCH  22  24
ATOM     24  C   UNL     1      48.546   6.090  20.791  0.00  0.00    +0.000 C 
ATOM     25  C   UNL     1      48.125   7.305  20.415  0.00  0.00    +0.000 C 
ATOM     26  C   UNL     1      48.127   8.009  19.069  0.00  0.00    +0.000 C 
ATOM     27  C   UNL     1      47.102   8.949  19.729  0.00  0.00    +0.000 C 
ATOM     28  C   UNL     1      47.534   8.491  21.139  0.00  0.00    +0.000 C 
ENDBRANCH  22  24
ENDBRANCH  15  18
ENDBRANCH   1  15
TORSDOF 5
ENDMDL
