MODEL 1
REMARK VINA RESULT:    -9.168      0.000      0.000
REMARK INTER + INTRA:         -14.161
REMARK INTER:                 -12.920
REMARK INTRA:                  -1.241
REMARK UNBOUND:                -1.241
REMARK  Name = 
REMARK  7 active torsions:
REMARK  status: ('A' for Active; 'I' for Inactive)
REMARK    1  A    between atoms: C_2  and  C_4
REMARK    2  A    between atoms: C_7  and  N_8
REMARK    3  A    between atoms: N_8  and  C_9
REMARK    4  A    between atoms: C_9  and  C_10
REMARK    5  A    between atoms: C_10  and  C_13
REMARK    6  A    between atoms: C_15  and  N_16
REMARK    7  A    between atoms: C_23  and  C_24
REMARK                            x       y       z     vdW  Elec       q    Type
REMARK                         _______ _______ _______ _____ _____    ______ ____
ROOT
ATOM      1  C   UNL     1      44.210   4.698  12.589  0.00  0.00    +0.000 C 
ATOM      2  F   UNL     1      43.126   5.077  13.325  0.00  0.00    +0.000 F 
ATOM      3  F   UNL     1      44.206   3.331  12.612  0.00  0.00    +0.000 F 
ENDROOT
BRANCH   1   4
ATOM      4  C   UNL     1      45.500   5.285  13.135  0.00  0.00    +0.000 A 
ATOM      5  C   UNL     1      46.103   4.733  14.279  0.00  0.00    +0.000 A 
ATOM      6  C   UNL     1      47.327   5.199  14.776  0.00  0.00    +0.000 A 
ATOM      7  C   UNL     1      47.940   6.251  14.081  0.00  0.00    +0.000 A 
ATOM      8  C   UNL     1      47.378   6.811  12.920  0.00  0.00    +0.000 A 
ATOM      9  C   UNL     1      46.144   6.332  12.466  0.00  0.00    +0.000 A 
BRANCH   6  10
ATOM     10  N   UNL     1      47.928   4.637  15.880  0.00  0.00    +0.000 N 
ATOM     11  C   UNL     1      47.915   3.193  16.147  0.00  0.00    +0.000 C 
ATOM     12  C   UNL     1      47.304   2.899  17.534  0.00  0.00    +0.000 C 
ATOM     13  N   UNL     1      47.949   3.654  18.630  0.00  0.00    +0.000 NA
ATOM     14  C   UNL     1      47.879   5.097  18.313  0.00  0.00    +0.000 C 
ATOM     15  C   UNL     1      48.503   5.473  16.946  0.00  0.00    +0.000 C 
ATOM     16  H   UNL     1      48.932   3.387  18.659  0.00  0.00    +0.000 HD
ENDBRANCH   6  10
BRANCH   8  17
ATOM     17  C   UNL     1      48.118   7.869  12.138  0.00  0.00    +0.000 C 
ATOM     18  F   UNL     1      48.664   7.412  10.978  0.00  0.00    +0.000 F 
ATOM     19  F   UNL     1      47.302   8.901  11.783  0.00  0.00    +0.000 F 
ATOM     20  F   UNL     1      49.141   8.425  12.842  0.00  0.00    +0.000 F 
ENDBRANCH   8  17
ENDBRANCH   1   4
BRANCH   1  21
ATOM     21  C   UNL     1      44.019   5.158  11.119  0.00  0.00    +0.000 C 
BRANCH  21  22
ATOM     22  N   UNL     1      43.633   4.073  10.204  0.00  0.00    +0.000 N 
ATOM     23  H   UNL     1      43.005   3.379  10.607  0.00  0.00    +0.000 HD
BRANCH  22  27
ATOM     24  C   UNL     1      46.570   2.616   7.548  0.00  0.00    +0.000 A 
ATOM     25  C   UNL     1      45.857   1.717   8.342  0.00  0.00    +0.000 A 
ATOM     26  C   UNL     1      44.868   2.185   9.216  0.00  0.00    +0.000 A 
ATOM     27  C   UNL     1      44.546   3.547   9.294  0.00  0.00    +0.000 A 
ATOM     28  C   UNL     1      45.293   4.437   8.507  0.00  0.00    +0.000 A 
ATOM     29  C   UNL     1      46.299   3.981   7.646  0.00  0.00    +0.000 A 
BRANCH  24  31
ATOM     30  N   UNL     1      47.907   2.951   5.541  0.00  0.00    +0.000 N 
ATOM     31  C   UNL     1      47.642   2.161   6.625  0.00  0.00    +0.000 C 
ATOM     32  O   UNL     1      48.290   1.144   6.838  0.00  0.00    +0.000 OA
ATOM     33  H   UNL     1      48.708   2.690   4.983  0.00  0.00    +0.000 HD
ATOM     34  H   UNL     1      47.576   3.905   5.470  0.00  0.00    +0.000 HD
ENDBRANCH  24  31
ENDBRANCH  22  27
ENDBRANCH  21  22
ENDBRANCH   1  21
TORSDOF 7
ENDMDL
MODEL 2
REMARK VINA RESULT:    -8.962      0.808      1.325
REMARK INTER + INTRA:         -13.871
REMARK INTER:                 -12.874
REMARK INTRA:                  -0.997
REMARK UNBOUND:                -1.241
REMARK  Name = 
REMARK  7 active torsions:
REMARK  status: ('A' for Active; 'I' for Inactive)
REMARK    1  A    between atoms: C_2  and  C_4
REMARK    2  A    between atoms: C_7  and  N_8
REMARK    3  A    between atoms: N_8  and  C_9
REMARK    4  A    between atoms: C_9  and  C_10
REMARK    5  A    between atoms: C_10  and  C_13
REMARK    6  A    between atoms: C_15  and  N_16
REMARK    7  A    between atoms: C_23  and  C_24
REMARK                            x       y       z     vdW  Elec       q    Type
REMARK                         _______ _______ _______ _____ _____    ______ ____
ROOT
ATOM      1  C   UNL     1      44.645   4.683  12.522  0.00  0.00    +0.000 C 
ATOM      2  F   UNL     1      43.552   4.770  13.334  0.00  0.00    +0.000 F 
ATOM      3  F   UNL     1      44.771   3.354  12.222  0.00  0.00    +0.000 F 
ENDROOT
BRANCH   1   4
ATOM      4  C   UNL     1      45.889   5.251  13.181  0.00  0.00    +0.000 A 
ATOM      5  C   UNL     1      46.314   4.768  14.432  0.00  0.00    +0.000 A 
ATOM      6  C   UNL     1      47.492   5.215  15.043  0.00  0.00    +0.000 A 
ATOM      7  C   UNL     1      48.246   6.175  14.353  0.00  0.00    +0.000 A 
ATOM      8  C   UNL     1      47.865   6.662  13.091  0.00  0.00    +0.000 A 
ATOM      9  C   UNL     1      46.670   6.207  12.522  0.00  0.00    +0.000 A 
BRANCH   6  10
ATOM     10  N   UNL     1      47.919   4.719  16.255  0.00  0.00    +0.000 N 
ATOM     11  C   UNL     1      48.865   5.434  17.120  0.00  0.00    +0.000 C 
ATOM     12  C   UNL     1      50.100   4.558  17.423  0.00  0.00    +0.000 C 
ATOM     13  N   UNL     1      49.753   3.229  17.970  0.00  0.00    +0.000 NA
ATOM     14  C   UNL     1      48.840   2.552  17.023  0.00  0.00    +0.000 C 
ATOM     15  C   UNL     1      47.561   3.361  16.695  0.00  0.00    +0.000 C 
ATOM     16  H   UNL     1      49.249   3.370  18.845  0.00  0.00    +0.000 HD
ENDBRANCH   6  10
BRANCH   8  17
ATOM     17  C   UNL     1      48.755   7.616  12.331  0.00  0.00    +0.000 C 
ATOM     18  F   UNL     1      50.079   7.475  12.617  0.00  0.00    +0.000 F 
ATOM     19  F   UNL     1      48.646   7.447  10.984  0.00  0.00    +0.000 F 
ATOM     20  F   UNL     1      48.455   8.920  12.571  0.00  0.00    +0.000 F 
ENDBRANCH   8  17
ENDBRANCH   1   4
BRANCH   1  21
ATOM     21  C   UNL     1      44.367   5.451  11.203  0.00  0.00    +0.000 C 
BRANCH  21  22
ATOM     22  N   UNL     1      43.785   4.616  10.140  0.00  0.00    +0.000 N 
ATOM     23  H   UNL     1      42.907   4.162  10.388  0.00  0.00    +0.000 HD
BRANCH  22  27
ATOM     24  C   UNL     1      46.438   2.428   7.695  0.00  0.00    +0.000 A 
ATOM     25  C   UNL     1      45.592   1.747   8.571  0.00  0.00    +0.000 A 
ATOM     26  C   UNL     1      44.695   2.459   9.376  0.00  0.00    +0.000 A 
ATOM     27  C   UNL     1      44.598   3.856   9.304  0.00  0.00    +0.000 A 
ATOM     28  C   UNL     1      45.475   4.524   8.437  0.00  0.00    +0.000 A 
ATOM     29  C   UNL     1      46.391   3.822   7.643  0.00  0.00    +0.000 A 
BRANCH  24  31
ATOM     30  N   UNL     1      48.497   2.424   6.396  0.00  0.00    +0.000 N 
ATOM     31  C   UNL     1      47.419   1.711   6.840  0.00  0.00    +0.000 C 
ATOM     32  O   UNL     1      47.294   0.523   6.571  0.00  0.00    +0.000 OA
ATOM     33  H   UNL     1      49.210   1.899   5.910  0.00  0.00    +0.000 HD
ATOM     34  H   UNL     1      48.761   3.315   6.797  0.00  0.00    +0.000 HD
ENDBRANCH  24  31
ENDBRANCH  22  27
ENDBRANCH  21  22
ENDBRANCH   1  21
TORSDOF 7
ENDMDL
MODEL 3
REMARK VINA RESULT:    -8.916      2.552      4.063
REMARK INTER + INTRA:         -13.806
REMARK INTER:                 -12.523
REMARK INTRA:                  -1.283
REMARK UNBOUND:                -1.241
REMARK  Name = 
REMARK  7 active torsions:
REMARK  status: ('A' for Active; 'I' for Inactive)
REMARK    1  A    between atoms: C_2  and  C_4
REMARK    2  A    between atoms: C_7  and  N_8
REMARK    3  A    between atoms: N_8  and  C_9
REMARK    4  A    between atoms: C_9  and  C_10
REMARK    5  A    between atoms: C_10  and  C_13
REMARK    6  A    between atoms: C_15  and  N_16
REMARK    7  A    between atoms: C_23  and  C_24
REMARK                            x       y       z     vdW  Elec       q    Type
REMARK                         _______ _______ _______ _____ _____    ______ ____
ROOT
ATOM      1  C   UNL     1      44.042   4.963  12.429  0.00  0.00    +0.000 C 
ATOM      2  F   UNL     1      43.052   5.466  13.221  0.00  0.00    +0.000 F 
ATOM      3  F   UNL     1      43.779   3.624  12.324  0.00  0.00    +0.000 F 
ENDROOT
BRANCH   1   4
ATOM      4  C   UNL     1      45.421   5.241  12.999  0.00  0.00    +0.000 A 
ATOM      5  C   UNL     1      46.216   6.271  12.464  0.00  0.00    +0.000 A 
ATOM      6  C   UNL     1      47.465   6.606  13.004  0.00  0.00    +0.000 A 
ATOM      7  C   UNL     1      47.900   5.869  14.114  0.00  0.00    +0.000 A 
ATOM      8  C   UNL     1      47.122   4.850  14.689  0.00  0.00    +0.000 A 
ATOM      9  C   UNL     1      45.889   4.530  14.110  0.00  0.00    +0.000 A 
BRANCH   6  10
ATOM     10  N   UNL     1      48.228   7.633  12.494  0.00  0.00    +0.000 N 
ATOM     11  C   UNL     1      49.664   7.498  12.219  0.00  0.00    +0.000 C 
ATOM     12  C   UNL     1      50.470   8.570  12.981  0.00  0.00    +0.000 C 
ATOM     13  N   UNL     1      49.992   9.948  12.735  0.00  0.00    +0.000 NA
ATOM     14  C   UNL     1      48.556  10.017  13.082  0.00  0.00    +0.000 C 
ATOM     15  C   UNL     1      47.676   8.987  12.329  0.00  0.00    +0.000 C 
ATOM     16  H   UNL     1      50.083  10.139  11.738  0.00  0.00    +0.000 HD
ENDBRANCH   6  10
BRANCH   8  17
ATOM     17  C   UNL     1      47.575   4.150  15.947  0.00  0.00    +0.000 C 
ATOM     18  F   UNL     1      48.665   4.722  16.531  0.00  0.00    +0.000 F 
ATOM     19  F   UNL     1      46.604   4.143  16.903  0.00  0.00    +0.000 F 
ATOM     20  F   UNL     1      47.902   2.847  15.736  0.00  0.00    +0.000 F 
ENDBRANCH   8  17
ENDBRANCH   1   4
BRANCH   1  21
ATOM     21  C   UNL     1      43.935   5.589  11.013  0.00  0.00    +0.000 C 
BRANCH  21  22
ATOM     22  N   UNL     1      43.592   4.620   9.960  0.00  0.00    +0.000 N 
ATOM     23  H   UNL     1      42.756   4.067  10.147  0.00  0.00    +0.000 HD
BRANCH  22  27
ATOM     24  C   UNL     1      46.433   2.393   7.777  0.00  0.00    +0.000 A 
ATOM     25  C   UNL     1      46.390   3.780   7.631  0.00  0.00    +0.000 A 
ATOM     26  C   UNL     1      45.463   4.533   8.362  0.00  0.00    +0.000 A 
ATOM     27  C   UNL     1      44.586   3.929   9.274  0.00  0.00    +0.000 A 
ATOM     28  C   UNL     1      44.628   2.532   9.386  0.00  0.00    +0.000 A 
ATOM     29  C   UNL     1      45.536   1.767   8.643  0.00  0.00    +0.000 A 
BRANCH  24  31
ATOM     30  N   UNL     1      48.511   2.171   6.527  0.00  0.00    +0.000 N 
ATOM     31  C   UNL     1      47.387   1.556   7.003  0.00  0.00    +0.000 C 
ATOM     32  O   UNL     1      47.198   0.359   6.826  0.00  0.00    +0.000 OA
ATOM     33  H   UNL     1      49.201   1.570   6.098  0.00  0.00    +0.000 HD
ATOM     34  H   UNL     1      48.818   3.075   6.862  0.00  0.00    +0.000 HD
ENDBRANCH  24  31
ENDBRANCH  22  27
ENDBRANCH  21  22
ENDBRANCH   1  21
TORSDOF 7
ENDMDL
MODEL 4
REMARK VINA RESULT:    -8.457      2.851      3.723
REMARK INTER + INTRA:         -13.159
REMARK INTER:                 -12.035
REMARK INTRA:                  -1.124
REMARK UNBOUND:                -1.241
REMARK  Name = 
REMARK  7 active torsions:
REMARK  status: ('A' for Active; 'I' for Inactive)
REMARK    1  A    between atoms: C_2  and  C_4
REMARK    2  A    between atoms: C_7  and  N_8
REMARK    3  A    between atoms: N_8  and  C_9
REMARK    4  A    between atoms: C_9  and  C_10
REMARK    5  A    between atoms: C_10  and  C_13
REMARK    6  A    between atoms: C_15  and  N_16
REMARK    7  A    between atoms: C_23  and  C_24
REMARK                            x       y       z     vdW  Elec       q    Type
REMARK                         _______ _______ _______ _____ _____    ______ ____
ROOT
ATOM      1  C   UNL     1      43.737   4.936  12.394  0.00  0.00    +0.000 C 
ATOM      2  F   UNL     1      42.760   5.086  13.335  0.00  0.00    +0.000 F 
ATOM      3  F   UNL     1      44.441   3.827  12.775  0.00  0.00    +0.000 F 
ENDROOT
BRANCH   1   4
ATOM      4  C   UNL     1      44.612   6.171  12.282  0.00  0.00    +0.000 A 
ATOM      5  C   UNL     1      45.999   6.082  12.500  0.00  0.00    +0.000 A 
ATOM      6  C   UNL     1      46.851   7.181  12.340  0.00  0.00    +0.000 A 
ATOM      7  C   UNL     1      46.265   8.393  11.949  0.00  0.00    +0.000 A 
ATOM      8  C   UNL     1      44.888   8.514  11.699  0.00  0.00    +0.000 A 
ATOM      9  C   UNL     1      44.065   7.398  11.889  0.00  0.00    +0.000 A 
BRANCH   6  10
ATOM     10  N   UNL     1      48.213   7.083  12.528  0.00  0.00    +0.000 N 
ATOM     11  C   UNL     1      48.813   6.629  13.788  0.00  0.00    +0.000 C 
ATOM     12  C   UNL     1      49.790   7.689  14.341  0.00  0.00    +0.000 C 
ATOM     13  N   UNL     1      50.817   8.104  13.362  0.00  0.00    +0.000 NA
ATOM     14  C   UNL     1      50.137   8.593  12.143  0.00  0.00    +0.000 C 
ATOM     15  C   UNL     1      49.161   7.568  11.513  0.00  0.00    +0.000 C 
ATOM     16  H   UNL     1      51.362   7.280  13.108  0.00  0.00    +0.000 HD
ENDBRANCH   6  10
BRANCH   8  17
ATOM     17  C   UNL     1      44.308   9.806  11.176  0.00  0.00    +0.000 C 
ATOM     18  F   UNL     1      43.802  10.613  12.149  0.00  0.00    +0.000 F 
ATOM     19  F   UNL     1      45.242  10.554  10.524  0.00  0.00    +0.000 F 
ATOM     20  F   UNL     1      43.298   9.608  10.287  0.00  0.00    +0.000 F 
ENDBRANCH   8  17
ENDBRANCH   1   4
BRANCH   1  21
ATOM     21  C   UNL     1      43.083   4.644  11.018  0.00  0.00    +0.000 C 
BRANCH  21  22
ATOM     22  N   UNL     1      43.922   5.023   9.870  0.00  0.00    +0.000 N 
ATOM     23  H   UNL     1      43.479   5.664   9.212  0.00  0.00    +0.000 HD
BRANCH  22  27
ATOM     24  C   UNL     1      46.314   2.109   7.976  0.00  0.00    +0.000 A 
ATOM     25  C   UNL     1      46.487   3.455   7.651  0.00  0.00    +0.000 A 
ATOM     26  C   UNL     1      45.711   4.434   8.284  0.00  0.00    +0.000 A 
ATOM     27  C   UNL     1      44.775   4.099   9.272  0.00  0.00    +0.000 A 
ATOM     28  C   UNL     1      44.598   2.739   9.565  0.00  0.00    +0.000 A 
ATOM     29  C   UNL     1      45.353   1.751   8.922  0.00  0.00    +0.000 A 
BRANCH  24  31
ATOM     30  N   UNL     1      46.804  -0.253   7.646  0.00  0.00    +0.000 N 
ATOM     31  C   UNL     1      47.101   1.039   7.311  0.00  0.00    +0.000 C 
ATOM     32  O   UNL     1      47.956   1.292   6.470  0.00  0.00    +0.000 OA
ATOM     33  H   UNL     1      47.268  -0.972   7.109  0.00  0.00    +0.000 HD
ATOM     34  H   UNL     1      45.954  -0.505   8.133  0.00  0.00    +0.000 HD
ENDBRANCH  24  31
ENDBRANCH  22  27
ENDBRANCH  21  22
ENDBRANCH   1  21
TORSDOF 7
ENDMDL
MODEL 5
REMARK VINA RESULT:    -7.355      2.766      4.081
REMARK INTER + INTRA:         -11.606
REMARK INTER:                 -10.667
REMARK INTRA:                  -0.939
REMARK UNBOUND:                -1.241
REMARK  Name = 
REMARK  7 active torsions:
REMARK  status: ('A' for Active; 'I' for Inactive)
REMARK    1  A    between atoms: C_2  and  C_4
REMARK    2  A    between atoms: C_7  and  N_8
REMARK    3  A    between atoms: N_8  and  C_9
REMARK    4  A    between atoms: C_9  and  C_10
REMARK    5  A    between atoms: C_10  and  C_13
REMARK    6  A    between atoms: C_15  and  N_16
REMARK    7  A    between atoms: C_23  and  C_24
REMARK                            x       y       z     vdW  Elec       q    Type
REMARK                         _______ _______ _______ _____ _____    ______ ____
ROOT
ATOM      1  C   UNL     1      46.067   6.175  12.160  0.00  0.00    +0.000 C 
ATOM      2  F   UNL     1      46.778   6.344  11.008  0.00  0.00    +0.000 F 
ATOM      3  F   UNL     1      45.186   7.221  12.200  0.00  0.00    +0.000 F 
ENDROOT
BRANCH   1   4
ATOM      4  C   UNL     1      46.968   6.127  13.381  0.00  0.00    +0.000 A 
ATOM      5  C   UNL     1      47.711   7.259  13.760  0.00  0.00    +0.000 A 
ATOM      6  C   UNL     1      48.501   7.280  14.917  0.00  0.00    +0.000 A 
ATOM      7  C   UNL     1      48.524   6.115  15.697  0.00  0.00    +0.000 A 
ATOM      8  C   UNL     1      47.775   4.973  15.362  0.00  0.00    +0.000 A 
ATOM      9  C   UNL     1      47.014   4.984  14.187  0.00  0.00    +0.000 A 
BRANCH   6  10
ATOM     10  N   UNL     1      49.206   8.399  15.301  0.00  0.00    +0.000 N 
ATOM     11  C   UNL     1      49.672   9.413  14.346  0.00  0.00    +0.000 C 
ATOM     12  C   UNL     1      51.200   9.602  14.452  0.00  0.00    +0.000 C 
ATOM     13  N   UNL     1      51.660   9.891  15.827  0.00  0.00    +0.000 NA
ATOM     14  C   UNL     1      51.196   8.805  16.717  0.00  0.00    +0.000 C 
ATOM     15  C   UNL     1      49.664   8.577  16.687  0.00  0.00    +0.000 C 
ATOM     16  H   UNL     1      51.217  10.757  16.132  0.00  0.00    +0.000 HD
ENDBRANCH   6  10
BRANCH   8  17
ATOM     17  C   UNL     1      47.740   3.776  16.280  0.00  0.00    +0.000 C 
ATOM     18  F   UNL     1      48.745   3.760  17.198  0.00  0.00    +0.000 F 
ATOM     19  F   UNL     1      46.583   3.719  16.997  0.00  0.00    +0.000 F 
ATOM     20  F   UNL     1      47.823   2.596  15.609  0.00  0.00    +0.000 F 
ENDBRANCH   8  17
ENDBRANCH   1   4
BRANCH   1  21
ATOM     21  C   UNL     1      45.251   4.858  12.072  0.00  0.00    +0.000 C 
BRANCH  21  22
ATOM     22  N   UNL     1      44.502   4.707  10.815  0.00  0.00    +0.000 N 
ATOM     23  H   UNL     1      43.496   4.595  10.930  0.00  0.00    +0.000 HD
BRANCH  22  27
ATOM     24  C   UNL     1      46.326   2.626   7.630  0.00  0.00    +0.000 A 
ATOM     25  C   UNL     1      45.701   1.907   8.651  0.00  0.00    +0.000 A 
ATOM     26  C   UNL     1      45.078   2.586   9.705  0.00  0.00    +0.000 A 
ATOM     27  C   UNL     1      45.034   3.986   9.749  0.00  0.00    +0.000 A 
ATOM     28  C   UNL     1      45.690   4.689   8.728  0.00  0.00    +0.000 A 
ATOM     29  C   UNL     1      46.335   4.020   7.680  0.00  0.00    +0.000 A 
BRANCH  24  31
ATOM     30  N   UNL     1      47.461   2.729   5.479  0.00  0.00    +0.000 N 
ATOM     31  C   UNL     1      47.018   1.943   6.505  0.00  0.00    +0.000 C 
ATOM     32  O   UNL     1      47.218   0.735   6.508  0.00  0.00    +0.000 OA
ATOM     33  H   UNL     1      48.023   2.270   4.776  0.00  0.00    +0.000 HD
ATOM     34  H   UNL     1      47.538   3.735   5.559  0.00  0.00    +0.000 HD
ENDBRANCH  24  31
ENDBRANCH  22  27
ENDBRANCH  21  22
ENDBRANCH   1  21
TORSDOF 7
ENDMDL
MODEL 6
REMARK VINA RESULT:    -7.305      3.346      7.609
REMARK INTER + INTRA:         -11.535
REMARK INTER:                 -10.470
REMARK INTRA:                  -1.065
REMARK UNBOUND:                -1.241
REMARK  Name = 
REMARK  7 active torsions:
REMARK  status: ('A' for Active; 'I' for Inactive)
REMARK    1  A    between atoms: C_2  and  C_4
REMARK    2  A    between atoms: C_7  and  N_8
REMARK    3  A    between atoms: N_8  and  C_9
REMARK    4  A    between atoms: C_9  and  C_10
REMARK    5  A    between atoms: C_10  and  C_13
REMARK    6  A    between atoms: C_15  and  N_16
REMARK    7  A    between atoms: C_23  and  C_24
REMARK                            x       y       z     vdW  Elec       q    Type
REMARK                         _______ _______ _______ _____ _____    ______ ____
ROOT
ATOM      1  C   UNL     1      47.735   6.423  14.178  0.00  0.00    +0.000 C 
ATOM      2  F   UNL     1      47.904   7.471  15.035  0.00  0.00    +0.000 F 
ATOM      3  F   UNL     1      48.978   6.168  13.666  0.00  0.00    +0.000 F 
ENDROOT
BRANCH   1   4
ATOM      4  C   UNL     1      46.714   6.733  13.098  0.00  0.00    +0.000 A 
ATOM      5  C   UNL     1      46.024   5.691  12.452  0.00  0.00    +0.000 A 
ATOM      6  C   UNL     1      45.026   5.935  11.500  0.00  0.00    +0.000 A 
ATOM      7  C   UNL     1      44.733   7.275  11.209  0.00  0.00    +0.000 A 
ATOM      8  C   UNL     1      45.385   8.342  11.852  0.00  0.00    +0.000 A 
ATOM      9  C   UNL     1      46.391   8.058  12.783  0.00  0.00    +0.000 A 
BRANCH   6  10
ATOM     10  N   UNL     1      44.334   4.913  10.890  0.00  0.00    +0.000 N 
ATOM     11  C   UNL     1      43.190   4.239  11.518  0.00  0.00    +0.000 C 
ATOM     12  C   UNL     1      43.435   2.718  11.611  0.00  0.00    +0.000 C 
ATOM     13  N   UNL     1      43.790   2.102  10.314  0.00  0.00    +0.000 NA
ATOM     14  C   UNL     1      44.975   2.799   9.770  0.00  0.00    +0.000 C 
ATOM     15  C   UNL     1      44.791   4.330   9.619  0.00  0.00    +0.000 C 
ATOM     16  H   UNL     1      43.014   2.255   9.671  0.00  0.00    +0.000 HD
ENDBRANCH   6  10
BRANCH   8  17
ATOM     17  C   UNL     1      44.970   9.769  11.592  0.00  0.00    +0.000 C 
ATOM     18  F   UNL     1      44.152  10.286  12.551  0.00  0.00    +0.000 F 
ATOM     19  F   UNL     1      46.042  10.607  11.530  0.00  0.00    +0.000 F 
ATOM     20  F   UNL     1      44.308   9.918  10.413  0.00  0.00    +0.000 F 
ENDBRANCH   8  17
ENDBRANCH   1   4
BRANCH   1  21
ATOM     21  C   UNL     1      47.275   5.175  14.976  0.00  0.00    +0.000 C 
BRANCH  21  22
ATOM     22  N   UNL     1      47.693   5.186  16.387  0.00  0.00    +0.000 N 
ATOM     23  H   UNL     1      47.654   6.101  16.835  0.00  0.00    +0.000 HD
BRANCH  22  27
ATOM     24  C   UNL     1      50.870   2.648  17.510  0.00  0.00    +0.000 A 
ATOM     25  C   UNL     1      51.043   4.032  17.571  0.00  0.00    +0.000 A 
ATOM     26  C   UNL     1      49.991   4.885  17.217  0.00  0.00    +0.000 A 
ATOM     27  C   UNL     1      48.741   4.384  16.828  0.00  0.00    +0.000 A 
ATOM     28  C   UNL     1      48.596   2.991  16.749  0.00  0.00    +0.000 A 
ATOM     29  C   UNL     1      49.649   2.129  17.079  0.00  0.00    +0.000 A 
BRANCH  24  31
ATOM     30  N   UNL     1      51.636   0.391  18.005  0.00  0.00    +0.000 N 
ATOM     31  C   UNL     1      51.968   1.708  17.855  0.00  0.00    +0.000 C 
ATOM     32  O   UNL     1      53.129   2.084  17.967  0.00  0.00    +0.000 OA
ATOM     33  H   UNL     1      52.406  -0.252  18.131  0.00  0.00    +0.000 HD
ATOM     34  H   UNL     1      50.756   0.012  17.678  0.00  0.00    +0.000 HD
ENDBRANCH  24  31
ENDBRANCH  22  27
ENDBRANCH  21  22
ENDBRANCH   1  21
TORSDOF 7
ENDMDL
MODEL 7
REMARK VINA RESULT:    -7.036      3.976      7.075
REMARK INTER + INTRA:         -11.156
REMARK INTER:                  -9.922
REMARK INTRA:                  -1.234
REMARK UNBOUND:                -1.241
REMARK  Name = 
REMARK  7 active torsions:
REMARK  status: ('A' for Active; 'I' for Inactive)
REMARK    1  A    between atoms: C_2  and  C_4
REMARK    2  A    between atoms: C_7  and  N_8
REMARK    3  A    between atoms: N_8  and  C_9
REMARK    4  A    between atoms: C_9  and  C_10
REMARK    5  A    between atoms: C_10  and  C_13
REMARK    6  A    between atoms: C_15  and  N_16
REMARK    7  A    between atoms: C_23  and  C_24
REMARK                            x       y       z     vdW  Elec       q    Type
REMARK                         _______ _______ _______ _____ _____    ______ ____
ROOT
ATOM      1  C   UNL     1      48.817   8.059  12.990  0.00  0.00    +0.000 C 
ATOM      2  F   UNL     1      49.037   8.070  11.643  0.00  0.00    +0.000 F 
ATOM      3  F   UNL     1      50.059   8.052  13.562  0.00  0.00    +0.000 F 
ENDROOT
BRANCH   1   4
ATOM      4  C   UNL     1      47.973   6.871  13.417  0.00  0.00    +0.000 A 
ATOM      5  C   UNL     1      46.995   6.347  12.552  0.00  0.00    +0.000 A 
ATOM      6  C   UNL     1      46.243   5.211  12.879  0.00  0.00    +0.000 A 
ATOM      7  C   UNL     1      46.505   4.605  14.116  0.00  0.00    +0.000 A 
ATOM      8  C   UNL     1      47.491   5.087  14.994  0.00  0.00    +0.000 A 
ATOM      9  C   UNL     1      48.207   6.236  14.642  0.00  0.00    +0.000 A 
BRANCH   6  10
ATOM     10  N   UNL     1      45.306   4.684  12.018  0.00  0.00    +0.000 N 
ATOM     11  C   UNL     1      44.370   5.516  11.252  0.00  0.00    +0.000 C 
ATOM     12  C   UNL     1      42.911   5.110  11.546  0.00  0.00    +0.000 C 
ATOM     13  N   UNL     1      42.653   3.668  11.346  0.00  0.00    +0.000 NA
ATOM     14  C   UNL     1      43.598   2.898  12.184  0.00  0.00    +0.000 C 
ATOM     15  C   UNL     1      45.087   3.232  11.921  0.00  0.00    +0.000 C 
ATOM     16  H   UNL     1      42.848   3.446  10.370  0.00  0.00    +0.000 HD
ENDBRANCH   6  10
BRANCH   8  17
ATOM     17  C   UNL     1      47.817   4.347  16.268  0.00  0.00    +0.000 C 
ATOM     18  F   UNL     1      47.980   3.006  16.097  0.00  0.00    +0.000 F 
ATOM     19  F   UNL     1      48.976   4.791  16.830  0.00  0.00    +0.000 F 
ATOM     20  F   UNL     1      46.858   4.491  17.221  0.00  0.00    +0.000 F 
ENDBRANCH   8  17
ENDBRANCH   1   4
BRANCH   1  21
ATOM     21  C   UNL     1      48.101   9.372  13.404  0.00  0.00    +0.000 C 
BRANCH  21  22
ATOM     22  N   UNL     1      47.643  10.183  12.264  0.00  0.00    +0.000 N 
ATOM     23  H   UNL     1      48.112  11.083  12.167  0.00  0.00    +0.000 HD
BRANCH  22  27
ATOM     24  C   UNL     1      43.646  10.313  10.921  0.00  0.00    +0.000 A 
ATOM     25  C   UNL     1      44.165   9.115  11.417  0.00  0.00    +0.000 A 
ATOM     26  C   UNL     1      45.485   9.063  11.881  0.00  0.00    +0.000 A 
ATOM     27  C   UNL     1      46.302  10.201  11.893  0.00  0.00    +0.000 A 
ATOM     28  C   UNL     1      45.770  11.388  11.367  0.00  0.00    +0.000 A 
ATOM     29  C   UNL     1      44.459  11.446  10.880  0.00  0.00    +0.000 A 
BRANCH  24  31
ATOM     30  N   UNL     1      41.310   9.632  11.009  0.00  0.00    +0.000 N 
ATOM     31  C   UNL     1      42.258  10.405  10.399  0.00  0.00    +0.000 C 
ATOM     32  O   UNL     1      41.961  11.164   9.485  0.00  0.00    +0.000 OA
ATOM     33  H   UNL     1      40.355   9.785  10.718  0.00  0.00    +0.000 HD
ATOM     34  H   UNL     1      41.463   9.195  11.909  0.00  0.00    +0.000 HD
ENDBRANCH  24  31
ENDBRANCH  22  27
ENDBRANCH  21  22
ENDBRANCH   1  21
TORSDOF 7
ENDMDL
MODEL 8
REMARK VINA RESULT:    -6.819      3.557      7.525
REMARK INTER + INTRA:         -10.850
REMARK INTER:                  -9.502
REMARK INTRA:                  -1.348
REMARK UNBOUND:                -1.241
REMARK  Name = 
REMARK  7 active torsions:
REMARK  status: ('A' for Active; 'I' for Inactive)
REMARK    1  A    between atoms: C_2  and  C_4
REMARK    2  A    between atoms: C_7  and  N_8
REMARK    3  A    between atoms: N_8  and  C_9
REMARK    4  A    between atoms: C_9  and  C_10
REMARK    5  A    between atoms: C_10  and  C_13
REMARK    6  A    between atoms: C_15  and  N_16
REMARK    7  A    between atoms: C_23  and  C_24
REMARK                            x       y       z     vdW  Elec       q    Type
REMARK                         _______ _______ _______ _____ _____    ______ ____
ROOT
ATOM      1  C   UNL     1      49.348   8.189  12.708  0.00  0.00    +0.000 C 
ATOM      2  F   UNL     1      50.031   9.109  11.968  0.00  0.00    +0.000 F 
ATOM      3  F   UNL     1      50.029   7.014  12.546  0.00  0.00    +0.000 F 
ENDROOT
BRANCH   1   4
ATOM      4  C   UNL     1      47.895   8.082  12.282  0.00  0.00    +0.000 A 
ATOM      5  C   UNL     1      47.279   6.823  12.167  0.00  0.00    +0.000 A 
ATOM      6  C   UNL     1      45.923   6.683  11.844  0.00  0.00    +0.000 A 
ATOM      7  C   UNL     1      45.190   7.860  11.636  0.00  0.00    +0.000 A 
ATOM      8  C   UNL     1      45.767   9.135  11.765  0.00  0.00    +0.000 A 
ATOM      9  C   UNL     1      47.129   9.235  12.070  0.00  0.00    +0.000 A 
BRANCH   6  10
ATOM     10  N   UNL     1      45.316   5.449  11.760  0.00  0.00    +0.000 N 
ATOM     11  C   UNL     1      45.010   4.797  10.481  0.00  0.00    +0.000 C 
ATOM     12  C   UNL     1      43.506   4.467  10.381  0.00  0.00    +0.000 C 
ATOM     13  N   UNL     1      43.002   3.684  11.530  0.00  0.00    +0.000 NA
ATOM     14  C   UNL     1      43.302   4.426  12.774  0.00  0.00    +0.000 C 
ATOM     15  C   UNL     1      44.802   4.767  12.957  0.00  0.00    +0.000 C 
ATOM     16  H   UNL     1      43.514   2.803  11.560  0.00  0.00    +0.000 HD
ENDBRANCH   6  10
BRANCH   8  17
ATOM     17  C   UNL     1      44.923  10.380  11.639  0.00  0.00    +0.000 C 
ATOM     18  F   UNL     1      43.745  10.315  12.319  0.00  0.00    +0.000 F 
ATOM     19  F   UNL     1      45.566  11.481  12.118  0.00  0.00    +0.000 F 
ATOM     20  F   UNL     1      44.598  10.668  10.350  0.00  0.00    +0.000 F 
ENDBRANCH   8  17
ENDBRANCH   1   4
BRANCH   1  21
ATOM     21  C   UNL     1      49.415   8.584  14.207  0.00  0.00    +0.000 C 
BRANCH  21  22
ATOM     22  N   UNL     1      50.246   7.683  15.022  0.00  0.00    +0.000 N 
ATOM     23  H   UNL     1      51.126   7.408  14.588  0.00  0.00    +0.000 HD
BRANCH  22  27
ATOM     24  C   UNL     1      48.462   4.536  17.192  0.00  0.00    +0.000 A 
ATOM     25  C   UNL     1      49.737   4.978  17.548  0.00  0.00    +0.000 A 
ATOM     26  C   UNL     1      50.333   6.032  16.847  0.00  0.00    +0.000 A 
ATOM     27  C   UNL     1      49.665   6.688  15.804  0.00  0.00    +0.000 A 
ATOM     28  C   UNL     1      48.396   6.212  15.445  0.00  0.00    +0.000 A 
ATOM     29  C   UNL     1      47.799   5.143  16.125  0.00  0.00    +0.000 A 
BRANCH  24  31
ATOM     30  N   UNL     1      48.357   3.000  19.078  0.00  0.00    +0.000 N 
ATOM     31  C   UNL     1      47.803   3.405  17.897  0.00  0.00    +0.000 C 
ATOM     32  O   UNL     1      46.786   2.878  17.462  0.00  0.00    +0.000 OA
ATOM     33  H   UNL     1      47.839   2.306  19.600  0.00  0.00    +0.000 HD
ATOM     34  H   UNL     1      49.030   3.562  19.584  0.00  0.00    +0.000 HD
ENDBRANCH  24  31
ENDBRANCH  22  27
ENDBRANCH  21  22
ENDBRANCH   1  21
TORSDOF 7
ENDMDL
MODEL 9
REMARK VINA RESULT:    -6.740      3.747      7.880
REMARK INTER + INTRA:         -10.740
REMARK INTER:                  -9.894
REMARK INTRA:                  -0.845
REMARK UNBOUND:                -1.241
REMARK  Name = 
REMARK  7 active torsions:
REMARK  status: ('A' for Active; 'I' for Inactive)
REMARK    1  A    between atoms: C_2  and  C_4
REMARK    2  A    between atoms: C_7  and  N_8
REMARK    3  A    between atoms: N_8  and  C_9
REMARK    4  A    between atoms: C_9  and  C_10
REMARK    5  A    between atoms: C_10  and  C_13
REMARK    6  A    between atoms: C_15  and  N_16
REMARK    7  A    between atoms: C_23  and  C_24
REMARK                            x       y       z     vdW  Elec       q    Type
REMARK                         _______ _______ _______ _____ _____    ______ ____
ROOT
ATOM      1  C   UNL     1      47.731   4.607  16.140  0.00  0.00    +0.000 C 
ATOM      2  F   UNL     1      47.820   3.246  16.100  0.00  0.00    +0.000 F 
ATOM      3  F   UNL     1      46.763   4.881  17.066  0.00  0.00    +0.000 F 
ENDROOT
BRANCH   1   4
ATOM      4  C   UNL     1      47.414   5.195  14.776  0.00  0.00    +0.000 A 
ATOM      5  C   UNL     1      46.349   4.684  14.013  0.00  0.00    +0.000 A 
ATOM      6  C   UNL     1      45.980   5.242  12.782  0.00  0.00    +0.000 A 
ATOM      7  C   UNL     1      46.720   6.344  12.331  0.00  0.00    +0.000 A 
ATOM      8  C   UNL     1      47.775   6.895  13.079  0.00  0.00    +0.000 A 
ATOM      9  C   UNL     1      48.128   6.298  14.294  0.00  0.00    +0.000 A 
BRANCH   6  10
ATOM     10  N   UNL     1      44.919   4.757  12.050  0.00  0.00    +0.000 N 
ATOM     11  C   UNL     1      43.721   4.177  12.670  0.00  0.00    +0.000 C 
ATOM     12  C   UNL     1      43.479   2.742  12.157  0.00  0.00    +0.000 C 
ATOM     13  N   UNL     1      43.432   2.649  10.682  0.00  0.00    +0.000 NA
ATOM     14  C   UNL     1      44.688   3.204  10.134  0.00  0.00    +0.000 C 
ATOM     15  C   UNL     1      44.983   4.657  10.583  0.00  0.00    +0.000 C 
ATOM     16  H   UNL     1      42.663   3.232  10.354  0.00  0.00    +0.000 HD
ENDBRANCH   6  10
BRANCH   8  17
ATOM     17  C   UNL     1      48.479   8.146  12.613  0.00  0.00    +0.000 C 
ATOM     18  F   UNL     1      49.265   8.720  13.566  0.00  0.00    +0.000 F 
ATOM     19  F   UNL     1      49.300   7.902  11.553  0.00  0.00    +0.000 F 
ATOM     20  F   UNL     1      47.616   9.115  12.203  0.00  0.00    +0.000 F 
ENDBRANCH   8  17
ENDBRANCH   1   4
BRANCH   1  21
ATOM     21  C   UNL     1      49.072   5.194  16.653  0.00  0.00    +0.000 C 
BRANCH  21  22
ATOM     22  N   UNL     1      49.602   4.512  17.844  0.00  0.00    +0.000 N 
ATOM     23  H   UNL     1      49.713   5.109  18.663  0.00  0.00    +0.000 HD
BRANCH  22  27
ATOM     24  C   UNL     1      52.607   1.553  17.724  0.00  0.00    +0.000 A 
ATOM     25  C   UNL     1      51.305   1.224  17.346  0.00  0.00    +0.000 A 
ATOM     26  C   UNL     1      50.302   2.200  17.366  0.00  0.00    +0.000 A 
ATOM     27  C   UNL     1      50.578   3.526  17.727  0.00  0.00    +0.000 A 
ATOM     28  C   UNL     1      51.887   3.830  18.129  0.00  0.00    +0.000 A 
ATOM     29  C   UNL     1      52.893   2.856  18.134  0.00  0.00    +0.000 A 
BRANCH  24  31
ATOM     30  N   UNL     1      53.462  -0.615  18.431  0.00  0.00    +0.000 N 
ATOM     31  C   UNL     1      53.695   0.541  17.739  0.00  0.00    +0.000 C 
ATOM     32  O   UNL     1      54.744   0.711  17.130  0.00  0.00    +0.000 OA
ATOM     33  H   UNL     1      54.162  -1.337  18.343  0.00  0.00    +0.000 HD
ATOM     34  H   UNL     1      52.534  -0.892  18.726  0.00  0.00    +0.000 HD
ENDBRANCH  24  31
ENDBRANCH  22  27
ENDBRANCH  21  22
ENDBRANCH   1  21
TORSDOF 7
ENDMDL
