MODEL 1
REMARK VINA RESULT:    -9.090      0.000      0.000
REMARK INTER + INTRA:         -12.667
REMARK INTER:                 -11.747
REMARK INTRA:                  -0.921
REMARK UNBOUND:                -0.921
REMARK  Name = 
REMARK  5 active torsions:
REMARK  status: ('A' for Active; 'I' for Inactive)
REMARK    1  A    between atoms: C_2  and  C_4
REMARK    2  A    between atoms: C_7  and  O_8
REMARK    3  A    between atoms: O_8  and  C_9
REMARK    4  A    between atoms: C_9  and  C_10
REMARK    5  A    between atoms: C_14  and  C_15
REMARK                            x       y       z     vdW  Elec       q    Type
REMARK                         _______ _______ _______ _____ _____    ______ ____
ROOT
ATOM      1  C   UNL     1      44.235   4.591  11.642  0.00  0.00    +0.000 C 
ATOM      2  C   UNL     1      43.454   3.654  12.541  0.00  0.00    +0.000 C 
ATOM      3  C   UNL     1      43.022   5.074  12.432  0.00  0.00    +0.000 C 
ENDROOT
BRANCH   1   4
ATOM      4  C   UNL     1      45.592   5.129  12.109  0.00  0.00    +0.000 A 
ATOM      5  C   UNL     1      46.226   6.211  11.483  0.00  0.00    +0.000 A 
ATOM      6  C   UNL     1      47.335   6.832  12.067  0.00  0.00    +0.000 A 
ATOM      7  C   UNL     1      47.814   6.399  13.307  0.00  0.00    +0.000 A 
ATOM      8  C   UNL     1      47.238   5.301  13.956  0.00  0.00    +0.000 A 
ATOM      9  C   UNL     1      46.182   4.646  13.296  0.00  0.00    +0.000 A 
BRANCH   8  10
ATOM     10  C   UNL     1      47.602   4.913  15.336  0.00  0.00    +0.000 A 
ATOM     11  C   UNL     1      47.162   3.724  15.932  0.00  0.00    +0.000 A 
ATOM     12  C   UNL     1      47.430   3.461  17.278  0.00  0.00    +0.000 A 
ATOM     13  C   UNL     1      48.149   4.394  18.000  0.00  0.00    +0.000 A 
ATOM     14  N   UNL     1      48.612   5.545  17.476  0.00  0.00    +0.000 NA
ATOM     15  C   UNL     1      48.323   5.775  16.169  0.00  0.00    +0.000 A 
ENDBRANCH   8  10
ENDBRANCH   1   4
BRANCH   1  16
ATOM     16  O   UNL     1      43.895   4.625  10.240  0.00  0.00    +0.000 OA
BRANCH  16  20
ATOM     17  C   UNL     1      46.132   2.152   7.903  0.00  0.00    +0.000 A 
ATOM     18  C   UNL     1      46.127   3.522   7.656  0.00  0.00    +0.000 A 
ATOM     19  C   UNL     1      45.291   4.328   8.411  0.00  0.00    +0.000 A 
ATOM     20  C   UNL     1      44.498   3.730   9.382  0.00  0.00    +0.000 A 
ATOM     21  N   UNL     1      44.391   2.399   9.568  0.00  0.00    +0.000 NA
ATOM     22  C   UNL     1      45.212   1.630   8.807  0.00  0.00    +0.000 A 
BRANCH  17  24
ATOM     23  N   UNL     1      48.233   1.897   6.752  0.00  0.00    +0.000 N 
ATOM     24  C   UNL     1      47.151   1.269   7.313  0.00  0.00    +0.000 C 
ATOM     25  O   UNL     1      47.077   0.054   7.388  0.00  0.00    +0.000 OA
ATOM     26  H   UNL     1      49.017   1.310   6.502  0.00  0.00    +0.000 HD
ATOM     27  H   UNL     1      48.429   2.874   6.936  0.00  0.00    +0.000 HD
ENDBRANCH  17  24
ENDBRANCH  16  20
ENDBRANCH   1  16
TORSDOF 5
ENDMDL
MODEL 2
REMARK VINA RESULT:    -8.662      2.339      3.823
REMARK INTER + INTRA:         -12.114
REMARK INTER:                 -11.107
REMARK INTRA:                  -1.008
REMARK UNBOUND:                -0.921
REMARK  Name = 
REMARK  5 active torsions:
REMARK  status: ('A' for Active; 'I' for Inactive)
REMARK    1  A    between atoms: C_2  and  C_4
REMARK    2  A    between atoms: C_7  and  O_8
REMARK    3  A    between atoms: O_8  and  C_9
REMARK    4  A    between atoms: C_9  and  C_10
REMARK    5  A    between atoms: C_14  and  C_15
REMARK                            x       y       z     vdW  Elec       q    Type
REMARK                         _______ _______ _______ _____ _____    ______ ____
ROOT
ATOM      1  C   UNL     1      44.000   4.589  11.272  0.00  0.00    +0.000 C 
ATOM      2  C   UNL     1      43.026   3.565  11.820  0.00  0.00    +0.000 C 
ATOM      3  C   UNL     1      42.602   4.989  11.735  0.00  0.00    +0.000 C 
ENDROOT
BRANCH   1   4
ATOM      4  C   UNL     1      45.157   5.075  12.150  0.00  0.00    +0.000 A 
ATOM      5  C   UNL     1      45.863   4.218  13.006  0.00  0.00    +0.000 A 
ATOM      6  C   UNL     1      47.057   4.625  13.611  0.00  0.00    +0.000 A 
ATOM      7  C   UNL     1      47.583   5.893  13.348  0.00  0.00    +0.000 A 
ATOM      8  C   UNL     1      46.900   6.799  12.528  0.00  0.00    +0.000 A 
ATOM      9  C   UNL     1      45.659   6.387  12.010  0.00  0.00    +0.000 A 
BRANCH   8  10
ATOM     10  C   UNL     1      47.496   8.080  12.092  0.00  0.00    +0.000 A 
ATOM     11  C   UNL     1      48.837   8.201  11.702  0.00  0.00    +0.000 A 
ATOM     12  C   UNL     1      49.385   9.453  11.418  0.00  0.00    +0.000 A 
ATOM     13  C   UNL     1      48.572  10.567  11.518  0.00  0.00    +0.000 A 
ATOM     14  N   UNL     1      47.273  10.510  11.870  0.00  0.00    +0.000 NA
ATOM     15  C   UNL     1      46.776   9.278  12.152  0.00  0.00    +0.000 A 
ENDBRANCH   8  10
ENDBRANCH   1   4
BRANCH   1  16
ATOM     16  O   UNL     1      44.062   4.767   9.841  0.00  0.00    +0.000 OA
BRANCH  16  20
ATOM     17  C   UNL     1      46.742   2.832   7.463  0.00  0.00    +0.000 A 
ATOM     18  C   UNL     1      45.957   2.107   8.356  0.00  0.00    +0.000 A 
ATOM     19  C   UNL     1      45.116   2.799   9.212  0.00  0.00    +0.000 A 
ATOM     20  C   UNL     1      45.095   4.186   9.138  0.00  0.00    +0.000 A 
ATOM     21  N   UNL     1      45.923   4.923   8.371  0.00  0.00    +0.000 NA
ATOM     22  C   UNL     1      46.746   4.220   7.549  0.00  0.00    +0.000 A 
BRANCH  17  24
ATOM     23  N   UNL     1      47.796   2.961   5.300  0.00  0.00    +0.000 N 
ATOM     24  C   UNL     1      47.476   2.169   6.373  0.00  0.00    +0.000 C 
ATOM     25  O   UNL     1      47.846   1.010   6.453  0.00  0.00    +0.000 OA
ATOM     26  H   UNL     1      48.444   2.573   4.629  0.00  0.00    +0.000 HD
ATOM     27  H   UNL     1      47.738   3.971   5.355  0.00  0.00    +0.000 HD
ENDBRANCH  17  24
ENDBRANCH  16  20
ENDBRANCH   1  16
TORSDOF 5
ENDMDL
MODEL 3
REMARK VINA RESULT:    -8.460      1.766      2.545
REMARK INTER + INTRA:         -11.853
REMARK INTER:                 -10.965
REMARK INTRA:                  -0.888
REMARK UNBOUND:                -0.921
REMARK  Name = 
REMARK  5 active torsions:
REMARK  status: ('A' for Active; 'I' for Inactive)
REMARK    1  A    between atoms: C_2  and  C_4
REMARK    2  A    between atoms: C_7  and  O_8
REMARK    3  A    between atoms: O_8  and  C_9
REMARK    4  A    between atoms: C_9  and  C_10
REMARK    5  A    between atoms: C_14  and  C_15
REMARK                            x       y       z     vdW  Elec       q    Type
REMARK                         _______ _______ _______ _____ _____    ______ ____
ROOT
ATOM      1  C   UNL     1      44.693   4.636  11.625  0.00  0.00    +0.000 C 
ATOM      2  C   UNL     1      45.221   3.532  12.520  0.00  0.00    +0.000 C 
ATOM      3  C   UNL     1      43.906   4.153  12.841  0.00  0.00    +0.000 C 
ENDROOT
BRANCH   1   4
ATOM      4  C   UNL     1      45.287   6.044  11.733  0.00  0.00    +0.000 A 
ATOM      5  C   UNL     1      44.549   7.196  11.429  0.00  0.00    +0.000 A 
ATOM      6  C   UNL     1      45.028   8.468  11.761  0.00  0.00    +0.000 A 
ATOM      7  C   UNL     1      46.247   8.609  12.431  0.00  0.00    +0.000 A 
ATOM      8  C   UNL     1      47.039   7.493  12.726  0.00  0.00    +0.000 A 
ATOM      9  C   UNL     1      46.566   6.239  12.298  0.00  0.00    +0.000 A 
BRANCH   8  10
ATOM     10  C   UNL     1      48.247   7.578  13.574  0.00  0.00    +0.000 A 
ATOM     11  C   UNL     1      49.263   8.519  13.356  0.00  0.00    +0.000 A 
ATOM     12  C   UNL     1      50.441   8.481  14.105  0.00  0.00    +0.000 A 
ATOM     13  C   UNL     1      50.574   7.503  15.074  0.00  0.00    +0.000 A 
ATOM     14  N   UNL     1      49.625   6.585  15.339  0.00  0.00    +0.000 NA
ATOM     15  C   UNL     1      48.498   6.643  14.583  0.00  0.00    +0.000 A 
ENDBRANCH   8  10
ENDBRANCH   1   4
BRANCH   1  16
ATOM     16  O   UNL     1      43.960   4.256  10.441  0.00  0.00    +0.000 OA
BRANCH  16  20
ATOM     17  C   UNL     1      46.339   2.431   7.687  0.00  0.00    +0.000 A 
ATOM     18  C   UNL     1      46.193   3.815   7.668  0.00  0.00    +0.000 A 
ATOM     19  C   UNL     1      45.310   4.400   8.561  0.00  0.00    +0.000 A 
ATOM     20  C   UNL     1      44.615   3.577   9.437  0.00  0.00    +0.000 A 
ATOM     21  N   UNL     1      44.644   2.230   9.405  0.00  0.00    +0.000 NA
ATOM     22  C   UNL     1      45.507   1.680   8.511  0.00  0.00    +0.000 A 
BRANCH  17  24
ATOM     23  N   UNL     1      48.451   2.566   6.535  0.00  0.00    +0.000 N 
ATOM     24  C   UNL     1      47.417   1.762   6.940  0.00  0.00    +0.000 C 
ATOM     25  O   UNL     1      47.428   0.556   6.761  0.00  0.00    +0.000 OA
ATOM     26  H   UNL     1      49.273   2.100   6.179  0.00  0.00    +0.000 HD
ATOM     27  H   UNL     1      48.578   3.495   6.919  0.00  0.00    +0.000 HD
ENDBRANCH  17  24
ENDBRANCH  16  20
ENDBRANCH   1  16
TORSDOF 5
ENDMDL
MODEL 4
REMARK VINA RESULT:    -8.059      3.106      5.033
REMARK INTER + INTRA:         -11.335
REMARK INTER:                 -10.483
REMARK INTRA:                  -0.852
REMARK UNBOUND:                -0.921
REMARK  Name = 
REMARK  5 active torsions:
REMARK  status: ('A' for Active; 'I' for Inactive)
REMARK    1  A    between atoms: C_2  and  C_4
REMARK    2  A    between atoms: C_7  and  O_8
REMARK    3  A    between atoms: O_8  and  C_9
REMARK    4  A    between atoms: C_9  and  C_10
REMARK    5  A    between atoms: C_14  and  C_15
REMARK                            x       y       z     vdW  Elec       q    Type
REMARK                         _______ _______ _______ _____ _____    ______ ____
ROOT
ATOM      1  C   UNL     1      44.629   4.419  11.630  0.00  0.00    +0.000 C 
ATOM      2  C   UNL     1      45.202   3.201  12.324  0.00  0.00    +0.000 C 
ATOM      3  C   UNL     1      43.819   3.637  12.661  0.00  0.00    +0.000 C 
ENDROOT
BRANCH   1   4
ATOM      4  C   UNL     1      45.082   5.818  12.060  0.00  0.00    +0.000 A 
ATOM      5  C   UNL     1      46.301   6.044  12.715  0.00  0.00    +0.000 A 
ATOM      6  C   UNL     1      46.800   7.340  12.883  0.00  0.00    +0.000 A 
ATOM      7  C   UNL     1      46.101   8.436  12.370  0.00  0.00    +0.000 A 
ATOM      8  C   UNL     1      44.863   8.267  11.738  0.00  0.00    +0.000 A 
ATOM      9  C   UNL     1      44.350   6.959  11.668  0.00  0.00    +0.000 A 
BRANCH   8  10
ATOM     10  C   UNL     1      44.171   9.372  11.039  0.00  0.00    +0.000 A 
ATOM     11  C   UNL     1      42.820   9.311  10.674  0.00  0.00    +0.000 A 
ATOM     12  C   UNL     1      42.244  10.326   9.906  0.00  0.00    +0.000 A 
ATOM     13  C   UNL     1      43.035  11.396   9.529  0.00  0.00    +0.000 A 
ATOM     14  N   UNL     1      44.334  11.516   9.866  0.00  0.00    +0.000 NA
ATOM     15  C   UNL     1      44.864  10.505  10.601  0.00  0.00    +0.000 A 
ENDBRANCH   8  10
ENDBRANCH   1   4
BRANCH   1  16
ATOM     16  O   UNL     1      44.005   4.234  10.341  0.00  0.00    +0.000 OA
BRANCH  16  20
ATOM     17  C   UNL     1      46.512   2.499   7.642  0.00  0.00    +0.000 A 
ATOM     18  C   UNL     1      46.395   3.886   7.688  0.00  0.00    +0.000 A 
ATOM     19  C   UNL     1      45.471   4.444   8.557  0.00  0.00    +0.000 A 
ATOM     20  C   UNL     1      44.706   3.593   9.343  0.00  0.00    +0.000 A 
ATOM     21  N   UNL     1      44.710   2.248   9.241  0.00  0.00    +0.000 NA
ATOM     22  C   UNL     1      45.616   1.727   8.373  0.00  0.00    +0.000 A 
BRANCH  17  24
ATOM     23  N   UNL     1      48.314   2.638   6.048  0.00  0.00    +0.000 N 
ATOM     24  C   UNL     1      47.621   1.846   6.927  0.00  0.00    +0.000 C 
ATOM     25  O   UNL     1      47.951   0.696   7.159  0.00  0.00    +0.000 OA
ATOM     26  H   UNL     1      49.177   2.259   5.684  0.00  0.00    +0.000 HD
ATOM     27  H   UNL     1      48.223   3.646   6.063  0.00  0.00    +0.000 HD
ENDBRANCH  17  24
ENDBRANCH  16  20
ENDBRANCH   1  16
TORSDOF 5
ENDMDL
MODEL 5
REMARK VINA RESULT:    -7.897      2.405      2.985
REMARK INTER + INTRA:         -11.126
REMARK INTER:                 -10.274
REMARK INTRA:                  -0.852
REMARK UNBOUND:                -0.921
REMARK  Name = 
REMARK  5 active torsions:
REMARK  status: ('A' for Active; 'I' for Inactive)
REMARK    1  A    between atoms: C_2  and  C_4
REMARK    2  A    between atoms: C_7  and  O_8
REMARK    3  A    between atoms: O_8  and  C_9
REMARK    4  A    between atoms: C_9  and  C_10
REMARK    5  A    between atoms: C_14  and  C_15
REMARK                            x       y       z     vdW  Elec       q    Type
REMARK                         _______ _______ _______ _____ _____    ______ ____
ROOT
ATOM      1  C   UNL     1      44.934   5.065  11.546  0.00  0.00    +0.000 C 
ATOM      2  C   UNL     1      45.542   3.983  12.416  0.00  0.00    +0.000 C 
ATOM      3  C   UNL     1      44.235   4.575  12.812  0.00  0.00    +0.000 C 
ENDROOT
BRANCH   1   4
ATOM      4  C   UNL     1      45.499   6.488  11.606  0.00  0.00    +0.000 A 
ATOM      5  C   UNL     1      44.694   7.624  11.443  0.00  0.00    +0.000 A 
ATOM      6  C   UNL     1      45.181   8.902  11.737  0.00  0.00    +0.000 A 
ATOM      7  C   UNL     1      46.480   9.065  12.228  0.00  0.00    +0.000 A 
ATOM      8  C   UNL     1      47.336   7.967  12.375  0.00  0.00    +0.000 A 
ATOM      9  C   UNL     1      46.840   6.709  11.985  0.00  0.00    +0.000 A 
BRANCH   8  10
ATOM     10  C   UNL     1      48.651   8.070  13.042  0.00  0.00    +0.000 A 
ATOM     11  C   UNL     1      49.065   7.185  14.047  0.00  0.00    +0.000 A 
ATOM     12  C   UNL     1      50.263   7.397  14.733  0.00  0.00    +0.000 A 
ATOM     13  C   UNL     1      51.035   8.491  14.387  0.00  0.00    +0.000 A 
ATOM     14  N   UNL     1      50.696   9.364  13.419  0.00  0.00    +0.000 NA
ATOM     15  C   UNL     1      49.519   9.135  12.782  0.00  0.00    +0.000 A 
ENDBRANCH   8  10
ENDBRANCH   1   4
BRANCH   1  16
ATOM     16  O   UNL     1      44.140   4.657  10.413  0.00  0.00    +0.000 OA
BRANCH  16  20
ATOM     17  C   UNL     1      46.164   2.090   7.986  0.00  0.00    +0.000 A 
ATOM     18  C   UNL     1      46.345   3.463   7.847  0.00  0.00    +0.000 A 
ATOM     19  C   UNL     1      45.579   4.314   8.627  0.00  0.00    +0.000 A 
ATOM     20  C   UNL     1      44.668   3.756   9.514  0.00  0.00    +0.000 A 
ATOM     21  N   UNL     1      44.384   2.440   9.591  0.00  0.00    +0.000 NA
ATOM     22  C   UNL     1      45.140   1.628   8.807  0.00  0.00    +0.000 A 
BRANCH  17  24
ATOM     23  N   UNL     1      46.855  -0.194   7.651  0.00  0.00    +0.000 N 
ATOM     24  C   UNL     1      47.093   1.127   7.372  0.00  0.00    +0.000 C 
ATOM     25  O   UNL     1      47.971   1.476   6.601  0.00  0.00    +0.000 OA
ATOM     26  H   UNL     1      47.369  -0.871   7.104  0.00  0.00    +0.000 HD
ATOM     27  H   UNL     1      45.976  -0.498   8.052  0.00  0.00    +0.000 HD
ENDBRANCH  17  24
ENDBRANCH  16  20
ENDBRANCH   1  16
TORSDOF 5
ENDMDL
MODEL 6
REMARK VINA RESULT:    -6.838      3.176      7.699
REMARK INTER + INTRA:          -9.758
REMARK INTER:                  -9.393
REMARK INTRA:                  -0.365
REMARK UNBOUND:                -0.921
REMARK  Name = 
REMARK  5 active torsions:
REMARK  status: ('A' for Active; 'I' for Inactive)
REMARK    1  A    between atoms: C_2  and  C_4
REMARK    2  A    between atoms: C_7  and  O_8
REMARK    3  A    between atoms: O_8  and  C_9
REMARK    4  A    between atoms: C_9  and  C_10
REMARK    5  A    between atoms: C_14  and  C_15
REMARK                            x       y       z     vdW  Elec       q    Type
REMARK                         _______ _______ _______ _____ _____    ______ ____
ROOT
ATOM      1  C   UNL     1      48.435   7.644  13.345  0.00  0.00    +0.000 C 
ATOM      2  C   UNL     1      49.603   7.346  12.426  0.00  0.00    +0.000 C 
ATOM      3  C   UNL     1      49.286   8.763  12.750  0.00  0.00    +0.000 C 
ENDROOT
BRANCH   1   4
ATOM      4  C   UNL     1      47.005   7.537  12.807  0.00  0.00    +0.000 A 
ATOM      5  C   UNL     1      46.129   8.631  12.781  0.00  0.00    +0.000 A 
ATOM      6  C   UNL     1      44.923   8.572  12.074  0.00  0.00    +0.000 A 
ATOM      7  C   UNL     1      44.584   7.423  11.354  0.00  0.00    +0.000 A 
ATOM      8  C   UNL     1      45.408   6.291  11.376  0.00  0.00    +0.000 A 
ATOM      9  C   UNL     1      46.567   6.356  12.170  0.00  0.00    +0.000 A 
BRANCH   8  10
ATOM     10  C   UNL     1      45.173   5.121  10.503  0.00  0.00    +0.000 A 
ATOM     11  C   UNL     1      45.653   5.046   9.188  0.00  0.00    +0.000 A 
ATOM     12  C   UNL     1      45.301   3.976   8.362  0.00  0.00    +0.000 A 
ATOM     13  C   UNL     1      44.481   2.989   8.877  0.00  0.00    +0.000 A 
ATOM     14  N   UNL     1      44.005   2.999  10.137  0.00  0.00    +0.000 NA
ATOM     15  C   UNL     1      44.357   4.061  10.908  0.00  0.00    +0.000 A 
ENDBRANCH   8  10
ENDBRANCH   1   4
BRANCH   1  16
ATOM     16  O   UNL     1      48.670   7.616  14.769  0.00  0.00    +0.000 OA
BRANCH  16  20
ATOM     17  C   UNL     1      48.126   4.312  17.086  0.00  0.00    +0.000 A 
ATOM     18  C   UNL     1      48.902   5.368  17.556  0.00  0.00    +0.000 A 
ATOM     19  C   UNL     1      49.141   6.441  16.712  0.00  0.00    +0.000 A 
ATOM     20  C   UNL     1      48.591   6.413  15.437  0.00  0.00    +0.000 A 
ATOM     21  N   UNL     1      47.935   5.359  14.910  0.00  0.00    +0.000 NA
ATOM     22  C   UNL     1      47.725   4.315  15.754  0.00  0.00    +0.000 A 
BRANCH  17  24
ATOM     23  N   UNL     1      48.291   3.148  19.189  0.00  0.00    +0.000 N 
ATOM     24  C   UNL     1      47.636   3.258  17.989  0.00  0.00    +0.000 C 
ATOM     25  O   UNL     1      46.661   2.577  17.721  0.00  0.00    +0.000 OA
ATOM     26  H   UNL     1      47.861   2.554  19.885  0.00  0.00    +0.000 HD
ATOM     27  H   UNL     1      48.904   3.881  19.524  0.00  0.00    +0.000 HD
ENDBRANCH  17  24
ENDBRANCH  16  20
ENDBRANCH   1  16
TORSDOF 5
ENDMDL
MODEL 7
REMARK VINA RESULT:    -6.569      3.056      5.806
REMARK INTER + INTRA:          -9.410
REMARK INTER:                  -8.480
REMARK INTRA:                  -0.930
REMARK UNBOUND:                -0.921
REMARK  Name = 
REMARK  5 active torsions:
REMARK  status: ('A' for Active; 'I' for Inactive)
REMARK    1  A    between atoms: C_2  and  C_4
REMARK    2  A    between atoms: C_7  and  O_8
REMARK    3  A    between atoms: O_8  and  C_9
REMARK    4  A    between atoms: C_9  and  C_10
REMARK    5  A    between atoms: C_14  and  C_15
REMARK                            x       y       z     vdW  Elec       q    Type
REMARK                         _______ _______ _______ _____ _____    ______ ____
ROOT
ATOM      1  C   UNL     1      48.959   7.473  15.109  0.00  0.00    +0.000 C 
ATOM      2  C   UNL     1      48.284   8.826  15.003  0.00  0.00    +0.000 C 
ATOM      3  C   UNL     1      49.753   8.736  14.783  0.00  0.00    +0.000 C 
ENDROOT
BRANCH   1   4
ATOM      4  C   UNL     1      49.214   6.863  16.490  0.00  0.00    +0.000 A 
ATOM      5  C   UNL     1      48.519   7.277  17.635  0.00  0.00    +0.000 A 
ATOM      6  C   UNL     1      48.594   6.550  18.827  0.00  0.00    +0.000 A 
ATOM      7  C   UNL     1      49.347   5.373  18.889  0.00  0.00    +0.000 A 
ATOM      8  C   UNL     1      50.087   4.935  17.784  0.00  0.00    +0.000 A 
ATOM      9  C   UNL     1      50.058   5.741  16.631  0.00  0.00    +0.000 A 
BRANCH   8  10
ATOM     10  C   UNL     1      50.760   3.619  17.751  0.00  0.00    +0.000 A 
ATOM     11  C   UNL     1      52.094   3.438  18.140  0.00  0.00    +0.000 A 
ATOM     12  C   UNL     1      52.722   2.201  17.974  0.00  0.00    +0.000 A 
ATOM     13  C   UNL     1      51.993   1.160  17.431  0.00  0.00    +0.000 A 
ATOM     14  N   UNL     1      50.704   1.271  17.057  0.00  0.00    +0.000 NA
ATOM     15  C   UNL     1      50.129   2.490  17.219  0.00  0.00    +0.000 A 
ENDBRANCH   8  10
ENDBRANCH   1   4
BRANCH   1  16
ATOM     16  O   UNL     1      48.969   6.628  13.939  0.00  0.00    +0.000 OA
BRANCH  16  20
ATOM     17  C   UNL     1      45.793   4.592  12.407  0.00  0.00    +0.000 A 
ATOM     18  C   UNL     1      46.136   5.836  11.885  0.00  0.00    +0.000 A 
ATOM     19  C   UNL     1      47.166   6.544  12.482  0.00  0.00    +0.000 A 
ATOM     20  C   UNL     1      47.812   5.976  13.573  0.00  0.00    +0.000 A 
ATOM     21  N   UNL     1      47.431   4.831  14.175  0.00  0.00    +0.000 NA
ATOM     22  C   UNL     1      46.411   4.162  13.577  0.00  0.00    +0.000 A 
BRANCH  17  24
ATOM     23  N   UNL     1      44.328   2.679  12.443  0.00  0.00    +0.000 N 
ATOM     24  C   UNL     1      44.880   3.685  11.692  0.00  0.00    +0.000 C 
ATOM     25  O   UNL     1      44.571   3.864  10.526  0.00  0.00    +0.000 OA
ATOM     26  H   UNL     1      43.573   2.160  12.018  0.00  0.00    +0.000 HD
ATOM     27  H   UNL     1      44.362   2.697  13.455  0.00  0.00    +0.000 HD
ENDBRANCH  17  24
ENDBRANCH  16  20
ENDBRANCH   1  16
TORSDOF 5
ENDMDL
MODEL 8
REMARK VINA RESULT:    -6.443      3.816      7.696
REMARK INTER + INTRA:          -9.248
REMARK INTER:                  -8.082
REMARK INTRA:                  -1.166
REMARK UNBOUND:                -0.921
REMARK  Name = 
REMARK  5 active torsions:
REMARK  status: ('A' for Active; 'I' for Inactive)
REMARK    1  A    between atoms: C_2  and  C_4
REMARK    2  A    between atoms: C_7  and  O_8
REMARK    3  A    between atoms: O_8  and  C_9
REMARK    4  A    between atoms: C_9  and  C_10
REMARK    5  A    between atoms: C_14  and  C_15
REMARK                            x       y       z     vdW  Elec       q    Type
REMARK                         _______ _______ _______ _____ _____    ______ ____
ROOT
ATOM      1  C   UNL     1      48.795   8.197  16.886  0.00  0.00    +0.000 C 
ATOM      2  C   UNL     1      49.717   9.222  17.515  0.00  0.00    +0.000 C 
ATOM      3  C   UNL     1      48.285   9.571  17.310  0.00  0.00    +0.000 C 
ENDROOT
BRANCH   1   4
ATOM      4  C   UNL     1      48.862   7.947  15.376  0.00  0.00    +0.000 A 
ATOM      5  C   UNL     1      49.973   8.310  14.603  0.00  0.00    +0.000 A 
ATOM      6  C   UNL     1      50.112   7.862  13.285  0.00  0.00    +0.000 A 
ATOM      7  C   UNL     1      49.152   7.015  12.724  0.00  0.00    +0.000 A 
ATOM      8  C   UNL     1      48.006   6.652  13.442  0.00  0.00    +0.000 A 
ATOM      9  C   UNL     1      47.857   7.194  14.731  0.00  0.00    +0.000 A 
BRANCH   8  10
ATOM     10  C   UNL     1      47.052   5.633  12.952  0.00  0.00    +0.000 A 
ATOM     11  C   UNL     1      46.187   5.860  11.873  0.00  0.00    +0.000 A 
ATOM     12  C   UNL     1      45.219   4.914  11.527  0.00  0.00    +0.000 A 
ATOM     13  C   UNL     1      45.145   3.747  12.264  0.00  0.00    +0.000 A 
ATOM     14  N   UNL     1      45.961   3.468  13.299  0.00  0.00    +0.000 NA
ATOM     15  C   UNL     1      46.882   4.415  13.616  0.00  0.00    +0.000 A 
ENDBRANCH   8  10
ENDBRANCH   1   4
BRANCH   1  16
ATOM     16  O   UNL     1      48.189   7.211  17.749  0.00  0.00    +0.000 OA
BRANCH  16  20
ATOM     17  C   UNL     1      49.639   3.421  17.417  0.00  0.00    +0.000 A 
ATOM     18  C   UNL     1      48.264   3.637  17.450  0.00  0.00    +0.000 A 
ATOM     19  C   UNL     1      47.801   4.927  17.650  0.00  0.00    +0.000 A 
ATOM     20  C   UNL     1      48.732   5.946  17.806  0.00  0.00    +0.000 A 
ATOM     21  N   UNL     1      50.063   5.757  17.896  0.00  0.00    +0.000 NA
ATOM     22  C   UNL     1      50.491   4.481  17.709  0.00  0.00    +0.000 A 
BRANCH  17  24
ATOM     23  N   UNL     1      51.118   1.563  17.827  0.00  0.00    +0.000 N 
ATOM     24  C   UNL     1      50.204   2.134  16.979  0.00  0.00    +0.000 C 
ATOM     25  O   UNL     1      49.826   1.573  15.965  0.00  0.00    +0.000 OA
ATOM     26  H   UNL     1      51.381   0.608  17.630  0.00  0.00    +0.000 HD
ATOM     27  H   UNL     1      51.220   1.881  18.783  0.00  0.00    +0.000 HD
ENDBRANCH  17  24
ENDBRANCH  16  20
ENDBRANCH   1  16
TORSDOF 5
ENDMDL
MODEL 9
REMARK VINA RESULT:    -6.340      2.961      4.781
REMARK INTER + INTRA:          -9.114
REMARK INTER:                  -8.302
REMARK INTRA:                  -0.812
REMARK UNBOUND:                -0.921
REMARK  Name = 
REMARK  5 active torsions:
REMARK  status: ('A' for Active; 'I' for Inactive)
REMARK    1  A    between atoms: C_2  and  C_4
REMARK    2  A    between atoms: C_7  and  O_8
REMARK    3  A    between atoms: O_8  and  C_9
REMARK    4  A    between atoms: C_9  and  C_10
REMARK    5  A    between atoms: C_14  and  C_15
REMARK                            x       y       z     vdW  Elec       q    Type
REMARK                         _______ _______ _______ _____ _____    ______ ____
ROOT
ATOM      1  C   UNL     1      48.104   8.169  13.013  0.00  0.00    +0.000 C 
ATOM      2  C   UNL     1      47.334   9.358  12.474  0.00  0.00    +0.000 C 
ATOM      3  C   UNL     1      48.789   9.248  12.178  0.00  0.00    +0.000 C 
ENDROOT
BRANCH   1   4
ATOM      4  C   UNL     1      48.491   8.129  14.495  0.00  0.00    +0.000 A 
ATOM      5  C   UNL     1      48.145   9.151  15.390  0.00  0.00    +0.000 A 
ATOM      6  C   UNL     1      48.296   8.983  16.770  0.00  0.00    +0.000 A 
ATOM      7  C   UNL     1      48.771   7.774  17.285  0.00  0.00    +0.000 A 
ATOM      8  C   UNL     1      49.162   6.734  16.433  0.00  0.00    +0.000 A 
ATOM      9  C   UNL     1      49.081   6.973  15.049  0.00  0.00    +0.000 A 
BRANCH   8  10
ATOM     10  C   UNL     1      49.512   5.387  16.933  0.00  0.00    +0.000 A 
ATOM     11  C   UNL     1      50.814   5.032  17.312  0.00  0.00    +0.000 A 
ATOM     12  C   UNL     1      51.119   3.714  17.659  0.00  0.00    +0.000 A 
ATOM     13  C   UNL     1      50.105   2.774  17.633  0.00  0.00    +0.000 A 
ATOM     14  N   UNL     1      48.833   3.062  17.295  0.00  0.00    +0.000 NA
ATOM     15  C   UNL     1      48.575   4.349  16.950  0.00  0.00    +0.000 A 
ENDBRANCH   8  10
ENDBRANCH   1   4
BRANCH   1  16
ATOM     16  O   UNL     1      48.094   6.949  12.242  0.00  0.00    +0.000 OA
BRANCH  16  20
ATOM     17  C   UNL     1      44.949   4.403  11.790  0.00  0.00    +0.000 A 
ATOM     18  C   UNL     1      45.235   5.335  10.795  0.00  0.00    +0.000 A 
ATOM     19  C   UNL     1      46.257   6.245  11.015  0.00  0.00    +0.000 A 
ATOM     20  C   UNL     1      46.950   6.182  12.217  0.00  0.00    +0.000 A 
ATOM     21  N   UNL     1      46.625   5.372  13.245  0.00  0.00    +0.000 NA
ATOM     22  C   UNL     1      45.612   4.499  13.009  0.00  0.00    +0.000 A 
BRANCH  17  24
ATOM     23  N   UNL     1      43.791   2.459  12.618  0.00  0.00    +0.000 N 
ATOM     24  C   UNL     1      44.047   3.267  11.540  0.00  0.00    +0.000 C 
ATOM     25  O   UNL     1      43.501   3.099  10.462  0.00  0.00    +0.000 OA
ATOM     26  H   UNL     1      43.046   1.785  12.510  0.00  0.00    +0.000 HD
ATOM     27  H   UNL     1      44.014   2.753  13.561  0.00  0.00    +0.000 HD
ENDBRANCH  17  24
ENDBRANCH  16  20
ENDBRANCH   1  16
TORSDOF 5
ENDMDL
