MODEL 1
REMARK VINA RESULT:    -9.243      0.000      0.000
REMARK INTER + INTRA:         -12.164
REMARK INTER:                 -12.215
REMARK INTRA:                   0.051
REMARK UNBOUND:                 0.051
REMARK  Name = 
REMARK  6 active torsions:
REMARK  status: ('A' for Active; 'I' for Inactive)
REMARK    1  A    between atoms: N_1  and  C_2
REMARK    2  A    between atoms: C_5  and  C_6
REMARK    3  A    between atoms: C_6  and  C_7
REMARK    4  A    between atoms: C_10  and  C_11
REMARK    5  A    between atoms: C_11  and  N_12
REMARK    6  A    between atoms: C_13  and  C_15
REMARK                            x       y       z     vdW  Elec       q    Type
REMARK                         _______ _______ _______ _____ _____    ______ ____
ROOT
ATOM      1  C   UNL     1      44.944   4.018  10.361  0.00  0.00    +0.000 A 
ATOM      2  C   UNL     1      45.198   3.773  11.709  0.00  0.00    +0.000 A 
ATOM      3  C   UNL     1      45.706   4.801  12.504  0.00  0.00    +0.000 A 
ATOM      4  C   UNL     1      45.969   6.049  11.941  0.00  0.00    +0.000 A 
ATOM      5  C   UNL     1      45.685   6.205  10.590  0.00  0.00    +0.000 A 
ATOM      6  N   UNL     1      45.182   5.226   9.795  0.00  0.00    +0.000 NA
ENDROOT
BRANCH   1   7
ATOM      7  C   UNL     1      44.347   2.936   9.486  0.00  0.00    +0.000 C 
BRANCH   7  11
ATOM      8  C   UNL     1      47.747   2.163   6.775  0.00  0.00    +0.000 C 
ATOM      9  C   UNL     1      46.865   3.393   6.543  0.00  0.00    +0.000 C 
ATOM     10  C   UNL     1      46.084   3.759   7.804  0.00  0.00    +0.000 C 
ATOM     11  C   UNL     1      45.205   2.582   8.257  0.00  0.00    +0.000 C 
ATOM     12  C   UNL     1      46.104   1.363   8.541  0.00  0.00    +0.000 C 
ATOM     13  C   UNL     1      46.931   0.979   7.309  0.00  0.00    +0.000 C 
BRANCH   8  14
ATOM     14  N   UNL     1      48.423   1.784   5.534  0.00  0.00    +0.000 NA
ATOM     15  H   UNL     1      48.189   0.819   5.301  0.00  0.00    +0.000 HD
ATOM     16  H   UNL     1      49.432   1.794   5.678  0.00  0.00    +0.000 HD
ENDBRANCH   8  14
ENDBRANCH   7  11
ENDBRANCH   1   7
BRANCH   4  17
ATOM     17  C   UNL     1      46.489   7.186  12.772  0.00  0.00    +0.000 C 
BRANCH  17  18
ATOM     18  N   UNL     1      46.940   6.737  14.067  0.00  0.00    +0.000 N 
ATOM     19  C   UNL     1      48.274   6.537  14.320  0.00  0.00    +0.000 C 
ATOM     20  O   UNL     1      49.132   6.756  13.468  0.00  0.00    +0.000 OA
ATOM     21  H   UNL     1      46.247   6.335  14.693  0.00  0.00    +0.000 HD
BRANCH  19  22
ATOM     22  C   UNL     1      48.638   6.107  15.678  0.00  0.00    +0.000 A 
ATOM     23  C   UNL     1      49.496   6.891  16.437  0.00  0.00    +0.000 A 
ATOM     24  S   UNL     1      49.777   6.283  18.004  0.00  0.00    +0.000 S 
ATOM     25  C   UNL     1      48.804   4.921  17.709  0.00  0.00    +0.000 A 
ATOM     26  N   UNL     1      48.637   3.961  18.659  0.00  0.00    +0.000 NA
ATOM     27  C   UNL     1      47.897   2.970  18.293  0.00  0.00    +0.000 A 
ATOM     28  N   UNL     1      47.303   2.852  17.064  0.00  0.00    +0.000 N 
ATOM     29  C   UNL     1      47.421   3.810  16.082  0.00  0.00    +0.000 A 
ATOM     30  O   UNL     1      46.845   3.696  15.006  0.00  0.00    +0.000 OA
ATOM     31  C   UNL     1      48.253   4.941  16.439  0.00  0.00    +0.000 A 
ATOM     32  H   UNL     1      46.726   2.054  16.843  0.00  0.00    +0.000 HD
ENDBRANCH  19  22
ENDBRANCH  17  18
ENDBRANCH   4  17
TORSDOF 6
ENDMDL
MODEL 2
REMARK VINA RESULT:    -8.965      2.474      4.292
REMARK INTER + INTRA:         -11.796
REMARK INTER:                 -11.003
REMARK INTRA:                  -0.792
REMARK UNBOUND:                 0.051
REMARK  Name = 
REMARK  6 active torsions:
REMARK  status: ('A' for Active; 'I' for Inactive)
REMARK    1  A    between atoms: N_1  and  C_2
REMARK    2  A    between atoms: C_5  and  C_6
REMARK    3  A    between atoms: C_6  and  C_7
REMARK    4  A    between atoms: C_10  and  C_11
REMARK    5  A    between atoms: C_11  and  N_12
REMARK    6  A    between atoms: C_13  and  C_15
REMARK                            x       y       z     vdW  Elec       q    Type
REMARK                         _______ _______ _______ _____ _____    ______ ____
ROOT
ATOM      1  C   UNL     1      44.757   3.985  10.340  0.00  0.00    +0.000 A 
ATOM      2  C   UNL     1      45.237   5.286  10.474  0.00  0.00    +0.000 A 
ATOM      3  C   UNL     1      45.885   5.655  11.653  0.00  0.00    +0.000 A 
ATOM      4  C   UNL     1      46.032   4.728  12.684  0.00  0.00    +0.000 A 
ATOM      5  C   UNL     1      45.525   3.453  12.464  0.00  0.00    +0.000 A 
ATOM      6  N   UNL     1      44.898   3.064  11.325  0.00  0.00    +0.000 NA
ENDROOT
BRANCH   1   7
ATOM      7  C   UNL     1      44.093   3.544   9.053  0.00  0.00    +0.000 C 
BRANCH   7  11
ATOM      8  C   UNL     1      47.757   2.341   6.900  0.00  0.00    +0.000 C 
ATOM      9  C   UNL     1      46.967   3.560   6.416  0.00  0.00    +0.000 C 
ATOM     10  C   UNL     1      46.056   4.101   7.517  0.00  0.00    +0.000 C 
ATOM     11  C   UNL     1      45.077   3.016   7.991  0.00  0.00    +0.000 C 
ATOM     12  C   UNL     1      45.877   1.814   8.526  0.00  0.00    +0.000 C 
ATOM     13  C   UNL     1      46.829   1.257   7.462  0.00  0.00    +0.000 C 
BRANCH   8  14
ATOM     14  N   UNL     1      48.560   1.793   5.806  0.00  0.00    +0.000 NA
ATOM     15  H   UNL     1      48.234   2.179   4.920  0.00  0.00    +0.000 HD
ATOM     16  H   UNL     1      48.405   0.787   5.739  0.00  0.00    +0.000 HD
ENDBRANCH   8  14
ENDBRANCH   7  11
ENDBRANCH   1   7
BRANCH   4  17
ATOM     17  C   UNL     1      46.750   5.080  13.955  0.00  0.00    +0.000 C 
BRANCH  17  18
ATOM     18  N   UNL     1      47.159   6.464  13.969  0.00  0.00    +0.000 N 
ATOM     19  C   UNL     1      48.307   6.854  14.613  0.00  0.00    +0.000 C 
ATOM     20  O   UNL     1      49.038   6.043  15.176  0.00  0.00    +0.000 OA
ATOM     21  H   UNL     1      46.465   7.163  13.718  0.00  0.00    +0.000 HD
BRANCH  19  22
ATOM     22  C   UNL     1      48.656   8.281  14.547  0.00  0.00    +0.000 A 
ATOM     23  C   UNL     1      48.767   9.013  15.721  0.00  0.00    +0.000 A 
ATOM     24  S   UNL     1      49.228  10.636  15.478  0.00  0.00    +0.000 S 
ATOM     25  C   UNL     1      49.244  10.436  13.789  0.00  0.00    +0.000 A 
ATOM     26  N   UNL     1      49.541  11.475  12.964  0.00  0.00    +0.000 NA
ATOM     27  C   UNL     1      49.489  11.191  11.706  0.00  0.00    +0.000 A 
ATOM     28  N   UNL     1      49.171   9.959  11.198  0.00  0.00    +0.000 N 
ATOM     29  C   UNL     1      48.890   8.872  11.994  0.00  0.00    +0.000 A 
ATOM     30  O   UNL     1      48.649   7.772  11.510  0.00  0.00    +0.000 OA
ATOM     31  C   UNL     1      48.924   9.141  13.417  0.00  0.00    +0.000 A 
ATOM     32  H   UNL     1      49.157   9.799  10.201  0.00  0.00    +0.000 HD
ENDBRANCH  19  22
ENDBRANCH  17  18
ENDBRANCH   4  17
TORSDOF 6
ENDMDL
MODEL 3
REMARK VINA RESULT:    -8.899      3.541      4.533
REMARK INTER + INTRA:         -11.709
REMARK INTER:                 -10.674
REMARK INTRA:                  -1.035
REMARK UNBOUND:                 0.051
REMARK  Name = 
REMARK  6 active torsions:
REMARK  status: ('A' for Active; 'I' for Inactive)
REMARK    1  A    between atoms: N_1  and  C_2
REMARK    2  A    between atoms: C_5  and  C_6
REMARK    3  A    between atoms: C_6  and  C_7
REMARK    4  A    between atoms: C_10  and  C_11
REMARK    5  A    between atoms: C_11  and  N_12
REMARK    6  A    between atoms: C_13  and  C_15
REMARK                            x       y       z     vdW  Elec       q    Type
REMARK                         _______ _______ _______ _____ _____    ______ ____
ROOT
ATOM      1  C   UNL     1      44.483   3.334  10.481  0.00  0.00    +0.000 A 
ATOM      2  C   UNL     1      43.679   4.431  10.179  0.00  0.00    +0.000 A 
ATOM      3  C   UNL     1      43.651   5.516  11.058  0.00  0.00    +0.000 A 
ATOM      4  C   UNL     1      44.409   5.483  12.227  0.00  0.00    +0.000 A 
ATOM      5  C   UNL     1      45.181   4.349  12.448  0.00  0.00    +0.000 A 
ATOM      6  N   UNL     1      45.236   3.284  11.607  0.00  0.00    +0.000 NA
ENDROOT
BRANCH   1   7
ATOM      7  C   UNL     1      44.571   2.164   9.523  0.00  0.00    +0.000 C 
BRANCH   7  11
ATOM      8  C   UNL     1      47.216   1.905   5.996  0.00  0.00    +0.000 C 
ATOM      9  C   UNL     1      47.399   0.913   7.148  0.00  0.00    +0.000 C 
ATOM     10  C   UNL     1      46.144   0.833   8.014  0.00  0.00    +0.000 C 
ATOM     11  C   UNL     1      45.792   2.216   8.585  0.00  0.00    +0.000 C 
ATOM     12  C   UNL     1      45.556   3.196   7.422  0.00  0.00    +0.000 C 
ATOM     13  C   UNL     1      46.782   3.285   6.507  0.00  0.00    +0.000 C 
BRANCH   8  14
ATOM     14  N   UNL     1      48.457   2.024   5.230  0.00  0.00    +0.000 NA
ATOM     15  H   UNL     1      48.528   1.245   4.574  0.00  0.00    +0.000 HD
ATOM     16  H   UNL     1      49.256   1.927   5.856  0.00  0.00    +0.000 HD
ENDBRANCH   8  14
ENDBRANCH   7  11
ENDBRANCH   1   7
BRANCH   4  17
ATOM     17  C   UNL     1      44.425   6.642  13.180  0.00  0.00    +0.000 C 
BRANCH  17  18
ATOM     18  N   UNL     1      45.635   7.417  13.055  0.00  0.00    +0.000 N 
ATOM     19  C   UNL     1      45.723   8.451  12.156  0.00  0.00    +0.000 C 
ATOM     20  O   UNL     1      44.772   8.771  11.446  0.00  0.00    +0.000 OA
ATOM     21  H   UNL     1      46.486   7.029  13.454  0.00  0.00    +0.000 HD
BRANCH  19  22
ATOM     22  C   UNL     1      46.987   9.200  12.123  0.00  0.00    +0.000 A 
ATOM     23  C   UNL     1      46.960  10.582  11.989  0.00  0.00    +0.000 A 
ATOM     24  S   UNL     1      48.503  11.306  12.020  0.00  0.00    +0.000 S 
ATOM     25  C   UNL     1      49.269   9.795  12.161  0.00  0.00    +0.000 A 
ATOM     26  N   UNL     1      50.625   9.700  12.213  0.00  0.00    +0.000 NA
ATOM     27  C   UNL     1      51.074   8.492  12.291  0.00  0.00    +0.000 A 
ATOM     28  N   UNL     1      50.289   7.370  12.329  0.00  0.00    +0.000 N 
ATOM     29  C   UNL     1      48.914   7.418  12.307  0.00  0.00    +0.000 A 
ATOM     30  O   UNL     1      48.237   6.399  12.382  0.00  0.00    +0.000 OA
ATOM     31  C   UNL     1      48.358   8.753  12.207  0.00  0.00    +0.000 A 
ATOM     32  H   UNL     1      50.703   6.452  12.400  0.00  0.00    +0.000 HD
ENDBRANCH  19  22
ENDBRANCH  17  18
ENDBRANCH   4  17
TORSDOF 6
ENDMDL
MODEL 4
REMARK VINA RESULT:    -8.876      1.696      2.330
REMARK INTER + INTRA:         -11.679
REMARK INTER:                 -11.430
REMARK INTRA:                  -0.249
REMARK UNBOUND:                 0.051
REMARK  Name = 
REMARK  6 active torsions:
REMARK  status: ('A' for Active; 'I' for Inactive)
REMARK    1  A    between atoms: N_1  and  C_2
REMARK    2  A    between atoms: C_5  and  C_6
REMARK    3  A    between atoms: C_6  and  C_7
REMARK    4  A    between atoms: C_10  and  C_11
REMARK    5  A    between atoms: C_11  and  N_12
REMARK    6  A    between atoms: C_13  and  C_15
REMARK                            x       y       z     vdW  Elec       q    Type
REMARK                         _______ _______ _______ _____ _____    ______ ____
ROOT
ATOM      1  C   UNL     1      44.926   4.265  10.477  0.00  0.00    +0.000 A 
ATOM      2  C   UNL     1      45.297   5.565  10.140  0.00  0.00    +0.000 A 
ATOM      3  C   UNL     1      46.011   6.330  11.063  0.00  0.00    +0.000 A 
ATOM      4  C   UNL     1      46.329   5.796  12.311  0.00  0.00    +0.000 A 
ATOM      5  C   UNL     1      45.920   4.491  12.562  0.00  0.00    +0.000 A 
ATOM      6  N   UNL     1      45.234   3.721  11.680  0.00  0.00    +0.000 NA
ENDROOT
BRANCH   1   7
ATOM      7  C   UNL     1      44.194   3.395   9.477  0.00  0.00    +0.000 C 
BRANCH   7  11
ATOM      8  C   UNL     1      47.649   2.263   6.970  0.00  0.00    +0.000 C 
ATOM      9  C   UNL     1      46.811   3.485   6.587  0.00  0.00    +0.000 C 
ATOM     10  C   UNL     1      46.003   3.998   7.778  0.00  0.00    +0.000 C 
ATOM     11  C   UNL     1      45.078   2.896   8.318  0.00  0.00    +0.000 C 
ATOM     12  C   UNL     1      45.931   1.690   8.753  0.00  0.00    +0.000 C 
ATOM     13  C   UNL     1      46.783   1.161   7.594  0.00  0.00    +0.000 C 
BRANCH   8  14
ATOM     14  N   UNL     1      48.350   1.743   5.796  0.00  0.00    +0.000 NA
ATOM     15  H   UNL     1      47.669   1.405   5.115  0.00  0.00    +0.000 HD
ATOM     16  H   UNL     1      48.900   0.926   6.060  0.00  0.00    +0.000 HD
ENDBRANCH   8  14
ENDBRANCH   7  11
ENDBRANCH   1   7
BRANCH   4  17
ATOM     17  C   UNL     1      47.120   6.579  13.317  0.00  0.00    +0.000 C 
BRANCH  17  18
ATOM     18  N   UNL     1      47.208   5.887  14.581  0.00  0.00    +0.000 N 
ATOM     19  C   UNL     1      48.357   5.930  15.331  0.00  0.00    +0.000 C 
ATOM     20  O   UNL     1      49.339   6.575  14.971  0.00  0.00    +0.000 OA
ATOM     21  H   UNL     1      46.510   5.176  14.778  0.00  0.00    +0.000 HD
BRANCH  19  22
ATOM     22  C   UNL     1      48.339   5.219  16.617  0.00  0.00    +0.000 A 
ATOM     23  C   UNL     1      48.294   3.831  16.631  0.00  0.00    +0.000 A 
ATOM     24  S   UNL     1      48.332   3.157  18.196  0.00  0.00    +0.000 S 
ATOM     25  C   UNL     1      48.356   4.697  18.918  0.00  0.00    +0.000 A 
ATOM     26  N   UNL     1      48.366   4.836  20.271  0.00  0.00    +0.000 NA
ATOM     27  C   UNL     1      48.356   6.059  20.682  0.00  0.00    +0.000 A 
ATOM     28  N   UNL     1      48.342   7.157  19.864  0.00  0.00    +0.000 N 
ATOM     29  C   UNL     1      48.359   7.066  18.490  0.00  0.00    +0.000 A 
ATOM     30  O   UNL     1      48.386   8.067  17.784  0.00  0.00    +0.000 OA
ATOM     31  C   UNL     1      48.358   5.711  17.976  0.00  0.00    +0.000 A 
ATOM     32  H   UNL     1      48.344   8.090  20.250  0.00  0.00    +0.000 HD
ENDBRANCH  19  22
ENDBRANCH  17  18
ENDBRANCH   4  17
TORSDOF 6
ENDMDL
MODEL 5
REMARK VINA RESULT:    -8.515      2.995      4.158
REMARK INTER + INTRA:         -11.201
REMARK INTER:                 -10.632
REMARK INTRA:                  -0.569
REMARK UNBOUND:                 0.051
REMARK  Name = 
REMARK  6 active torsions:
REMARK  status: ('A' for Active; 'I' for Inactive)
REMARK    1  A    between atoms: N_1  and  C_2
REMARK    2  A    between atoms: C_5  and  C_6
REMARK    3  A    between atoms: C_6  and  C_7
REMARK    4  A    between atoms: C_10  and  C_11
REMARK    5  A    between atoms: C_11  and  N_12
REMARK    6  A    between atoms: C_13  and  C_15
REMARK                            x       y       z     vdW  Elec       q    Type
REMARK                         _______ _______ _______ _____ _____    ______ ____
ROOT
ATOM      1  C   UNL     1      44.793   3.948  10.357  0.00  0.00    +0.000 A 
ATOM      2  C   UNL     1      45.249   5.260  10.250  0.00  0.00    +0.000 A 
ATOM      3  C   UNL     1      45.905   5.843  11.335  0.00  0.00    +0.000 A 
ATOM      4  C   UNL     1      46.083   5.116  12.512  0.00  0.00    +0.000 A 
ATOM      5  C   UNL     1      45.597   3.814  12.529  0.00  0.00    +0.000 A 
ATOM      6  N   UNL     1      44.964   3.219  11.487  0.00  0.00    +0.000 NA
ENDROOT
BRANCH   1   7
ATOM      7  C   UNL     1      44.121   3.274   9.179  0.00  0.00    +0.000 C 
BRANCH   7  11
ATOM      8  C   UNL     1      47.773   2.287   6.900  0.00  0.00    +0.000 C 
ATOM      9  C   UNL     1      46.938   3.504   6.492  0.00  0.00    +0.000 C 
ATOM     10  C   UNL     1      46.035   3.964   7.635  0.00  0.00    +0.000 C 
ATOM     11  C   UNL     1      45.097   2.828   8.074  0.00  0.00    +0.000 C 
ATOM     12  C   UNL     1      45.943   1.626   8.534  0.00  0.00    +0.000 C 
ATOM     13  C   UNL     1      46.888   1.149   7.426  0.00  0.00    +0.000 C 
BRANCH   8  14
ATOM     14  N   UNL     1      48.568   1.817   5.765  0.00  0.00    +0.000 NA
ATOM     15  H   UNL     1      49.550   1.760   6.038  0.00  0.00    +0.000 HD
ATOM     16  H   UNL     1      48.534   2.507   5.014  0.00  0.00    +0.000 HD
ENDBRANCH   8  14
ENDBRANCH   7  11
ENDBRANCH   1   7
BRANCH   4  17
ATOM     17  C   UNL     1      46.809   5.700  13.688  0.00  0.00    +0.000 C 
BRANCH  17  18
ATOM     18  N   UNL     1      47.973   6.447  13.277  0.00  0.00    +0.000 N 
ATOM     19  C   UNL     1      47.973   7.820  13.292  0.00  0.00    +0.000 C 
ATOM     20  O   UNL     1      46.998   8.461  13.678  0.00  0.00    +0.000 OA
ATOM     21  H   UNL     1      48.686   5.954  12.747  0.00  0.00    +0.000 HD
BRANCH  19  22
ATOM     22  C   UNL     1      49.216   8.491  12.884  0.00  0.00    +0.000 A 
ATOM     23  C   UNL     1      49.203   9.352  11.795  0.00  0.00    +0.000 A 
ATOM     24  S   UNL     1      50.708  10.089  11.484  0.00  0.00    +0.000 S 
ATOM     25  C   UNL     1      51.448   9.244  12.760  0.00  0.00    +0.000 A 
ATOM     26  N   UNL     1      52.772   9.400  13.028  0.00  0.00    +0.000 NA
ATOM     27  C   UNL     1      53.209   8.677  14.004  0.00  0.00    +0.000 A 
ATOM     28  N   UNL     1      52.439   7.816  14.742  0.00  0.00    +0.000 N 
ATOM     29  C   UNL     1      51.091   7.646  14.525  0.00  0.00    +0.000 A 
ATOM     30  O   UNL     1      50.421   6.898  15.228  0.00  0.00    +0.000 OA
ATOM     31  C   UNL     1      50.553   8.427  13.429  0.00  0.00    +0.000 A 
ATOM     32  H   UNL     1      52.841   7.286  15.501  0.00  0.00    +0.000 HD
ENDBRANCH  19  22
ENDBRANCH  17  18
ENDBRANCH   4  17
TORSDOF 6
ENDMDL
MODEL 6
REMARK VINA RESULT:    -8.498      2.460      3.376
REMARK INTER + INTRA:         -11.179
REMARK INTER:                 -10.739
REMARK INTRA:                  -0.439
REMARK UNBOUND:                 0.051
REMARK  Name = 
REMARK  6 active torsions:
REMARK  status: ('A' for Active; 'I' for Inactive)
REMARK    1  A    between atoms: N_1  and  C_2
REMARK    2  A    between atoms: C_5  and  C_6
REMARK    3  A    between atoms: C_6  and  C_7
REMARK    4  A    between atoms: C_10  and  C_11
REMARK    5  A    between atoms: C_11  and  N_12
REMARK    6  A    between atoms: C_13  and  C_15
REMARK                            x       y       z     vdW  Elec       q    Type
REMARK                         _______ _______ _______ _____ _____    ______ ____
ROOT
ATOM      1  C   UNL     1      44.847   4.257  10.528  0.00  0.00    +0.000 A 
ATOM      2  C   UNL     1      45.548   5.424  10.824  0.00  0.00    +0.000 A 
ATOM      3  C   UNL     1      46.173   5.546  12.066  0.00  0.00    +0.000 A 
ATOM      4  C   UNL     1      46.076   4.514  12.997  0.00  0.00    +0.000 A 
ATOM      5  C   UNL     1      45.358   3.386  12.618  0.00  0.00    +0.000 A 
ATOM      6  N   UNL     1      44.748   3.236  11.414  0.00  0.00    +0.000 NA
ENDROOT
BRANCH   1   7
ATOM      7  C   UNL     1      44.200   4.076   9.171  0.00  0.00    +0.000 C 
BRANCH   7  11
ATOM      8  C   UNL     1      47.648   2.263   7.088  0.00  0.00    +0.000 C 
ATOM      9  C   UNL     1      47.000   3.526   6.512  0.00  0.00    +0.000 C 
ATOM     10  C   UNL     1      46.184   4.263   7.573  0.00  0.00    +0.000 C 
ATOM     11  C   UNL     1      45.091   3.347   8.147  0.00  0.00    +0.000 C 
ATOM     12  C   UNL     1      45.752   2.105   8.773  0.00  0.00    +0.000 C 
ATOM     13  C   UNL     1      46.607   1.350   7.750  0.00  0.00    +0.000 C 
BRANCH   8  14
ATOM     14  N   UNL     1      48.355   1.534   6.036  0.00  0.00    +0.000 NA
ATOM     15  H   UNL     1      48.231   2.016   5.146  0.00  0.00    +0.000 HD
ATOM     16  H   UNL     1      47.929   0.615   5.911  0.00  0.00    +0.000 HD
ENDBRANCH   8  14
ENDBRANCH   7  11
ENDBRANCH   1   7
BRANCH   4  17
ATOM     17  C   UNL     1      46.759   4.599  14.331  0.00  0.00    +0.000 C 
BRANCH  17  18
ATOM     18  N   UNL     1      47.397   5.879  14.522  0.00  0.00    +0.000 N 
ATOM     19  C   UNL     1      48.406   6.036  15.440  0.00  0.00    +0.000 C 
ATOM     20  O   UNL     1      48.818   5.093  16.112  0.00  0.00    +0.000 OA
ATOM     21  H   UNL     1      46.924   6.700  14.155  0.00  0.00    +0.000 HD
BRANCH  19  22
ATOM     22  C   UNL     1      49.014   7.370  15.541  0.00  0.00    +0.000 A 
ATOM     23  C   UNL     1      49.695   7.896  14.451  0.00  0.00    +0.000 A 
ATOM     24  S   UNL     1      50.295   9.470  14.710  0.00  0.00    +0.000 S 
ATOM     25  C   UNL     1      49.714   9.488  16.307  0.00  0.00    +0.000 A 
ATOM     26  N   UNL     1      49.920  10.563  17.115  0.00  0.00    +0.000 NA
ATOM     27  C   UNL     1      49.451  10.432  18.310  0.00  0.00    +0.000 A 
ATOM     28  N   UNL     1      48.788   9.324  18.770  0.00  0.00    +0.000 N 
ATOM     29  C   UNL     1      48.532   8.225  17.982  0.00  0.00    +0.000 A 
ATOM     30  O   UNL     1      47.902   7.265  18.410  0.00  0.00    +0.000 OA
ATOM     31  C   UNL     1      49.050   8.317  16.632  0.00  0.00    +0.000 A 
ATOM     32  H   UNL     1      48.437   9.288  19.715  0.00  0.00    +0.000 HD
ENDBRANCH  19  22
ENDBRANCH  17  18
ENDBRANCH   4  17
TORSDOF 6
ENDMDL
MODEL 7
REMARK VINA RESULT:    -8.312      1.194      1.678
REMARK INTER + INTRA:         -10.933
REMARK INTER:                 -10.206
REMARK INTRA:                  -0.726
REMARK UNBOUND:                 0.051
REMARK  Name = 
REMARK  6 active torsions:
REMARK  status: ('A' for Active; 'I' for Inactive)
REMARK    1  A    between atoms: N_1  and  C_2
REMARK    2  A    between atoms: C_5  and  C_6
REMARK    3  A    between atoms: C_6  and  C_7
REMARK    4  A    between atoms: C_10  and  C_11
REMARK    5  A    between atoms: C_11  and  N_12
REMARK    6  A    between atoms: C_13  and  C_15
REMARK                            x       y       z     vdW  Elec       q    Type
REMARK                         _______ _______ _______ _____ _____    ______ ____
ROOT
ATOM      1  C   UNL     1      44.617   5.555  11.282  0.00  0.00    +0.000 A 
ATOM      2  C   UNL     1      44.485   6.942  11.262  0.00  0.00    +0.000 A 
ATOM      3  C   UNL     1      45.420   7.724  11.942  0.00  0.00    +0.000 A 
ATOM      4  C   UNL     1      46.459   7.113  12.642  0.00  0.00    +0.000 A 
ATOM      5  C   UNL     1      46.514   5.725  12.607  0.00  0.00    +0.000 A 
ATOM      6  N   UNL     1      45.625   4.940  11.947  0.00  0.00    +0.000 NA
ENDROOT
BRANCH   1   7
ATOM      7  C   UNL     1      43.646   4.684  10.513  0.00  0.00    +0.000 C 
BRANCH   7  11
ATOM      8  C   UNL     1      46.481   2.414   8.000  0.00  0.00    +0.000 C 
ATOM      9  C   UNL     1      46.097   3.841   7.599  0.00  0.00    +0.000 C 
ATOM     10  C   UNL     1      45.526   4.615   8.787  0.00  0.00    +0.000 C 
ATOM     11  C   UNL     1      44.293   3.897   9.357  0.00  0.00    +0.000 C 
ATOM     12  C   UNL     1      44.697   2.481   9.809  0.00  0.00    +0.000 C 
ATOM     13  C   UNL     1      45.304   1.678   8.654  0.00  0.00    +0.000 C 
BRANCH   8  14
ATOM     14  N   UNL     1      46.948   1.669   6.831  0.00  0.00    +0.000 NA
ATOM     15  H   UNL     1      47.326   2.320   6.142  0.00  0.00    +0.000 HD
ATOM     16  H   UNL     1      46.155   1.218   6.374  0.00  0.00    +0.000 HD
ENDBRANCH   8  14
ENDBRANCH   7  11
ENDBRANCH   1   7
BRANCH   4  17
ATOM     17  C   UNL     1      47.498   7.923  13.361  0.00  0.00    +0.000 C 
BRANCH  17  18
ATOM     18  N   UNL     1      47.816   7.359  14.650  0.00  0.00    +0.000 N 
ATOM     19  C   UNL     1      49.118   7.131  15.020  0.00  0.00    +0.000 C 
ATOM     20  O   UNL     1      50.058   7.420  14.284  0.00  0.00    +0.000 OA
ATOM     21  H   UNL     1      47.065   6.908  15.164  0.00  0.00    +0.000 HD
BRANCH  19  22
ATOM     22  C   UNL     1      49.342   6.581  16.365  0.00  0.00    +0.000 A 
ATOM     23  C   UNL     1      50.115   7.291  17.274  0.00  0.00    +0.000 A 
ATOM     24  S   UNL     1      50.235   6.546  18.803  0.00  0.00    +0.000 S 
ATOM     25  C   UNL     1      49.303   5.220  18.291  0.00  0.00    +0.000 A 
ATOM     26  N   UNL     1      49.043   4.181  19.130  0.00  0.00    +0.000 NA
ATOM     27  C   UNL     1      48.348   3.229  18.603  0.00  0.00    +0.000 A 
ATOM     28  N   UNL     1      47.884   3.224  17.314  0.00  0.00    +0.000 N 
ATOM     29  C   UNL     1      48.099   4.264  16.438  0.00  0.00    +0.000 A 
ATOM     30  O   UNL     1      47.637   4.248  15.303  0.00  0.00    +0.000 OA
ATOM     31  C   UNL     1      48.886   5.354  16.977  0.00  0.00    +0.000 A 
ATOM     32  H   UNL     1      47.337   2.451  16.966  0.00  0.00    +0.000 HD
ENDBRANCH  19  22
ENDBRANCH  17  18
ENDBRANCH   4  17
TORSDOF 6
ENDMDL
MODEL 8
REMARK VINA RESULT:    -8.178      1.919      2.552
REMARK INTER + INTRA:         -10.757
REMARK INTER:                  -9.832
REMARK INTRA:                  -0.925
REMARK UNBOUND:                 0.051
REMARK  Name = 
REMARK  6 active torsions:
REMARK  status: ('A' for Active; 'I' for Inactive)
REMARK    1  A    between atoms: N_1  and  C_2
REMARK    2  A    between atoms: C_5  and  C_6
REMARK    3  A    between atoms: C_6  and  C_7
REMARK    4  A    between atoms: C_10  and  C_11
REMARK    5  A    between atoms: C_11  and  N_12
REMARK    6  A    between atoms: C_13  and  C_15
REMARK                            x       y       z     vdW  Elec       q    Type
REMARK                         _______ _______ _______ _____ _____    ______ ____
ROOT
ATOM      1  C   UNL     1      44.716   4.859  10.442  0.00  0.00    +0.000 A 
ATOM      2  C   UNL     1      45.996   5.393  10.577  0.00  0.00    +0.000 A 
ATOM      3  C   UNL     1      46.157   6.615  11.230  0.00  0.00    +0.000 A 
ATOM      4  C   UNL     1      45.043   7.293  11.724  0.00  0.00    +0.000 A 
ATOM      5  C   UNL     1      43.806   6.686  11.546  0.00  0.00    +0.000 A 
ATOM      6  N   UNL     1      43.620   5.494  10.923  0.00  0.00    +0.000 NA
ENDROOT
BRANCH   1   7
ATOM      7  C   UNL     1      44.516   3.511   9.781  0.00  0.00    +0.000 C 
BRANCH   7  11
ATOM      8  C   UNL     1      47.018   1.972   6.483  0.00  0.00    +0.000 C 
ATOM      9  C   UNL     1      46.849   1.133   7.753  0.00  0.00    +0.000 C 
ATOM     10  C   UNL     1      45.614   1.567   8.542  0.00  0.00    +0.000 C 
ATOM     11  C   UNL     1      45.710   3.052   8.923  0.00  0.00    +0.000 C 
ATOM     12  C   UNL     1      45.827   3.896   7.639  0.00  0.00    +0.000 C 
ATOM     13  C   UNL     1      47.037   3.473   6.800  0.00  0.00    +0.000 C 
BRANCH   8  14
ATOM     14  N   UNL     1      48.249   1.593   5.788  0.00  0.00    +0.000 NA
ATOM     15  H   UNL     1      49.053   1.821   6.373  0.00  0.00    +0.000 HD
ATOM     16  H   UNL     1      48.354   2.159   4.946  0.00  0.00    +0.000 HD
ENDBRANCH   8  14
ENDBRANCH   7  11
ENDBRANCH   1   7
BRANCH   4  17
ATOM     17  C   UNL     1      45.183   8.595  12.457  0.00  0.00    +0.000 C 
BRANCH  17  18
ATOM     18  N   UNL     1      46.122   8.494  13.547  0.00  0.00    +0.000 N 
ATOM     19  C   UNL     1      47.392   9.005  13.435  0.00  0.00    +0.000 C 
ATOM     20  O   UNL     1      47.766   9.586  12.418  0.00  0.00    +0.000 OA
ATOM     21  H   UNL     1      45.916   7.829  14.287  0.00  0.00    +0.000 HD
BRANCH  19  22
ATOM     22  C   UNL     1      48.266   8.880  14.609  0.00  0.00    +0.000 A 
ATOM     23  C   UNL     1      48.889  10.011  15.122  0.00  0.00    +0.000 A 
ATOM     24  S   UNL     1      49.825   9.708  16.514  0.00  0.00    +0.000 S 
ATOM     25  C   UNL     1      49.478   8.045  16.452  0.00  0.00    +0.000 A 
ATOM     26  N   UNL     1      50.005   7.185  17.367  0.00  0.00    +0.000 NA
ATOM     27  C   UNL     1      49.682   5.949  17.186  0.00  0.00    +0.000 A 
ATOM     28  N   UNL     1      48.875   5.493  16.176  0.00  0.00    +0.000 N 
ATOM     29  C   UNL     1      48.299   6.328  15.246  0.00  0.00    +0.000 A 
ATOM     30  O   UNL     1      47.549   5.895  14.378  0.00  0.00    +0.000 OA
ATOM     31  C   UNL     1      48.640   7.728  15.397  0.00  0.00    +0.000 A 
ATOM     32  H   UNL     1      48.653   4.512  16.096  0.00  0.00    +0.000 HD
ENDBRANCH  19  22
ENDBRANCH  17  18
ENDBRANCH   4  17
TORSDOF 6
ENDMDL
MODEL 9
REMARK VINA RESULT:    -8.105      3.209      3.783
REMARK INTER + INTRA:         -10.660
REMARK INTER:                 -10.034
REMARK INTRA:                  -0.627
REMARK UNBOUND:                 0.051
REMARK  Name = 
REMARK  6 active torsions:
REMARK  status: ('A' for Active; 'I' for Inactive)
REMARK    1  A    between atoms: N_1  and  C_2
REMARK    2  A    between atoms: C_5  and  C_6
REMARK    3  A    between atoms: C_6  and  C_7
REMARK    4  A    between atoms: C_10  and  C_11
REMARK    5  A    between atoms: C_11  and  N_12
REMARK    6  A    between atoms: C_13  and  C_15
REMARK                            x       y       z     vdW  Elec       q    Type
REMARK                         _______ _______ _______ _____ _____    ______ ____
ROOT
ATOM      1  C   UNL     1      44.583   4.370  10.392  0.00  0.00    +0.000 A 
ATOM      2  C   UNL     1      43.580   4.709  11.298  0.00  0.00    +0.000 A 
ATOM      3  C   UNL     1      43.709   5.877  12.050  0.00  0.00    +0.000 A 
ATOM      4  C   UNL     1      44.840   6.679  11.900  0.00  0.00    +0.000 A 
ATOM      5  C   UNL     1      45.789   6.265  10.973  0.00  0.00    +0.000 A 
ATOM      6  N   UNL     1      45.685   5.139  10.222  0.00  0.00    +0.000 NA
ENDROOT
BRANCH   1   7
ATOM      7  C   UNL     1      44.446   3.134   9.527  0.00  0.00    +0.000 C 
BRANCH   7  11
ATOM      8  C   UNL     1      47.099   1.847   6.240  0.00  0.00    +0.000 C 
ATOM      9  C   UNL     1      47.129   1.089   7.570  0.00  0.00    +0.000 C 
ATOM     10  C   UNL     1      45.858   1.342   8.379  0.00  0.00    +0.000 C 
ATOM     11  C   UNL     1      45.681   2.844   8.653  0.00  0.00    +0.000 C 
ATOM     12  C   UNL     1      45.597   3.594   7.310  0.00  0.00    +0.000 C 
ATOM     13  C   UNL     1      46.841   3.344   6.451  0.00  0.00    +0.000 C 
BRANCH   8  14
ATOM     14  N   UNL     1      48.359   1.654   5.521  0.00  0.00    +0.000 NA
ATOM     15  H   UNL     1      48.180   1.652   4.516  0.00  0.00    +0.000 HD
ATOM     16  H   UNL     1      48.735   0.730   5.733  0.00  0.00    +0.000 HD
ENDBRANCH   8  14
ENDBRANCH   7  11
ENDBRANCH   1   7
BRANCH   4  17
ATOM     17  C   UNL     1      44.999   7.956  12.671  0.00  0.00    +0.000 C 
BRANCH  17  18
ATOM     18  N   UNL     1      46.202   7.951  13.468  0.00  0.00    +0.000 N 
ATOM     19  C   UNL     1      47.232   8.819  13.198  0.00  0.00    +0.000 C 
ATOM     20  O   UNL     1      47.159   9.645  12.291  0.00  0.00    +0.000 OA
ATOM     21  H   UNL     1      46.374   7.141  14.056  0.00  0.00    +0.000 HD
BRANCH  19  22
ATOM     22  C   UNL     1      48.404   8.758  14.083  0.00  0.00    +0.000 A 
ATOM     23  C   UNL     1      48.242   8.958  15.448  0.00  0.00    +0.000 A 
ATOM     24  S   UNL     1      49.685   8.803  16.341  0.00  0.00    +0.000 S 
ATOM     25  C   UNL     1      50.591   8.517  14.931  0.00  0.00    +0.000 A 
ATOM     26  N   UNL     1      51.937   8.324  14.991  0.00  0.00    +0.000 NA
ATOM     27  C   UNL     1      52.502   8.145  13.845  0.00  0.00    +0.000 A 
ATOM     28  N   UNL     1      51.844   8.136  12.644  0.00  0.00    +0.000 N 
ATOM     29  C   UNL     1      50.482   8.299  12.536  0.00  0.00    +0.000 A 
ATOM     30  O   UNL     1      49.916   8.246  11.450  0.00  0.00    +0.000 OA
ATOM     31  C   UNL     1      49.799   8.516  13.796  0.00  0.00    +0.000 A 
ATOM     32  H   UNL     1      52.345   7.981  11.782  0.00  0.00    +0.000 HD
ENDBRANCH  19  22
ENDBRANCH  17  18
ENDBRANCH   4  17
TORSDOF 6
ENDMDL
