MODEL 1
REMARK VINA RESULT:    -9.785      0.000      0.000
REMARK INTER + INTRA:         -14.376
REMARK INTER:                 -13.218
REMARK INTRA:                  -1.158
REMARK UNBOUND:                -1.158
REMARK  Name = 
REMARK  6 active torsions:
REMARK  status: ('A' for Active; 'I' for Inactive)
REMARK    1  A    between atoms: C_2  and  C_4
REMARK    2  A    between atoms: N_8  and  C_9
REMARK    3  A    between atoms: C_9  and  C_10
REMARK    4  A    between atoms: C_10  and  C_13
REMARK    5  A    between atoms: C_17  and  O_18
REMARK    6  A    between atoms: O_18  and  C_19
REMARK                            x       y       z     vdW  Elec       q    Type
REMARK                         _______ _______ _______ _____ _____    ______ ____
ROOT
ATOM      1  C   UNL     1      43.670   4.645  12.483  0.00  0.00    +0.000 C 
ATOM      2  F   UNL     1      42.761   5.546  12.956  0.00  0.00    +0.000 F 
ATOM      3  F   UNL     1      43.492   3.517  13.230  0.00  0.00    +0.000 F 
ENDROOT
BRANCH   1   4
ATOM      4  C   UNL     1      45.094   5.168  12.546  0.00  0.00    +0.000 A 
ATOM      5  C   UNL     1      45.546   6.118  11.622  0.00  0.00    +0.000 A 
ATOM      6  C   UNL     1      46.794   6.721  11.791  0.00  0.00    +0.000 A 
ATOM      7  C   UNL     1      47.609   6.372  12.874  0.00  0.00    +0.000 A 
ATOM      8  C   UNL     1      47.188   5.398  13.777  0.00  0.00    +0.000 A 
ATOM      9  C   UNL     1      45.934   4.803  13.612  0.00  0.00    +0.000 A 
BRANCH   8  10
ATOM     10  O   UNL     1      47.876   4.994  14.893  0.00  0.00    +0.000 OA
BRANCH  10  11
ATOM     11  C   UNL     1      47.276   4.040  15.795  0.00  0.00    +0.000 C 
ATOM     12  C   UNL     1      47.204   4.433  17.285  0.00  0.00    +0.000 C 
ATOM     13  C   UNL     1      47.695   3.020  17.647  0.00  0.00    +0.000 C 
ATOM     14  F   UNL     1      48.635   2.959  18.617  0.00  0.00    +0.000 F 
ATOM     15  F   UNL     1      46.723   2.145  17.992  0.00  0.00    +0.000 F 
ATOM     16  C   UNL     1      48.215   2.882  16.208  0.00  0.00    +0.000 C 
ENDBRANCH  10  11
ENDBRANCH   8  10
ENDBRANCH   1   4
BRANCH   1  17
ATOM     17  C   UNL     1      43.349   4.328  11.002  0.00  0.00    +0.000 C 
BRANCH  17  22
ATOM     18  C   UNL     1      46.515   2.608   7.367  0.00  0.00    +0.000 A 
ATOM     19  C   UNL     1      46.052   3.886   7.653  0.00  0.00    +0.000 A 
ATOM     20  C   UNL     1      45.158   4.057   8.708  0.00  0.00    +0.000 A 
ATOM     21  C   UNL     1      44.738   2.958   9.457  0.00  0.00    +0.000 A 
ATOM     22  N   UNL     1      43.871   3.061  10.511  0.00  0.00    +0.000 N 
ATOM     23  N   UNL     1      45.168   1.715   9.170  0.00  0.00    +0.000 NA
ATOM     24  C   UNL     1      46.032   1.558   8.132  0.00  0.00    +0.000 A 
ATOM     25  H   UNL     1      43.651   2.190  10.983  0.00  0.00    +0.000 HD
BRANCH  18  27
ATOM     26  N   UNL     1      47.478   3.204   5.221  0.00  0.00    +0.000 N 
ATOM     27  C   UNL     1      47.480   2.336   6.284  0.00  0.00    +0.000 C 
ATOM     28  O   UNL     1      48.273   1.409   6.347  0.00  0.00    +0.000 OA
ATOM     29  H   UNL     1      48.216   3.076   4.543  0.00  0.00    +0.000 HD
ATOM     30  H   UNL     1      47.030   4.107   5.262  0.00  0.00    +0.000 HD
ENDBRANCH  18  27
ENDBRANCH  17  22
ENDBRANCH   1  17
TORSDOF 6
ENDMDL
MODEL 2
REMARK VINA RESULT:    -9.399      1.186      1.413
REMARK INTER + INTRA:         -13.854
REMARK INTER:                 -13.005
REMARK INTRA:                  -0.849
REMARK UNBOUND:                -1.158
REMARK  Name = 
REMARK  6 active torsions:
REMARK  status: ('A' for Active; 'I' for Inactive)
REMARK    1  A    between atoms: C_2  and  C_4
REMARK    2  A    between atoms: N_8  and  C_9
REMARK    3  A    between atoms: C_9  and  C_10
REMARK    4  A    between atoms: C_10  and  C_13
REMARK    5  A    between atoms: C_17  and  O_18
REMARK    6  A    between atoms: O_18  and  C_19
REMARK                            x       y       z     vdW  Elec       q    Type
REMARK                         _______ _______ _______ _____ _____    ______ ____
ROOT
ATOM      1  C   UNL     1      43.168   5.128  12.472  0.00  0.00    +0.000 C 
ATOM      2  F   UNL     1      42.362   6.219  12.325  0.00  0.00    +0.000 F 
ATOM      3  F   UNL     1      42.617   4.398  13.486  0.00  0.00    +0.000 F 
ENDROOT
BRANCH   1   4
ATOM      4  C   UNL     1      44.613   5.504  12.744  0.00  0.00    +0.000 A 
ATOM      5  C   UNL     1      45.080   6.794  12.461  0.00  0.00    +0.000 A 
ATOM      6  C   UNL     1      46.355   7.185  12.873  0.00  0.00    +0.000 A 
ATOM      7  C   UNL     1      47.183   6.290  13.559  0.00  0.00    +0.000 A 
ATOM      8  C   UNL     1      46.747   4.990  13.811  0.00  0.00    +0.000 A 
ATOM      9  C   UNL     1      45.466   4.604  13.406  0.00  0.00    +0.000 A 
BRANCH   8  10
ATOM     10  O   UNL     1      47.447   4.033  14.500  0.00  0.00    +0.000 OA
BRANCH  10  11
ATOM     11  C   UNL     1      47.425   4.035  15.944  0.00  0.00    +0.000 C 
ATOM     12  C   UNL     1      48.470   4.915  16.660  0.00  0.00    +0.000 C 
ATOM     13  C   UNL     1      48.748   3.746  17.621  0.00  0.00    +0.000 C 
ATOM     14  F   UNL     1      50.051   3.512  17.897  0.00  0.00    +0.000 F 
ATOM     15  F   UNL     1      48.106   3.814  18.810  0.00  0.00    +0.000 F 
ATOM     16  C   UNL     1      48.108   2.805  16.588  0.00  0.00    +0.000 C 
ENDBRANCH  10  11
ENDBRANCH   8  10
ENDBRANCH   1   4
BRANCH   1  17
ATOM     17  C   UNL     1      43.135   4.291  11.170  0.00  0.00    +0.000 C 
BRANCH  17  22
ATOM     18  C   UNL     1      46.437   2.456   7.715  0.00  0.00    +0.000 A 
ATOM     19  C   UNL     1      45.754   1.837   8.753  0.00  0.00    +0.000 A 
ATOM     20  C   UNL     1      44.925   2.606   9.568  0.00  0.00    +0.000 A 
ATOM     21  C   UNL     1      44.790   3.974   9.338  0.00  0.00    +0.000 A 
ATOM     22  N   UNL     1      43.985   4.782  10.094  0.00  0.00    +0.000 N 
ATOM     23  N   UNL     1      45.467   4.584   8.347  0.00  0.00    +0.000 NA
ATOM     24  C   UNL     1      46.281   3.825   7.566  0.00  0.00    +0.000 A 
ATOM     25  H   UNL     1      43.964   5.759   9.821  0.00  0.00    +0.000 HD
BRANCH  18  27
ATOM     26  N   UNL     1      48.382   2.408   6.266  0.00  0.00    +0.000 N 
ATOM     27  C   UNL     1      47.318   1.718   6.790  0.00  0.00    +0.000 C 
ATOM     28  O   UNL     1      47.137   0.537   6.535  0.00  0.00    +0.000 OA
ATOM     29  H   UNL     1      49.041   1.864   5.726  0.00  0.00    +0.000 HD
ATOM     30  H   UNL     1      48.702   3.283   6.654  0.00  0.00    +0.000 HD
ENDBRANCH  18  27
ENDBRANCH  17  22
ENDBRANCH   1  17
TORSDOF 6
ENDMDL
MODEL 3
REMARK VINA RESULT:    -8.880      2.877      4.056
REMARK INTER + INTRA:         -13.152
REMARK INTER:                 -12.015
REMARK INTRA:                  -1.137
REMARK UNBOUND:                -1.158
REMARK  Name = 
REMARK  6 active torsions:
REMARK  status: ('A' for Active; 'I' for Inactive)
REMARK    1  A    between atoms: C_2  and  C_4
REMARK    2  A    between atoms: N_8  and  C_9
REMARK    3  A    between atoms: C_9  and  C_10
REMARK    4  A    between atoms: C_10  and  C_13
REMARK    5  A    between atoms: C_17  and  O_18
REMARK    6  A    between atoms: O_18  and  C_19
REMARK                            x       y       z     vdW  Elec       q    Type
REMARK                         _______ _______ _______ _____ _____    ______ ____
ROOT
ATOM      1  C   UNL     1      43.445   5.606  12.034  0.00  0.00    +0.000 C 
ATOM      2  F   UNL     1      43.515   6.938  11.744  0.00  0.00    +0.000 F 
ATOM      3  F   UNL     1      42.334   5.458  12.813  0.00  0.00    +0.000 F 
ENDROOT
BRANCH   1   4
ATOM      4  C   UNL     1      44.703   5.091  12.709  0.00  0.00    +0.000 A 
ATOM      5  C   UNL     1      44.968   3.717  12.769  0.00  0.00    +0.000 A 
ATOM      6  C   UNL     1      46.203   3.261  13.233  0.00  0.00    +0.000 A 
ATOM      7  C   UNL     1      47.181   4.168  13.654  0.00  0.00    +0.000 A 
ATOM      8  C   UNL     1      46.915   5.537  13.638  0.00  0.00    +0.000 A 
ATOM      9  C   UNL     1      45.681   5.991  13.164  0.00  0.00    +0.000 A 
BRANCH   8  10
ATOM     10  O   UNL     1      47.798   6.525  13.991  0.00  0.00    +0.000 OA
BRANCH  10  11
ATOM     11  C   UNL     1      48.830   6.924  13.065  0.00  0.00    +0.000 C 
ATOM     12  C   UNL     1      49.345   8.373  13.170  0.00  0.00    +0.000 C 
ATOM     13  C   UNL     1      49.266   8.479  11.637  0.00  0.00    +0.000 C 
ATOM     14  F   UNL     1      48.747   9.631  11.157  0.00  0.00    +0.000 F 
ATOM     15  F   UNL     1      50.434   8.277  10.986  0.00  0.00    +0.000 F 
ATOM     16  C   UNL     1      48.311   7.275  11.650  0.00  0.00    +0.000 C 
ENDBRANCH  10  11
ENDBRANCH   8  10
ENDBRANCH   1   4
BRANCH   1  17
ATOM     17  C   UNL     1      43.253   4.809  10.721  0.00  0.00    +0.000 C 
BRANCH  17  22
ATOM     18  C   UNL     1      46.479   2.333   7.611  0.00  0.00    +0.000 A 
ATOM     19  C   UNL     1      45.674   1.882   8.650  0.00  0.00    +0.000 A 
ATOM     20  C   UNL     1      44.904   2.804   9.355  0.00  0.00    +0.000 A 
ATOM     21  C   UNL     1      44.948   4.157   9.019  0.00  0.00    +0.000 A 
ATOM     22  N   UNL     1      44.209   5.110   9.664  0.00  0.00    +0.000 N 
ATOM     23  N   UNL     1      45.743   4.602   8.028  0.00  0.00    +0.000 NA
ATOM     24  C   UNL     1      46.498   3.695   7.354  0.00  0.00    +0.000 A 
ATOM     25  H   UNL     1      44.320   6.058   9.320  0.00  0.00    +0.000 HD
BRANCH  18  27
ATOM     26  N   UNL     1      48.366   1.989   6.126  0.00  0.00    +0.000 N 
ATOM     27  C   UNL     1      47.310   1.426   6.797  0.00  0.00    +0.000 C 
ATOM     28  O   UNL     1      47.097   0.224   6.754  0.00  0.00    +0.000 OA
ATOM     29  H   UNL     1      48.993   1.345   5.666  0.00  0.00    +0.000 HD
ATOM     30  H   UNL     1      48.717   2.910   6.347  0.00  0.00    +0.000 HD
ENDBRANCH  18  27
ENDBRANCH  17  22
ENDBRANCH   1  17
TORSDOF 6
ENDMDL
MODEL 4
REMARK VINA RESULT:    -8.556      2.018      2.386
REMARK INTER + INTRA:         -12.715
REMARK INTER:                 -12.131
REMARK INTRA:                  -0.584
REMARK UNBOUND:                -1.158
REMARK  Name = 
REMARK  6 active torsions:
REMARK  status: ('A' for Active; 'I' for Inactive)
REMARK    1  A    between atoms: C_2  and  C_4
REMARK    2  A    between atoms: N_8  and  C_9
REMARK    3  A    between atoms: C_9  and  C_10
REMARK    4  A    between atoms: C_10  and  C_13
REMARK    5  A    between atoms: C_17  and  O_18
REMARK    6  A    between atoms: O_18  and  C_19
REMARK                            x       y       z     vdW  Elec       q    Type
REMARK                         _______ _______ _______ _____ _____    ______ ____
ROOT
ATOM      1  C   UNL     1      43.722   4.659  12.431  0.00  0.00    +0.000 C 
ATOM      2  F   UNL     1      42.679   4.914  13.274  0.00  0.00    +0.000 F 
ATOM      3  F   UNL     1      44.130   3.390  12.726  0.00  0.00    +0.000 F 
ENDROOT
BRANCH   1   4
ATOM      4  C   UNL     1      44.841   5.676  12.565  0.00  0.00    +0.000 A 
ATOM      5  C   UNL     1      44.642   7.010  12.186  0.00  0.00    +0.000 A 
ATOM      6  C   UNL     1      45.611   7.973  12.473  0.00  0.00    +0.000 A 
ATOM      7  C   UNL     1      46.794   7.614  13.128  0.00  0.00    +0.000 A 
ATOM      8  C   UNL     1      47.023   6.283  13.474  0.00  0.00    +0.000 A 
ATOM      9  C   UNL     1      46.047   5.323  13.194  0.00  0.00    +0.000 A 
BRANCH   8  10
ATOM     10  O   UNL     1      48.122   5.811  14.145  0.00  0.00    +0.000 OA
BRANCH  10  11
ATOM     11  C   UNL     1      48.571   6.484  15.340  0.00  0.00    +0.000 C 
ATOM     12  C   UNL     1      50.034   6.971  15.363  0.00  0.00    +0.000 C 
ATOM     13  C   UNL     1      50.167   6.404  16.787  0.00  0.00    +0.000 C 
ATOM     14  F   UNL     1      51.311   5.732  17.045  0.00  0.00    +0.000 F 
ATOM     15  F   UNL     1      50.015   7.308  17.782  0.00  0.00    +0.000 F 
ATOM     16  C   UNL     1      48.933   5.533  16.505  0.00  0.00    +0.000 C 
ENDBRANCH  10  11
ENDBRANCH   8  10
ENDBRANCH   1   4
BRANCH   1  17
ATOM     17  C   UNL     1      43.217   4.702  10.968  0.00  0.00    +0.000 C 
BRANCH  17  22
ATOM     18  C   UNL     1      46.477   2.509   7.687  0.00  0.00    +0.000 A 
ATOM     19  C   UNL     1      45.632   1.964   8.645  0.00  0.00    +0.000 A 
ATOM     20  C   UNL     1      44.862   2.822   9.429  0.00  0.00    +0.000 A 
ATOM     21  C   UNL     1      44.948   4.202   9.250  0.00  0.00    +0.000 A 
ATOM     22  N   UNL     1      44.211   5.096   9.979  0.00  0.00    +0.000 N 
ATOM     23  N   UNL     1      45.781   4.735   8.338  0.00  0.00    +0.000 NA
ATOM     24  C   UNL     1      46.535   3.890   7.586  0.00  0.00    +0.000 A 
ATOM     25  H   UNL     1      44.355   6.073   9.748  0.00  0.00    +0.000 HD
BRANCH  18  27
ATOM     26  N   UNL     1      48.355   2.304   6.165  0.00  0.00    +0.000 N 
ATOM     27  C   UNL     1      47.311   1.678   6.798  0.00  0.00    +0.000 C 
ATOM     28  O   UNL     1      47.110   0.480   6.662  0.00  0.00    +0.000 OA
ATOM     29  H   UNL     1      48.985   1.705   5.651  0.00  0.00    +0.000 HD
ATOM     30  H   UNL     1      48.698   3.208   6.455  0.00  0.00    +0.000 HD
ENDBRANCH  18  27
ENDBRANCH  17  22
ENDBRANCH   1  17
TORSDOF 6
ENDMDL
MODEL 5
REMARK VINA RESULT:    -8.552      2.834      3.934
REMARK INTER + INTRA:         -12.710
REMARK INTER:                 -11.596
REMARK INTRA:                  -1.114
REMARK UNBOUND:                -1.158
REMARK  Name = 
REMARK  6 active torsions:
REMARK  status: ('A' for Active; 'I' for Inactive)
REMARK    1  A    between atoms: C_2  and  C_4
REMARK    2  A    between atoms: N_8  and  C_9
REMARK    3  A    between atoms: C_9  and  C_10
REMARK    4  A    between atoms: C_10  and  C_13
REMARK    5  A    between atoms: C_17  and  O_18
REMARK    6  A    between atoms: O_18  and  C_19
REMARK                            x       y       z     vdW  Elec       q    Type
REMARK                         _______ _______ _______ _____ _____    ______ ____
ROOT
ATOM      1  C   UNL     1      44.193   3.911  12.538  0.00  0.00    +0.000 C 
ATOM      2  F   UNL     1      43.298   3.889  13.568  0.00  0.00    +0.000 F 
ATOM      3  F   UNL     1      45.142   2.983  12.857  0.00  0.00    +0.000 F 
ENDROOT
BRANCH   1   4
ATOM      4  C   UNL     1      44.782   5.291  12.308  0.00  0.00    +0.000 A 
ATOM      5  C   UNL     1      44.067   6.262  11.596  0.00  0.00    +0.000 A 
ATOM      6  C   UNL     1      44.535   7.576  11.539  0.00  0.00    +0.000 A 
ATOM      7  C   UNL     1      45.727   7.932  12.177  0.00  0.00    +0.000 A 
ATOM      8  C   UNL     1      46.471   6.966  12.854  0.00  0.00    +0.000 A 
ATOM      9  C   UNL     1      45.995   5.654  12.919  0.00  0.00    +0.000 A 
BRANCH   8  10
ATOM     10  O   UNL     1      47.633   7.194  13.545  0.00  0.00    +0.000 OA
BRANCH  10  11
ATOM     11  C   UNL     1      48.902   7.073  12.868  0.00  0.00    +0.000 C 
ATOM     12  C   UNL     1      49.933   8.195  13.105  0.00  0.00    +0.000 C 
ATOM     13  C   UNL     1      50.215   8.210  11.592  0.00  0.00    +0.000 C 
ATOM     14  F   UNL     1      50.323   9.435  11.030  0.00  0.00    +0.000 F 
ATOM     15  F   UNL     1      51.303   7.507  11.203  0.00  0.00    +0.000 F 
ATOM     16  C   UNL     1      48.869   7.498  11.381  0.00  0.00    +0.000 C 
ENDBRANCH  10  11
ENDBRANCH   8  10
ENDBRANCH   1   4
BRANCH   1  17
ATOM     17  C   UNL     1      43.480   3.478  11.234  0.00  0.00    +0.000 C 
BRANCH  17  22
ATOM     18  C   UNL     1      46.568   2.709   7.224  0.00  0.00    +0.000 A 
ATOM     19  C   UNL     1      45.990   3.866   7.731  0.00  0.00    +0.000 A 
ATOM     20  C   UNL     1      45.153   3.770   8.841  0.00  0.00    +0.000 A 
ATOM     21  C   UNL     1      44.904   2.529   9.426  0.00  0.00    +0.000 A 
ATOM     22  N   UNL     1      44.102   2.370  10.524  0.00  0.00    +0.000 N 
ATOM     23  N   UNL     1      45.444   1.403   8.926  0.00  0.00    +0.000 NA
ATOM     24  C   UNL     1      46.250   1.506   7.836  0.00  0.00    +0.000 A 
ATOM     25  H   UNL     1      44.008   1.418  10.862  0.00  0.00    +0.000 HD
BRANCH  18  27
ATOM     26  N   UNL     1      48.809   2.481   6.325  0.00  0.00    +0.000 N 
ATOM     27  C   UNL     1      47.482   2.718   6.066  0.00  0.00    +0.000 C 
ATOM     28  O   UNL     1      47.076   2.885   4.926  0.00  0.00    +0.000 OA
ATOM     29  H   UNL     1      49.406   2.376   5.516  0.00  0.00    +0.000 HD
ATOM     30  H   UNL     1      49.127   2.087   7.198  0.00  0.00    +0.000 HD
ENDBRANCH  18  27
ENDBRANCH  17  22
ENDBRANCH   1  17
TORSDOF 6
ENDMDL
MODEL 6
REMARK VINA RESULT:    -8.093      3.751      7.895
REMARK INTER + INTRA:         -12.089
REMARK INTER:                 -11.047
REMARK INTRA:                  -1.043
REMARK UNBOUND:                -1.158
REMARK  Name = 
REMARK  6 active torsions:
REMARK  status: ('A' for Active; 'I' for Inactive)
REMARK    1  A    between atoms: C_2  and  C_4
REMARK    2  A    between atoms: N_8  and  C_9
REMARK    3  A    between atoms: C_9  and  C_10
REMARK    4  A    between atoms: C_10  and  C_13
REMARK    5  A    between atoms: C_17  and  O_18
REMARK    6  A    between atoms: O_18  and  C_19
REMARK                            x       y       z     vdW  Elec       q    Type
REMARK                         _______ _______ _______ _____ _____    ______ ____
ROOT
ATOM      1  C   UNL     1      45.633   7.133  12.033  0.00  0.00    +0.000 C 
ATOM      2  F   UNL     1      45.363   7.793  13.197  0.00  0.00    +0.000 F 
ATOM      3  F   UNL     1      45.358   8.022  11.035  0.00  0.00    +0.000 F 
ENDROOT
BRANCH   1   4
ATOM      4  C   UNL     1      44.844   5.843  11.899  0.00  0.00    +0.000 A 
ATOM      5  C   UNL     1      43.873   5.500  12.847  0.00  0.00    +0.000 A 
ATOM      6  C   UNL     1      43.033   4.406  12.626  0.00  0.00    +0.000 A 
ATOM      7  C   UNL     1      43.163   3.637  11.464  0.00  0.00    +0.000 A 
ATOM      8  C   UNL     1      44.153   3.943  10.533  0.00  0.00    +0.000 A 
ATOM      9  C   UNL     1      44.986   5.044  10.751  0.00  0.00    +0.000 A 
BRANCH   8  10
ATOM     10  O   UNL     1      44.360   3.290   9.345  0.00  0.00    +0.000 OA
BRANCH  10  11
ATOM     11  C   UNL     1      45.704   3.128   8.844  0.00  0.00    +0.000 C 
ATOM     12  C   UNL     1      45.994   3.665   7.428  0.00  0.00    +0.000 C 
ATOM     13  C   UNL     1      46.749   2.360   7.122  0.00  0.00    +0.000 C 
ATOM     14  F   UNL     1      46.506   1.813   5.910  0.00  0.00    +0.000 F 
ATOM     15  F   UNL     1      48.094   2.429   7.255  0.00  0.00    +0.000 F 
ATOM     16  C   UNL     1      46.012   1.711   8.304  0.00  0.00    +0.000 C 
ENDBRANCH  10  11
ENDBRANCH   8  10
ENDBRANCH   1   4
BRANCH   1  17
ATOM     17  C   UNL     1      47.138   6.773  11.989  0.00  0.00    +0.000 C 
BRANCH  17  22
ATOM     18  C   UNL     1      47.885   4.332  16.427  0.00  0.00    +0.000 A 
ATOM     19  C   UNL     1      47.075   4.035  15.339  0.00  0.00    +0.000 A 
ATOM     20  C   UNL     1      47.051   4.912  14.256  0.00  0.00    +0.000 A 
ATOM     21  C   UNL     1      47.830   6.068  14.274  0.00  0.00    +0.000 A 
ATOM     22  N   UNL     1      47.860   6.964  13.240  0.00  0.00    +0.000 N 
ATOM     23  N   UNL     1      48.600   6.373  15.335  0.00  0.00    +0.000 NA
ATOM     24  C   UNL     1      48.607   5.515  16.390  0.00  0.00    +0.000 A 
ATOM     25  H   UNL     1      48.474   7.760  13.368  0.00  0.00    +0.000 HD
BRANCH  18  27
ATOM     26  N   UNL     1      46.943   2.592  17.830  0.00  0.00    +0.000 N 
ATOM     27  C   UNL     1      47.990   3.451  17.605  0.00  0.00    +0.000 C 
ATOM     28  O   UNL     1      48.978   3.453  18.324  0.00  0.00    +0.000 OA
ATOM     29  H   UNL     1      47.075   1.917  18.570  0.00  0.00    +0.000 HD
ATOM     30  H   UNL     1      46.252   2.386  17.124  0.00  0.00    +0.000 HD
ENDBRANCH  18  27
ENDBRANCH  17  22
ENDBRANCH   1  17
TORSDOF 6
ENDMDL
MODEL 7
REMARK VINA RESULT:    -8.016      3.811      8.350
REMARK INTER + INTRA:         -11.985
REMARK INTER:                 -11.247
REMARK INTRA:                  -0.738
REMARK UNBOUND:                -1.158
REMARK  Name = 
REMARK  6 active torsions:
REMARK  status: ('A' for Active; 'I' for Inactive)
REMARK    1  A    between atoms: C_2  and  C_4
REMARK    2  A    between atoms: N_8  and  C_9
REMARK    3  A    between atoms: C_9  and  C_10
REMARK    4  A    between atoms: C_10  and  C_13
REMARK    5  A    between atoms: C_17  and  O_18
REMARK    6  A    between atoms: O_18  and  C_19
REMARK                            x       y       z     vdW  Elec       q    Type
REMARK                         _______ _______ _______ _____ _____    ______ ____
ROOT
ATOM      1  C   UNL     1      45.907   6.867  12.294  0.00  0.00    +0.000 C 
ATOM      2  F   UNL     1      45.080   7.336  13.272  0.00  0.00    +0.000 F 
ATOM      3  F   UNL     1      46.256   7.959  11.553  0.00  0.00    +0.000 F 
ENDROOT
BRANCH   1   4
ATOM      4  C   UNL     1      45.261   5.778  11.457  0.00  0.00    +0.000 A 
ATOM      5  C   UNL     1      44.135   5.091  11.928  0.00  0.00    +0.000 A 
ATOM      6  C   UNL     1      43.443   4.218  11.086  0.00  0.00    +0.000 A 
ATOM      7  C   UNL     1      43.875   4.011   9.771  0.00  0.00    +0.000 A 
ATOM      8  C   UNL     1      45.018   4.656   9.303  0.00  0.00    +0.000 A 
ATOM      9  C   UNL     1      45.703   5.538  10.145  0.00  0.00    +0.000 A 
BRANCH   8  10
ATOM     10  O   UNL     1      45.522   4.564   8.031  0.00  0.00    +0.000 OA
BRANCH  10  11
ATOM     11  C   UNL     1      45.654   3.268   7.409  0.00  0.00    +0.000 C 
ATOM     12  C   UNL     1      46.343   2.161   8.233  0.00  0.00    +0.000 C 
ATOM     13  C   UNL     1      47.155   1.780   6.983  0.00  0.00    +0.000 C 
ATOM     14  F   UNL     1      48.466   1.529   7.192  0.00  0.00    +0.000 F 
ATOM     15  F   UNL     1      46.667   0.734   6.277  0.00  0.00    +0.000 F 
ATOM     16  C   UNL     1      46.826   3.166   6.404  0.00  0.00    +0.000 C 
ENDBRANCH  10  11
ENDBRANCH   8  10
ENDBRANCH   1   4
BRANCH   1  17
ATOM     17  C   UNL     1      47.178   6.270  12.945  0.00  0.00    +0.000 C 
BRANCH  17  22
ATOM     18  C   UNL     1      48.359   4.414  17.568  0.00  0.00    +0.000 A 
ATOM     19  C   UNL     1      48.724   5.592  16.929  0.00  0.00    +0.000 A 
ATOM     20  C   UNL     1      48.266   5.826  15.634  0.00  0.00    +0.000 A 
ATOM     21  C   UNL     1      47.457   4.887  14.997  0.00  0.00    +0.000 A 
ATOM     22  N   UNL     1      46.965   5.062  13.731  0.00  0.00    +0.000 N 
ATOM     23  N   UNL     1      47.118   3.734  15.603  0.00  0.00    +0.000 NA
ATOM     24  C   UNL     1      47.580   3.512  16.862  0.00  0.00    +0.000 A 
ATOM     25  H   UNL     1      46.379   4.312  13.382  0.00  0.00    +0.000 HD
BRANCH  18  27
ATOM     26  N   UNL     1      48.229   2.972  19.514  0.00  0.00    +0.000 N 
ATOM     27  C   UNL     1      48.779   4.093  18.945  0.00  0.00    +0.000 C 
ATOM     28  O   UNL     1      49.610   4.765  19.538  0.00  0.00    +0.000 OA
ATOM     29  H   UNL     1      48.607   2.698  20.410  0.00  0.00    +0.000 HD
ATOM     30  H   UNL     1      47.755   2.267  18.969  0.00  0.00    +0.000 HD
ENDBRANCH  18  27
ENDBRANCH  17  22
ENDBRANCH   1  17
TORSDOF 6
ENDMDL
MODEL 8
REMARK VINA RESULT:    -7.805      4.112      7.429
REMARK INTER + INTRA:         -11.701
REMARK INTER:                 -10.324
REMARK INTRA:                  -1.376
REMARK UNBOUND:                -1.158
REMARK  Name = 
REMARK  6 active torsions:
REMARK  status: ('A' for Active; 'I' for Inactive)
REMARK    1  A    between atoms: C_2  and  C_4
REMARK    2  A    between atoms: N_8  and  C_9
REMARK    3  A    between atoms: C_9  and  C_10
REMARK    4  A    between atoms: C_10  and  C_13
REMARK    5  A    between atoms: C_17  and  O_18
REMARK    6  A    between atoms: O_18  and  C_19
REMARK                            x       y       z     vdW  Elec       q    Type
REMARK                         _______ _______ _______ _____ _____    ______ ____
ROOT
ATOM      1  C   UNL     1      46.549   4.304  13.866  0.00  0.00    +0.000 C 
ATOM      2  F   UNL     1      47.264   3.151  14.013  0.00  0.00    +0.000 F 
ATOM      3  F   UNL     1      46.293   4.741  15.134  0.00  0.00    +0.000 F 
ENDROOT
BRANCH   1   4
ATOM      4  C   UNL     1      45.283   4.105  13.053  0.00  0.00    +0.000 A 
ATOM      5  C   UNL     1      44.075   4.687  13.458  0.00  0.00    +0.000 A 
ATOM      6  C   UNL     1      42.961   4.646  12.619  0.00  0.00    +0.000 A 
ATOM      7  C   UNL     1      43.034   4.013  11.373  0.00  0.00    +0.000 A 
ATOM      8  C   UNL     1      44.218   3.393  10.976  0.00  0.00    +0.000 A 
ATOM      9  C   UNL     1      45.335   3.444  11.814  0.00  0.00    +0.000 A 
BRANCH   8  10
ATOM     10  O   UNL     1      44.427   2.771   9.771  0.00  0.00    +0.000 OA
BRANCH  10  11
ATOM     11  C   UNL     1      45.704   2.903   9.113  0.00  0.00    +0.000 C 
ATOM     12  C   UNL     1      45.781   3.878   7.920  0.00  0.00    +0.000 C 
ATOM     13  C   UNL     1      46.569   2.811   7.140  0.00  0.00    +0.000 C 
ATOM     14  F   UNL     1      46.209   2.646   5.848  0.00  0.00    +0.000 F 
ATOM     15  F   UNL     1      47.913   2.966   7.152  0.00  0.00    +0.000 F 
ATOM     16  C   UNL     1      46.026   1.760   8.121  0.00  0.00    +0.000 C 
ENDBRANCH  10  11
ENDBRANCH   8  10
ENDBRANCH   1   4
BRANCH   1  17
ATOM     17  C   UNL     1      47.419   5.355  13.135  0.00  0.00    +0.000 C 
BRANCH  17  22
ATOM     18  C   UNL     1      44.519   9.276  11.582  0.00  0.00    +0.000 A 
ATOM     19  C   UNL     1      44.708   8.007  11.052  0.00  0.00    +0.000 A 
ATOM     20  C   UNL     1      45.597   7.139  11.684  0.00  0.00    +0.000 A 
ATOM     21  C   UNL     1      46.283   7.547  12.827  0.00  0.00    +0.000 A 
ATOM     22  N   UNL     1      47.160   6.740  13.500  0.00  0.00    +0.000 N 
ATOM     23  N   UNL     1      46.119   8.784  13.332  0.00  0.00    +0.000 NA
ATOM     24  C   UNL     1      45.258   9.626  12.702  0.00  0.00    +0.000 A 
ATOM     25  H   UNL     1      47.587   7.149  14.323  0.00  0.00    +0.000 HD
BRANCH  18  27
ATOM     26  N   UNL     1      42.723  10.884  11.857  0.00  0.00    +0.000 N 
ATOM     27  C   UNL     1      43.582  10.252  10.994  0.00  0.00    +0.000 C 
ATOM     28  O   UNL     1      43.597  10.520   9.802  0.00  0.00    +0.000 OA
ATOM     29  H   UNL     1      42.166  11.630  11.463  0.00  0.00    +0.000 HD
ATOM     30  H   UNL     1      42.862  10.880  12.857  0.00  0.00    +0.000 HD
ENDBRANCH  18  27
ENDBRANCH  17  22
ENDBRANCH   1  17
TORSDOF 6
ENDMDL
MODEL 9
REMARK VINA RESULT:    -7.104      3.274      4.717
REMARK INTER + INTRA:         -10.754
REMARK INTER:                  -9.543
REMARK INTRA:                  -1.211
REMARK UNBOUND:                -1.158
REMARK  Name = 
REMARK  6 active torsions:
REMARK  status: ('A' for Active; 'I' for Inactive)
REMARK    1  A    between atoms: C_2  and  C_4
REMARK    2  A    between atoms: N_8  and  C_9
REMARK    3  A    between atoms: C_9  and  C_10
REMARK    4  A    between atoms: C_10  and  C_13
REMARK    5  A    between atoms: C_17  and  O_18
REMARK    6  A    between atoms: O_18  and  C_19
REMARK                            x       y       z     vdW  Elec       q    Type
REMARK                         _______ _______ _______ _____ _____    ______ ____
ROOT
ATOM      1  C   UNL     1      48.064   8.584  12.308  0.00  0.00    +0.000 C 
ATOM      2  F   UNL     1      48.469   7.499  11.586  0.00  0.00    +0.000 F 
ATOM      3  F   UNL     1      48.595   9.668  11.671  0.00  0.00    +0.000 F 
ENDROOT
BRANCH   1   4
ATOM      4  C   UNL     1      48.481   8.502  13.766  0.00  0.00    +0.000 A 
ATOM      5  C   UNL     1      48.288   9.591  14.625  0.00  0.00    +0.000 A 
ATOM      6  C   UNL     1      48.510   9.451  15.996  0.00  0.00    +0.000 A 
ATOM      7  C   UNL     1      48.941   8.228  16.522  0.00  0.00    +0.000 A 
ATOM      8  C   UNL     1      49.177   7.148  15.673  0.00  0.00    +0.000 A 
ATOM      9  C   UNL     1      48.944   7.288  14.302  0.00  0.00    +0.000 A 
BRANCH   8  10
ATOM     10  O   UNL     1      49.567   5.894  16.067  0.00  0.00    +0.000 OA
BRANCH  10  11
ATOM     11  C   UNL     1      48.642   5.055  16.791  0.00  0.00    +0.000 C 
ATOM     12  C   UNL     1      49.217   3.782  17.448  0.00  0.00    +0.000 C 
ATOM     13  C   UNL     1      48.011   2.996  16.903  0.00  0.00    +0.000 C 
ATOM     14  F   UNL     1      48.294   1.786  16.372  0.00  0.00    +0.000 F 
ATOM     15  F   UNL     1      47.003   2.807  17.785  0.00  0.00    +0.000 F 
ATOM     16  C   UNL     1      47.787   4.131  15.892  0.00  0.00    +0.000 C 
ENDBRANCH  10  11
ENDBRANCH   8  10
ENDBRANCH   1   4
BRANCH   1  17
ATOM     17  C   UNL     1      46.519   8.677  12.264  0.00  0.00    +0.000 C 
BRANCH  17  22
ATOM     18  C   UNL     1      44.408   4.095  11.395  0.00  0.00    +0.000 A 
ATOM     19  C   UNL     1      44.989   5.017  10.535  0.00  0.00    +0.000 A 
ATOM     20  C   UNL     1      45.466   6.218  11.057  0.00  0.00    +0.000 A 
ATOM     21  C   UNL     1      45.355   6.483  12.422  0.00  0.00    +0.000 A 
ATOM     22  N   UNL     1      45.812   7.637  12.998  0.00  0.00    +0.000 N 
ATOM     23  N   UNL     1      44.772   5.602  13.256  0.00  0.00    +0.000 NA
ATOM     24  C   UNL     1      44.302   4.438  12.734  0.00  0.00    +0.000 A 
ATOM     25  H   UNL     1      45.682   7.706  14.001  0.00  0.00    +0.000 HD
BRANCH  18  27
ATOM     26  N   UNL     1      44.546   2.212   9.873  0.00  0.00    +0.000 N 
ATOM     27  C   UNL     1      43.897   2.790  10.934  0.00  0.00    +0.000 C 
ATOM     28  O   UNL     1      42.969   2.228  11.496  0.00  0.00    +0.000 OA
ATOM     29  H   UNL     1      44.262   1.270   9.639  0.00  0.00    +0.000 HD
ATOM     30  H   UNL     1      45.457   2.517   9.565  0.00  0.00    +0.000 HD
ENDBRANCH  18  27
ENDBRANCH  17  22
ENDBRANCH   1  17
TORSDOF 6
ENDMDL
