MODEL 1
REMARK VINA RESULT:    -9.176      0.000      0.000
REMARK INTER + INTRA:         -12.549
REMARK INTER:                 -11.858
REMARK INTRA:                  -0.691
REMARK UNBOUND:                -0.691
REMARK  Name = 
REMARK  5 active torsions:
REMARK  status: ('A' for Active; 'I' for Inactive)
REMARK    1  A    between atoms: C_2  and  C_4
REMARK    2  A    between atoms: C_7  and  N_8
REMARK    3  A    between atoms: N_8  and  C_9
REMARK    4  A    between atoms: C_9  and  C_10
REMARK    5  A    between atoms: C_14  and  C_15
REMARK                            x       y       z     vdW  Elec       q    Type
REMARK                         _______ _______ _______ _____ _____    ______ ____
ROOT
ATOM      1  C   UNL     1      43.938   4.850  11.332  0.00  0.00    +0.000 C 
ATOM      2  C   UNL     1      43.199   3.817  12.165  0.00  0.00    +0.000 C 
ATOM      3  C   UNL     1      42.681   5.215  12.117  0.00  0.00    +0.000 C 
ENDROOT
BRANCH   1   4
ATOM      4  C   UNL     1      45.235   5.452  11.862  0.00  0.00    +0.000 A 
ATOM      5  C   UNL     1      45.819   6.572  11.248  0.00  0.00    +0.000 A 
ATOM      6  C   UNL     1      46.954   7.179  11.778  0.00  0.00    +0.000 A 
ATOM      7  C   UNL     1      47.530   6.675  12.945  0.00  0.00    +0.000 A 
ATOM      8  C   UNL     1      46.996   5.548  13.594  0.00  0.00    +0.000 A 
ATOM      9  C   UNL     1      45.867   4.941  13.014  0.00  0.00    +0.000 A 
BRANCH   8  10
ATOM     10  C   UNL     1      47.565   5.055  14.864  0.00  0.00    +0.000 A 
ATOM     11  C   UNL     1      47.188   3.819  15.409  0.00  0.00    +0.000 A 
ATOM     12  C   UNL     1      47.747   3.362  16.600  0.00  0.00    +0.000 A 
ATOM     13  C   UNL     1      48.692   4.157  17.227  0.00  0.00    +0.000 A 
ATOM     14  N   UNL     1      49.096   5.349  16.747  0.00  0.00    +0.000 NA
ATOM     15  C   UNL     1      48.527   5.766  15.587  0.00  0.00    +0.000 A 
ENDBRANCH   8  10
ENDBRANCH   1   4
BRANCH   1  16
ATOM     16  N   UNL     1      43.856   4.813   9.854  0.00  0.00    +0.000 N 
ATOM     17  H   UNL     1      42.920   4.701   9.480  0.00  0.00    +0.000 HD
BRANCH  16  21
ATOM     18  C   UNL     1      46.425   2.346   7.771  0.00  0.00    +0.000 A 
ATOM     19  C   UNL     1      46.433   3.712   7.552  0.00  0.00    +0.000 A 
ATOM     20  N   UNL     1      45.603   4.563   8.211  0.00  0.00    +0.000 NA
ATOM     21  C   UNL     1      44.769   4.014   9.124  0.00  0.00    +0.000 A 
ATOM     22  C   UNL     1      44.774   2.626   9.325  0.00  0.00    +0.000 A 
ATOM     23  N   UNL     1      45.590   1.757   8.671  0.00  0.00    +0.000 NA
BRANCH  18  25
ATOM     24  N   UNL     1      48.486   2.062   6.533  0.00  0.00    +0.000 N 
ATOM     25  C   UNL     1      47.348   1.465   7.001  0.00  0.00    +0.000 C 
ATOM     26  O   UNL     1      47.113   0.279   6.808  0.00  0.00    +0.000 OA
ATOM     27  H   UNL     1      49.167   1.512   6.029  0.00  0.00    +0.000 HD
ATOM     28  H   UNL     1      48.668   3.042   6.735  0.00  0.00    +0.000 HD
ENDBRANCH  18  25
ENDBRANCH  16  21
ENDBRANCH   1  16
TORSDOF 5
ENDMDL
MODEL 2
REMARK VINA RESULT:    -9.007      1.902      3.331
REMARK INTER + INTRA:         -12.331
REMARK INTER:                 -11.657
REMARK INTRA:                  -0.674
REMARK UNBOUND:                -0.691
REMARK  Name = 
REMARK  5 active torsions:
REMARK  status: ('A' for Active; 'I' for Inactive)
REMARK    1  A    between atoms: C_2  and  C_4
REMARK    2  A    between atoms: C_7  and  N_8
REMARK    3  A    between atoms: N_8  and  C_9
REMARK    4  A    between atoms: C_9  and  C_10
REMARK    5  A    between atoms: C_14  and  C_15
REMARK                            x       y       z     vdW  Elec       q    Type
REMARK                         _______ _______ _______ _____ _____    ______ ____
ROOT
ATOM      1  C   UNL     1      43.958   4.844  11.273  0.00  0.00    +0.000 C 
ATOM      2  C   UNL     1      42.993   3.781  11.771  0.00  0.00    +0.000 C 
ATOM      3  C   UNL     1      42.624   5.218  11.914  0.00  0.00    +0.000 C 
ENDROOT
BRANCH   1   4
ATOM      4  C   UNL     1      45.195   5.180  12.100  0.00  0.00    +0.000 A 
ATOM      5  C   UNL     1      45.653   4.312  13.103  0.00  0.00    +0.000 A 
ATOM      6  C   UNL     1      46.830   4.569  13.801  0.00  0.00    +0.000 A 
ATOM      7  C   UNL     1      47.578   5.709  13.503  0.00  0.00    +0.000 A 
ATOM      8  C   UNL     1      47.159   6.620  12.519  0.00  0.00    +0.000 A 
ATOM      9  C   UNL     1      45.950   6.344  11.855  0.00  0.00    +0.000 A 
BRANCH   8  10
ATOM     10  C   UNL     1      47.984   7.790  12.157  0.00  0.00    +0.000 A 
ATOM     11  C   UNL     1      49.319   7.654  11.751  0.00  0.00    +0.000 A 
ATOM     12  C   UNL     1      50.077   8.767  11.397  0.00  0.00    +0.000 A 
ATOM     13  C   UNL     1      49.474  10.012  11.449  0.00  0.00    +0.000 A 
ATOM     14  N   UNL     1      48.194  10.203  11.826  0.00  0.00    +0.000 NA
ATOM     15  C   UNL     1      47.486   9.097  12.168  0.00  0.00    +0.000 A 
ENDBRANCH   8  10
ENDBRANCH   1   4
BRANCH   1  16
ATOM     16  N   UNL     1      44.128   5.074   9.820  0.00  0.00    +0.000 N 
ATOM     17  H   UNL     1      43.266   5.224   9.307  0.00  0.00    +0.000 HD
BRANCH  16  21
ATOM     18  C   UNL     1      46.557   2.499   7.701  0.00  0.00    +0.000 A 
ATOM     19  C   UNL     1      46.626   3.864   7.487  0.00  0.00    +0.000 A 
ATOM     20  N   UNL     1      45.844   4.750   8.159  0.00  0.00    +0.000 NA
ATOM     21  C   UNL     1      44.994   4.237   9.078  0.00  0.00    +0.000 A 
ATOM     22  C   UNL     1      44.936   2.849   9.272  0.00  0.00    +0.000 A 
ATOM     23  N   UNL     1      45.704   1.945   8.607  0.00  0.00    +0.000 NA
BRANCH  18  25
ATOM     24  N   UNL     1      48.577   2.132   6.417  0.00  0.00    +0.000 N 
ATOM     25  C   UNL     1      47.430   1.580   6.917  0.00  0.00    +0.000 C 
ATOM     26  O   UNL     1      47.148   0.401   6.740  0.00  0.00    +0.000 OA
ATOM     27  H   UNL     1      49.226   1.554   5.903  0.00  0.00    +0.000 HD
ATOM     28  H   UNL     1      48.798   3.106   6.607  0.00  0.00    +0.000 HD
ENDBRANCH  18  25
ENDBRANCH  16  21
ENDBRANCH   1  16
TORSDOF 5
ENDMDL
MODEL 3
REMARK VINA RESULT:    -8.429      1.552      2.272
REMARK INTER + INTRA:         -11.584
REMARK INTER:                 -10.968
REMARK INTRA:                  -0.616
REMARK UNBOUND:                -0.691
REMARK  Name = 
REMARK  5 active torsions:
REMARK  status: ('A' for Active; 'I' for Inactive)
REMARK    1  A    between atoms: C_2  and  C_4
REMARK    2  A    between atoms: C_7  and  N_8
REMARK    3  A    between atoms: N_8  and  C_9
REMARK    4  A    between atoms: C_9  and  C_10
REMARK    5  A    between atoms: C_14  and  C_15
REMARK                            x       y       z     vdW  Elec       q    Type
REMARK                         _______ _______ _______ _____ _____    ______ ____
ROOT
ATOM      1  C   UNL     1      44.159   5.029  11.426  0.00  0.00    +0.000 C 
ATOM      2  C   UNL     1      44.326   3.869  12.393  0.00  0.00    +0.000 C 
ATOM      3  C   UNL     1      43.086   4.695  12.459  0.00  0.00    +0.000 C 
ENDROOT
BRANCH   1   4
ATOM      4  C   UNL     1      44.921   6.327  11.675  0.00  0.00    +0.000 A 
ATOM      5  C   UNL     1      44.365   7.570  11.331  0.00  0.00    +0.000 A 
ATOM      6  C   UNL     1      45.016   8.763  11.634  0.00  0.00    +0.000 A 
ATOM      7  C   UNL     1      46.244   8.734  12.296  0.00  0.00    +0.000 A 
ATOM      8  C   UNL     1      46.853   7.519  12.651  0.00  0.00    +0.000 A 
ATOM      9  C   UNL     1      46.182   6.332  12.302  0.00  0.00    +0.000 A 
BRANCH   8  10
ATOM     10  C   UNL     1      48.119   7.490  13.410  0.00  0.00    +0.000 A 
ATOM     11  C   UNL     1      49.185   8.347  13.100  0.00  0.00    +0.000 A 
ATOM     12  C   UNL     1      50.366   8.317  13.837  0.00  0.00    +0.000 A 
ATOM     13  C   UNL     1      50.456   7.424  14.891  0.00  0.00    +0.000 A 
ATOM     14  N   UNL     1      49.463   6.582  15.239  0.00  0.00    +0.000 NA
ATOM     15  C   UNL     1      48.329   6.635  14.496  0.00  0.00    +0.000 A 
ENDBRANCH   8  10
ENDBRANCH   1   4
BRANCH   1  16
ATOM     16  N   UNL     1      43.864   4.773   9.998  0.00  0.00    +0.000 N 
ATOM     17  H   UNL     1      42.927   4.431   9.810  0.00  0.00    +0.000 HD
BRANCH  16  21
ATOM     18  C   UNL     1      46.519   2.585   7.721  0.00  0.00    +0.000 A 
ATOM     19  C   UNL     1      46.471   3.963   7.611  0.00  0.00    +0.000 A 
ATOM     20  N   UNL     1      45.611   4.724   8.338  0.00  0.00    +0.000 NA
ATOM     21  C   UNL     1      44.804   4.072   9.205  0.00  0.00    +0.000 A 
ATOM     22  C   UNL     1      44.866   2.673   9.295  0.00  0.00    +0.000 A 
ATOM     23  N   UNL     1      45.712   1.893   8.573  0.00  0.00    +0.000 NA
BRANCH  18  25
ATOM     24  N   UNL     1      48.577   2.488   6.449  0.00  0.00    +0.000 N 
ATOM     25  C   UNL     1      47.473   1.806   6.881  0.00  0.00    +0.000 C 
ATOM     26  O   UNL     1      47.290   0.627   6.604  0.00  0.00    +0.000 OA
ATOM     27  H   UNL     1      49.276   2.008   5.901  0.00  0.00    +0.000 HD
ATOM     28  H   UNL     1      48.715   3.457   6.720  0.00  0.00    +0.000 HD
ENDBRANCH  18  25
ENDBRANCH  16  21
ENDBRANCH   1  16
TORSDOF 5
ENDMDL
MODEL 4
REMARK VINA RESULT:    -7.312      2.762      7.241
REMARK INTER + INTRA:         -10.140
REMARK INTER:                 -10.495
REMARK INTRA:                   0.355
REMARK UNBOUND:                -0.691
REMARK  Name = 
REMARK  5 active torsions:
REMARK  status: ('A' for Active; 'I' for Inactive)
REMARK    1  A    between atoms: C_2  and  C_4
REMARK    2  A    between atoms: C_7  and  N_8
REMARK    3  A    between atoms: N_8  and  C_9
REMARK    4  A    between atoms: C_9  and  C_10
REMARK    5  A    between atoms: C_14  and  C_15
REMARK                            x       y       z     vdW  Elec       q    Type
REMARK                         _______ _______ _______ _____ _____    ______ ____
ROOT
ATOM      1  C   UNL     1      46.261   7.302  12.142  0.00  0.00    +0.000 C 
ATOM      2  C   UNL     1      46.164   8.766  11.747  0.00  0.00    +0.000 C 
ATOM      3  C   UNL     1      45.537   8.318  13.023  0.00  0.00    +0.000 C 
ENDROOT
BRANCH   1   4
ATOM      4  C   UNL     1      45.363   6.279  11.454  0.00  0.00    +0.000 A 
ATOM      5  C   UNL     1      43.974   6.277  11.664  0.00  0.00    +0.000 A 
ATOM      6  C   UNL     1      43.139   5.404  10.973  0.00  0.00    +0.000 A 
ATOM      7  C   UNL     1      43.682   4.510  10.049  0.00  0.00    +0.000 A 
ATOM      8  C   UNL     1      45.065   4.459   9.809  0.00  0.00    +0.000 A 
ATOM      9  C   UNL     1      45.883   5.335  10.547  0.00  0.00    +0.000 A 
BRANCH   8  10
ATOM     10  C   UNL     1      45.632   3.561   8.784  0.00  0.00    +0.000 A 
ATOM     11  C   UNL     1      46.239   4.059   7.622  0.00  0.00    +0.000 A 
ATOM     12  C   UNL     1      46.784   3.198   6.673  0.00  0.00    +0.000 A 
ATOM     13  C   UNL     1      46.719   1.836   6.912  0.00  0.00    +0.000 A 
ATOM     14  N   UNL     1      46.154   1.301   8.012  0.00  0.00    +0.000 NA
ATOM     15  C   UNL     1      45.629   2.169   8.913  0.00  0.00    +0.000 A 
ENDBRANCH   8  10
ENDBRANCH   1   4
BRANCH   1  16
ATOM     16  N   UNL     1      47.544   6.744  12.624  0.00  0.00    +0.000 N 
ATOM     17  H   UNL     1      48.132   6.338  11.904  0.00  0.00    +0.000 HD
BRANCH  16  21
ATOM     18  C   UNL     1      47.523   4.234  15.899  0.00  0.00    +0.000 A 
ATOM     19  C   UNL     1      48.267   5.401  15.914  0.00  0.00    +0.000 A 
ATOM     20  N   UNL     1      48.307   6.255  14.859  0.00  0.00    +0.000 NA
ATOM     21  C   UNL     1      47.560   5.927  13.780  0.00  0.00    +0.000 A 
ATOM     22  C   UNL     1      46.819   4.735  13.785  0.00  0.00    +0.000 A 
ATOM     23  N   UNL     1      46.771   3.863  14.826  0.00  0.00    +0.000 NA
BRANCH  18  25
ATOM     24  N   UNL     1      48.770   3.060  17.611  0.00  0.00    +0.000 N 
ATOM     25  C   UNL     1      47.537   3.330  17.084  0.00  0.00    +0.000 C 
ATOM     26  O   UNL     1      46.511   2.866  17.566  0.00  0.00    +0.000 OA
ATOM     27  H   UNL     1      48.844   2.478  18.433  0.00  0.00    +0.000 HD
ATOM     28  H   UNL     1      49.600   3.485  17.208  0.00  0.00    +0.000 HD
ENDBRANCH  18  25
ENDBRANCH  16  21
ENDBRANCH   1  16
TORSDOF 5
ENDMDL
MODEL 5
REMARK VINA RESULT:    -7.040      2.946      7.533
REMARK INTER + INTRA:          -9.789
REMARK INTER:                  -9.642
REMARK INTRA:                  -0.147
REMARK UNBOUND:                -0.691
REMARK  Name = 
REMARK  5 active torsions:
REMARK  status: ('A' for Active; 'I' for Inactive)
REMARK    1  A    between atoms: C_2  and  C_4
REMARK    2  A    between atoms: C_7  and  N_8
REMARK    3  A    between atoms: N_8  and  C_9
REMARK    4  A    between atoms: C_9  and  C_10
REMARK    5  A    between atoms: C_14  and  C_15
REMARK                            x       y       z     vdW  Elec       q    Type
REMARK                         _______ _______ _______ _____ _____    ______ ____
ROOT
ATOM      1  C   UNL     1      48.657   7.808  12.762  0.00  0.00    +0.000 C 
ATOM      2  C   UNL     1      49.780   7.313  11.866  0.00  0.00    +0.000 C 
ATOM      3  C   UNL     1      49.458   8.769  11.887  0.00  0.00    +0.000 C 
ENDROOT
BRANCH   1   4
ATOM      4  C   UNL     1      47.208   7.594  12.336  0.00  0.00    +0.000 A 
ATOM      5  C   UNL     1      46.231   8.575  12.572  0.00  0.00    +0.000 A 
ATOM      6  C   UNL     1      44.927   8.423  12.109  0.00  0.00    +0.000 A 
ATOM      7  C   UNL     1      44.574   7.279  11.392  0.00  0.00    +0.000 A 
ATOM      8  C   UNL     1      45.507   6.259  11.140  0.00  0.00    +0.000 A 
ATOM      9  C   UNL     1      46.807   6.431  11.649  0.00  0.00    +0.000 A 
BRANCH   8  10
ATOM     10  C   UNL     1      45.151   5.081  10.325  0.00  0.00    +0.000 A 
ATOM     11  C   UNL     1      45.643   4.909   9.022  0.00  0.00    +0.000 A 
ATOM     12  C   UNL     1      45.310   3.782   8.274  0.00  0.00    +0.000 A 
ATOM     13  C   UNL     1      44.489   2.831   8.855  0.00  0.00    +0.000 A 
ATOM     14  N   UNL     1      43.992   2.940  10.103  0.00  0.00    +0.000 NA
ATOM     15  C   UNL     1      44.332   4.052  10.801  0.00  0.00    +0.000 A 
ENDBRANCH   8  10
ENDBRANCH   1   4
BRANCH   1  16
ATOM     16  N   UNL     1      48.847   7.870  14.229  0.00  0.00    +0.000 N 
ATOM     17  H   UNL     1      49.740   8.245  14.530  0.00  0.00    +0.000 HD
BRANCH  16  21
ATOM     18  C   UNL     1      47.855   4.712  16.692  0.00  0.00    +0.000 A 
ATOM     19  C   UNL     1      47.526   4.684  15.349  0.00  0.00    +0.000 A 
ATOM     20  N   UNL     1      47.829   5.702  14.501  0.00  0.00    +0.000 NA
ATOM     21  C   UNL     1      48.497   6.754  15.026  0.00  0.00    +0.000 A 
ATOM     22  C   UNL     1      48.815   6.764  16.392  0.00  0.00    +0.000 A 
ATOM     23  N   UNL     1      48.515   5.760  17.259  0.00  0.00    +0.000 NA
BRANCH  18  25
ATOM     24  N   UNL     1      48.310   3.337  18.632  0.00  0.00    +0.000 N 
ATOM     25  C   UNL     1      47.477   3.571  17.573  0.00  0.00    +0.000 C 
ATOM     26  O   UNL     1      46.478   2.892  17.373  0.00  0.00    +0.000 OA
ATOM     27  H   UNL     1      48.092   2.596  19.283  0.00  0.00    +0.000 HD
ATOM     28  H   UNL     1      49.115   3.936  18.789  0.00  0.00    +0.000 HD
ENDBRANCH  18  25
ENDBRANCH  16  21
ENDBRANCH   1  16
TORSDOF 5
ENDMDL
MODEL 6
REMARK VINA RESULT:    -6.850      3.156      7.196
REMARK INTER + INTRA:          -9.543
REMARK INTER:                  -8.789
REMARK INTRA:                  -0.755
REMARK UNBOUND:                -0.691
REMARK  Name = 
REMARK  5 active torsions:
REMARK  status: ('A' for Active; 'I' for Inactive)
REMARK    1  A    between atoms: C_2  and  C_4
REMARK    2  A    between atoms: C_7  and  N_8
REMARK    3  A    between atoms: N_8  and  C_9
REMARK    4  A    between atoms: C_9  and  C_10
REMARK    5  A    between atoms: C_14  and  C_15
REMARK                            x       y       z     vdW  Elec       q    Type
REMARK                         _______ _______ _______ _____ _____    ______ ____
ROOT
ATOM      1  C   UNL     1      44.383   6.249  11.759  0.00  0.00    +0.000 C 
ATOM      2  C   UNL     1      44.472   7.375  10.743  0.00  0.00    +0.000 C 
ATOM      3  C   UNL     1      43.160   7.085  11.389  0.00  0.00    +0.000 C 
ENDROOT
BRANCH   1   4
ATOM      4  C   UNL     1      44.354   4.803  11.274  0.00  0.00    +0.000 A 
ATOM      5  C   UNL     1      43.520   3.851  11.884  0.00  0.00    +0.000 A 
ATOM      6  C   UNL     1      43.424   2.552  11.391  0.00  0.00    +0.000 A 
ATOM      7  C   UNL     1      44.164   2.179  10.269  0.00  0.00    +0.000 A 
ATOM      8  C   UNL     1      45.025   3.085   9.628  0.00  0.00    +0.000 A 
ATOM      9  C   UNL     1      45.121   4.380  10.170  0.00  0.00    +0.000 A 
BRANCH   8  10
ATOM     10  C   UNL     1      45.756   2.711   8.402  0.00  0.00    +0.000 A 
ATOM     11  C   UNL     1      46.006   3.638   7.380  0.00  0.00    +0.000 A 
ATOM     12  C   UNL     1      46.713   3.271   6.237  0.00  0.00    +0.000 A 
ATOM     13  C   UNL     1      47.170   1.968   6.141  0.00  0.00    +0.000 A 
ATOM     14  N   UNL     1      46.966   1.037   7.094  0.00  0.00    +0.000 NA
ATOM     15  C   UNL     1      46.270   1.427   8.191  0.00  0.00    +0.000 A 
ENDBRANCH   8  10
ENDBRANCH   1   4
BRANCH   1  16
ATOM     16  N   UNL     1      44.966   6.416  13.109  0.00  0.00    +0.000 N 
ATOM     17  H   UNL     1      44.382   6.920  13.768  0.00  0.00    +0.000 HD
BRANCH  16  21
ATOM     18  C   UNL     1      48.942   7.476  13.413  0.00  0.00    +0.000 A 
ATOM     19  C   UNL     1      47.947   8.408  13.649  0.00  0.00    +0.000 A 
ATOM     20  N   UNL     1      46.626   8.106  13.558  0.00  0.00    +0.000 NA
ATOM     21  C   UNL     1      46.313   6.828  13.242  0.00  0.00    +0.000 A 
ATOM     22  C   UNL     1      47.338   5.901  13.000  0.00  0.00    +0.000 A 
ATOM     23  N   UNL     1      48.666   6.185  13.079  0.00  0.00    +0.000 NA
BRANCH  18  25
ATOM     24  N   UNL     1      51.014   7.514  14.664  0.00  0.00    +0.000 N 
ATOM     25  C   UNL     1      50.374   7.877  13.511  0.00  0.00    +0.000 C 
ATOM     26  O   UNL     1      50.948   8.481  12.614  0.00  0.00    +0.000 OA
ATOM     27  H   UNL     1      51.994   7.730  14.779  0.00  0.00    +0.000 HD
ATOM     28  H   UNL     1      50.519   6.987  15.378  0.00  0.00    +0.000 HD
ENDBRANCH  18  25
ENDBRANCH  16  21
ENDBRANCH   1  16
TORSDOF 5
ENDMDL
MODEL 7
REMARK VINA RESULT:    -6.684      4.093      6.469
REMARK INTER + INTRA:          -9.328
REMARK INTER:                  -8.541
REMARK INTRA:                  -0.787
REMARK UNBOUND:                -0.691
REMARK  Name = 
REMARK  5 active torsions:
REMARK  status: ('A' for Active; 'I' for Inactive)
REMARK    1  A    between atoms: C_2  and  C_4
REMARK    2  A    between atoms: C_7  and  N_8
REMARK    3  A    between atoms: N_8  and  C_9
REMARK    4  A    between atoms: C_9  and  C_10
REMARK    5  A    between atoms: C_14  and  C_15
REMARK                            x       y       z     vdW  Elec       q    Type
REMARK                         _______ _______ _______ _____ _____    ______ ____
ROOT
ATOM      1  C   UNL     1      48.935   7.503  15.448  0.00  0.00    +0.000 C 
ATOM      2  C   UNL     1      48.337   8.892  15.598  0.00  0.00    +0.000 C 
ATOM      3  C   UNL     1      49.812   8.752  15.431  0.00  0.00    +0.000 C 
ENDROOT
BRANCH   1   4
ATOM      4  C   UNL     1      49.088   6.616  16.680  0.00  0.00    +0.000 A 
ATOM      5  C   UNL     1      48.317   6.838  17.832  0.00  0.00    +0.000 A 
ATOM      6  C   UNL     1      48.389   5.981  18.927  0.00  0.00    +0.000 A 
ATOM      7  C   UNL     1      49.238   4.874  18.887  0.00  0.00    +0.000 A 
ATOM      8  C   UNL     1      50.042   4.612  17.766  0.00  0.00    +0.000 A 
ATOM      9  C   UNL     1      49.968   5.516  16.690  0.00  0.00    +0.000 A 
BRANCH   8  10
ATOM     10  C   UNL     1      50.890   3.406  17.697  0.00  0.00    +0.000 A 
ATOM     11  C   UNL     1      52.239   3.429  18.083  0.00  0.00    +0.000 A 
ATOM     12  C   UNL     1      53.020   2.277  18.027  0.00  0.00    +0.000 A 
ATOM     13  C   UNL     1      52.427   1.106  17.588  0.00  0.00    +0.000 A 
ATOM     14  N   UNL     1      51.136   1.023  17.211  0.00  0.00    +0.000 NA
ATOM     15  C   UNL     1      50.406   2.164  17.274  0.00  0.00    +0.000 A 
ENDBRANCH   8  10
ENDBRANCH   1   4
BRANCH   1  16
ATOM     16  N   UNL     1      48.762   6.749  14.186  0.00  0.00    +0.000 N 
ATOM     17  H   UNL     1      49.168   7.188  13.366  0.00  0.00    +0.000 HD
BRANCH  16  21
ATOM     18  C   UNL     1      45.097   5.038  13.371  0.00  0.00    +0.000 A 
ATOM     19  C   UNL     1      45.379   6.325  12.949  0.00  0.00    +0.000 A 
ATOM     20  N   UNL     1      46.570   6.931  13.197  0.00  0.00    +0.000 NA
ATOM     21  C   UNL     1      47.495   6.205  13.866  0.00  0.00    +0.000 A 
ATOM     22  C   UNL     1      47.184   4.904  14.290  0.00  0.00    +0.000 A 
ATOM     23  N   UNL     1      45.997   4.283  14.059  0.00  0.00    +0.000 NA
BRANCH  18  25
ATOM     24  N   UNL     1      42.714   5.315  13.038  0.00  0.00    +0.000 N 
ATOM     25  C   UNL     1      43.763   4.438  13.082  0.00  0.00    +0.000 C 
ATOM     26  O   UNL     1      43.613   3.239  12.884  0.00  0.00    +0.000 OA
ATOM     27  H   UNL     1      41.790   4.975  12.817  0.00  0.00    +0.000 HD
ATOM     28  H   UNL     1      42.875   6.309  13.177  0.00  0.00    +0.000 HD
ENDBRANCH  18  25
ENDBRANCH  16  21
ENDBRANCH   1  16
TORSDOF 5
ENDMDL
MODEL 8
REMARK VINA RESULT:    -6.216      2.919      4.664
REMARK INTER + INTRA:          -8.724
REMARK INTER:                  -8.574
REMARK INTRA:                  -0.150
REMARK UNBOUND:                -0.691
REMARK  Name = 
REMARK  5 active torsions:
REMARK  status: ('A' for Active; 'I' for Inactive)
REMARK    1  A    between atoms: C_2  and  C_4
REMARK    2  A    between atoms: C_7  and  N_8
REMARK    3  A    between atoms: N_8  and  C_9
REMARK    4  A    between atoms: C_9  and  C_10
REMARK    5  A    between atoms: C_14  and  C_15
REMARK                            x       y       z     vdW  Elec       q    Type
REMARK                         _______ _______ _______ _____ _____    ______ ____
ROOT
ATOM      1  C   UNL     1      48.037   8.165  12.501  0.00  0.00    +0.000 C 
ATOM      2  C   UNL     1      48.919   9.010  11.598  0.00  0.00    +0.000 C 
ATOM      3  C   UNL     1      48.962   7.525  11.468  0.00  0.00    +0.000 C 
ENDROOT
BRANCH   1   4
ATOM      4  C   UNL     1      48.440   7.952  13.957  0.00  0.00    +0.000 A 
ATOM      5  C   UNL     1      48.891   9.022  14.747  0.00  0.00    +0.000 A 
ATOM      6  C   UNL     1      49.177   8.852  16.099  0.00  0.00    +0.000 A 
ATOM      7  C   UNL     1      49.013   7.600  16.691  0.00  0.00    +0.000 A 
ATOM      8  C   UNL     1      48.578   6.491  15.945  0.00  0.00    +0.000 A 
ATOM      9  C   UNL     1      48.327   6.691  14.575  0.00  0.00    +0.000 A 
BRANCH   8  10
ATOM     10  C   UNL     1      48.340   5.183  16.586  0.00  0.00    +0.000 A 
ATOM     11  C   UNL     1      49.302   4.578  17.408  0.00  0.00    +0.000 A 
ATOM     12  C   UNL     1      49.054   3.351  18.017  0.00  0.00    +0.000 A 
ATOM     13  C   UNL     1      47.828   2.747  17.797  0.00  0.00    +0.000 A 
ATOM     14  N   UNL     1      46.864   3.284  17.023  0.00  0.00    +0.000 NA
ATOM     15  C   UNL     1      47.141   4.478  16.442  0.00  0.00    +0.000 A 
ENDBRANCH   8  10
ENDBRANCH   1   4
BRANCH   1  16
ATOM     16  N   UNL     1      46.576   8.102  12.269  0.00  0.00    +0.000 N 
ATOM     17  H   UNL     1      46.015   8.631  12.929  0.00  0.00    +0.000 HD
BRANCH  16  21
ATOM     18  C   UNL     1      44.718   4.471  11.650  0.00  0.00    +0.000 A 
ATOM     19  C   UNL     1      45.267   5.168  10.589  0.00  0.00    +0.000 A 
ATOM     20  N   UNL     1      45.885   6.368  10.744  0.00  0.00    +0.000 NA
ATOM     21  C   UNL     1      45.964   6.854  12.004  0.00  0.00    +0.000 A 
ATOM     22  C   UNL     1      45.395   6.133  13.064  0.00  0.00    +0.000 A 
ATOM     23  N   UNL     1      44.766   4.935  12.930  0.00  0.00    +0.000 NA
BRANCH  18  25
ATOM     24  N   UNL     1      43.740   2.436  12.527  0.00  0.00    +0.000 N 
ATOM     25  C   UNL     1      44.037   3.167  11.410  0.00  0.00    +0.000 C 
ATOM     26  O   UNL     1      43.747   2.777  10.285  0.00  0.00    +0.000 OA
ATOM     27  H   UNL     1      43.251   1.558  12.433  0.00  0.00    +0.000 HD
ATOM     28  H   UNL     1      43.966   2.801  13.448  0.00  0.00    +0.000 HD
ENDBRANCH  18  25
ENDBRANCH  16  21
ENDBRANCH   1  16
TORSDOF 5
ENDMDL
