MODEL 1
REMARK VINA RESULT:    -8.981      0.000      0.000
REMARK INTER + INTRA:         -13.524
REMARK INTER:                 -12.394
REMARK INTRA:                  -1.130
REMARK UNBOUND:                -1.130
REMARK  Name = 
REMARK  8 active torsions:
REMARK  status: ('A' for Active; 'I' for Inactive)
REMARK    1  A    between atoms: C_1  and  C_2
REMARK    2  A    between atoms: C_2  and  O_3
REMARK    3  A    between atoms: C_5  and  N_6
REMARK    4  A    between atoms: C_9  and  C_10
REMARK    5  A    between atoms: C_10  and  C_13
REMARK    6  A    between atoms: C_13  and  N_14
REMARK    7  A    between atoms: N_14  and  C_15
REMARK    8  A    between atoms: C_18  and  C_19
REMARK                            x       y       z     vdW  Elec       q    Type
REMARK                         _______ _______ _______ _____ _____    ______ ____
ROOT
ATOM      1  C   UNL     1      44.729   5.967  11.767  0.00  0.00    +0.000 C 
ATOM      2  F   UNL     1      44.162   6.976  12.498  0.00  0.00    +0.000 F 
ATOM      3  F   UNL     1      45.435   6.603  10.779  0.00  0.00    +0.000 F 
ENDROOT
BRANCH   1   7
ATOM      4  N   UNL     1      47.870   5.583  15.574  0.00  0.00    +0.000 N 
ATOM      5  C   UNL     1      47.161   4.956  14.528  0.00  0.00    +0.000 A 
ATOM      6  C   UNL     1      46.409   5.735  13.648  0.00  0.00    +0.000 A 
ATOM      7  C   UNL     1      45.648   5.118  12.639  0.00  0.00    +0.000 A 
ATOM      8  C   UNL     1      45.747   3.727  12.522  0.00  0.00    +0.000 A 
ATOM      9  C   UNL     1      46.541   3.034  13.417  0.00  0.00    +0.000 A 
ATOM     10  N   UNL     1      47.221   3.617  14.419  0.00  0.00    +0.000 NA
ATOM     11  H   UNL     1      48.663   6.077  15.161  0.00  0.00    +0.000 HD
BRANCH   4  15
ATOM     12  C   UNL     1      48.094   5.921  20.028  0.00  0.00    +0.000 C 
ATOM     13  C   UNL     1      47.943   6.040  18.518  0.00  0.00    +0.000 C 
ATOM     14  C   UNL     1      47.168   4.876  17.845  0.00  0.00    +0.000 C 
ATOM     15  C   UNL     1      48.255   4.837  16.750  0.00  0.00    +0.000 C 
ATOM     16  C   UNL     1      49.191   5.593  17.713  0.00  0.00    +0.000 C 
BRANCH  13  17
ATOM     17  O   UNL     1      47.458   7.362  18.182  0.00  0.00    +0.000 OA
ATOM     18  H   UNL     1      46.869   7.230  17.420  0.00  0.00    +0.000 HD
ENDBRANCH  13  17
ENDBRANCH   4  15
ENDBRANCH   1   7
BRANCH   1  19
ATOM     19  C   UNL     1      43.586   5.161  11.083  0.00  0.00    +0.000 C 
BRANCH  19  20
ATOM     20  N   UNL     1      43.718   4.975   9.626  0.00  0.00    +0.000 N 
ATOM     21  H   UNL     1      43.705   5.839   9.087  0.00  0.00    +0.000 HD
BRANCH  20  22
ATOM     22  C   UNL     1      44.585   3.994   9.135  0.00  0.00    +0.000 A 
ATOM     23  C   UNL     1      44.423   2.623   9.389  0.00  0.00    +0.000 A 
ATOM     24  C   UNL     1      45.259   1.665   8.804  0.00  0.00    +0.000 A 
ATOM     25  C   UNL     1      46.258   2.054   7.910  0.00  0.00    +0.000 A 
ATOM     26  C   UNL     1      46.428   3.414   7.629  0.00  0.00    +0.000 A 
ATOM     27  C   UNL     1      45.590   4.366   8.231  0.00  0.00    +0.000 A 
BRANCH  25  28
ATOM     28  C   UNL     1      47.102   0.993   7.295  0.00  0.00    +0.000 C 
ATOM     29  N   UNL     1      46.855  -0.300   7.655  0.00  0.00    +0.000 N 
ATOM     30  O   UNL     1      48.010   1.267   6.522  0.00  0.00    +0.000 OA
ATOM     31  H   UNL     1      46.298  -0.540   8.462  0.00  0.00    +0.000 HD
ATOM     32  H   UNL     1      47.515  -0.989   7.315  0.00  0.00    +0.000 HD
ENDBRANCH  25  28
ENDBRANCH  20  22
ENDBRANCH  19  20
ENDBRANCH   1  19
TORSDOF 7
ENDMDL
MODEL 2
REMARK VINA RESULT:    -8.890      1.679      2.016
REMARK INTER + INTRA:         -13.398
REMARK INTER:                 -12.441
REMARK INTRA:                  -0.957
REMARK UNBOUND:                -1.130
REMARK  Name = 
REMARK  8 active torsions:
REMARK  status: ('A' for Active; 'I' for Inactive)
REMARK    1  A    between atoms: C_1  and  C_2
REMARK    2  A    between atoms: C_2  and  O_3
REMARK    3  A    between atoms: C_5  and  N_6
REMARK    4  A    between atoms: C_9  and  C_10
REMARK    5  A    between atoms: C_10  and  C_13
REMARK    6  A    between atoms: C_13  and  N_14
REMARK    7  A    between atoms: N_14  and  C_15
REMARK    8  A    between atoms: C_18  and  C_19
REMARK                            x       y       z     vdW  Elec       q    Type
REMARK                         _______ _______ _______ _____ _____    ______ ____
ROOT
ATOM      1  C   UNL     1      43.295   5.681  11.502  0.00  0.00    +0.000 C 
ATOM      2  F   UNL     1      42.376   5.170  12.378  0.00  0.00    +0.000 F 
ATOM      3  F   UNL     1      42.816   6.922  11.172  0.00  0.00    +0.000 F 
ENDROOT
BRANCH   1   7
ATOM      4  N   UNL     1      46.343   4.591  15.247  0.00  0.00    +0.000 N 
ATOM      5  C   UNL     1      46.147   5.204  13.992  0.00  0.00    +0.000 A 
ATOM      6  C   UNL     1      44.868   5.226  13.434  0.00  0.00    +0.000 A 
ATOM      7  C   UNL     1      44.669   5.779  12.156  0.00  0.00    +0.000 A 
ATOM      8  C   UNL     1      45.778   6.359  11.529  0.00  0.00    +0.000 A 
ATOM      9  C   UNL     1      47.004   6.321  12.167  0.00  0.00    +0.000 A 
ATOM     10  N   UNL     1      47.207   5.740  13.361  0.00  0.00    +0.000 NA
ATOM     11  H   UNL     1      45.924   5.194  15.957  0.00  0.00    +0.000 HD
BRANCH   4  15
ATOM     12  C   UNL     1      48.888   3.908  18.861  0.00  0.00    +0.000 C 
ATOM     13  C   UNL     1      47.856   4.231  17.789  0.00  0.00    +0.000 C 
ATOM     14  C   UNL     1      47.586   3.086  16.776  0.00  0.00    +0.000 C 
ATOM     15  C   UNL     1      47.654   4.128  15.640  0.00  0.00    +0.000 C 
ATOM     16  C   UNL     1      48.406   5.066  16.603  0.00  0.00    +0.000 C 
BRANCH  13  17
ATOM     17  O   UNL     1      46.670   4.782  18.408  0.00  0.00    +0.000 OA
ATOM     18  H   UNL     1      46.812   5.744  18.417  0.00  0.00    +0.000 HD
ENDBRANCH  13  17
ENDBRANCH   4  15
ENDBRANCH   1   7
BRANCH   1  19
ATOM     19  C   UNL     1      43.272   4.811  10.211  0.00  0.00    +0.000 C 
BRANCH  19  20
ATOM     20  N   UNL     1      43.993   3.526  10.292  0.00  0.00    +0.000 N 
ATOM     21  H   UNL     1      43.417   2.738  10.583  0.00  0.00    +0.000 HD
BRANCH  20  22
ATOM     22  C   UNL     1      44.959   3.220   9.329  0.00  0.00    +0.000 A 
ATOM     23  C   UNL     1      45.323   1.907   8.992  0.00  0.00    +0.000 A 
ATOM     24  C   UNL     1      46.227   1.639   7.958  0.00  0.00    +0.000 A 
ATOM     25  C   UNL     1      46.762   2.684   7.202  0.00  0.00    +0.000 A 
ATOM     26  C   UNL     1      46.401   3.999   7.509  0.00  0.00    +0.000 A 
ATOM     27  C   UNL     1      45.501   4.256   8.556  0.00  0.00    +0.000 A 
BRANCH  25  28
ATOM     28  C   UNL     1      47.699   2.343   6.097  0.00  0.00    +0.000 C 
ATOM     29  N   UNL     1      47.698   3.148   4.995  0.00  0.00    +0.000 N 
ATOM     30  O   UNL     1      48.420   1.356   6.152  0.00  0.00    +0.000 OA
ATOM     31  H   UNL     1      46.956   3.807   4.807  0.00  0.00    +0.000 HD
ATOM     32  H   UNL     1      48.256   2.829   4.212  0.00  0.00    +0.000 HD
ENDBRANCH  25  28
ENDBRANCH  20  22
ENDBRANCH  19  20
ENDBRANCH   1  19
TORSDOF 7
ENDMDL
MODEL 3
REMARK VINA RESULT:    -8.858      1.288      1.889
REMARK INTER + INTRA:         -13.353
REMARK INTER:                 -13.058
REMARK INTRA:                  -0.295
REMARK UNBOUND:                -1.130
REMARK  Name = 
REMARK  8 active torsions:
REMARK  status: ('A' for Active; 'I' for Inactive)
REMARK    1  A    between atoms: C_1  and  C_2
REMARK    2  A    between atoms: C_2  and  O_3
REMARK    3  A    between atoms: C_5  and  N_6
REMARK    4  A    between atoms: C_9  and  C_10
REMARK    5  A    between atoms: C_10  and  C_13
REMARK    6  A    between atoms: C_13  and  N_14
REMARK    7  A    between atoms: N_14  and  C_15
REMARK    8  A    between atoms: C_18  and  C_19
REMARK                            x       y       z     vdW  Elec       q    Type
REMARK                         _______ _______ _______ _____ _____    ______ ____
ROOT
ATOM      1  C   UNL     1      45.064   6.447  11.307  0.00  0.00    +0.000 C 
ATOM      2  F   UNL     1      44.289   7.548  11.553  0.00  0.00    +0.000 F 
ATOM      3  F   UNL     1      45.620   6.677  10.075  0.00  0.00    +0.000 F 
ENDROOT
BRANCH   1   7
ATOM      4  N   UNL     1      46.666   4.369  15.504  0.00  0.00    +0.000 N 
ATOM      5  C   UNL     1      46.909   5.236  14.419  0.00  0.00    +0.000 A 
ATOM      6  C   UNL     1      45.892   5.480  13.496  0.00  0.00    +0.000 A 
ATOM      7  C   UNL     1      46.140   6.293  12.376  0.00  0.00    +0.000 A 
ATOM      8  C   UNL     1      47.403   6.890  12.285  0.00  0.00    +0.000 A 
ATOM      9  C   UNL     1      48.344   6.620  13.261  0.00  0.00    +0.000 A 
ATOM     10  N   UNL     1      48.127   5.796  14.299  0.00  0.00    +0.000 NA
ATOM     11  H   UNL     1      46.041   4.851  16.154  0.00  0.00    +0.000 HD
BRANCH   4  15
ATOM     12  C   UNL     1      48.530   3.975  19.550  0.00  0.00    +0.000 C 
ATOM     13  C   UNL     1      47.741   4.267  18.281  0.00  0.00    +0.000 C 
ATOM     14  C   UNL     1      47.304   3.013  17.479  0.00  0.00    +0.000 C 
ATOM     15  C   UNL     1      47.762   3.725  16.190  0.00  0.00    +0.000 C 
ATOM     16  C   UNL     1      48.615   4.666  17.064  0.00  0.00    +0.000 C 
BRANCH  13  17
ATOM     17  O   UNL     1      46.672   5.197  18.578  0.00  0.00    +0.000 OA
ATOM     18  H   UNL     1      45.866   4.655  18.609  0.00  0.00    +0.000 HD
ENDBRANCH  13  17
ENDBRANCH   4  15
ENDBRANCH   1   7
BRANCH   1  19
ATOM     19  C   UNL     1      44.125   5.212  11.174  0.00  0.00    +0.000 C 
BRANCH  19  20
ATOM     20  N   UNL     1      43.754   4.835   9.797  0.00  0.00    +0.000 N 
ATOM     21  H   UNL     1      43.349   5.591   9.248  0.00  0.00    +0.000 HD
BRANCH  20  22
ATOM     22  C   UNL     1      44.581   3.968   9.075  0.00  0.00    +0.000 A 
ATOM     23  C   UNL     1      45.561   4.410   8.173  0.00  0.00    +0.000 A 
ATOM     24  C   UNL     1      46.430   3.514   7.540  0.00  0.00    +0.000 A 
ATOM     25  C   UNL     1      46.368   2.150   7.827  0.00  0.00    +0.000 A 
ATOM     26  C   UNL     1      45.411   1.689   8.736  0.00  0.00    +0.000 A 
ATOM     27  C   UNL     1      44.537   2.596   9.357  0.00  0.00    +0.000 A 
BRANCH  25  28
ATOM     28  C   UNL     1      47.334   1.245   7.146  0.00  0.00    +0.000 C 
ATOM     29  N   UNL     1      48.361   1.819   6.454  0.00  0.00    +0.000 N 
ATOM     30  O   UNL     1      47.197   0.029   7.171  0.00  0.00    +0.000 OA
ATOM     31  H   UNL     1      48.364   2.797   6.203  0.00  0.00    +0.000 HD
ATOM     32  H   UNL     1      48.933   1.189   5.905  0.00  0.00    +0.000 HD
ENDBRANCH  25  28
ENDBRANCH  20  22
ENDBRANCH  19  20
ENDBRANCH   1  19
TORSDOF 7
ENDMDL
MODEL 4
REMARK VINA RESULT:    -8.727      1.909      2.136
REMARK INTER + INTRA:         -13.173
REMARK INTER:                 -12.218
REMARK INTRA:                  -0.955
REMARK UNBOUND:                -1.130
REMARK  Name = 
REMARK  8 active torsions:
REMARK  status: ('A' for Active; 'I' for Inactive)
REMARK    1  A    between atoms: C_1  and  C_2
REMARK    2  A    between atoms: C_2  and  O_3
REMARK    3  A    between atoms: C_5  and  N_6
REMARK    4  A    between atoms: C_9  and  C_10
REMARK    5  A    between atoms: C_10  and  C_13
REMARK    6  A    between atoms: C_13  and  N_14
REMARK    7  A    between atoms: N_14  and  C_15
REMARK    8  A    between atoms: C_18  and  C_19
REMARK                            x       y       z     vdW  Elec       q    Type
REMARK                         _______ _______ _______ _____ _____    ______ ____
ROOT
ATOM      1  C   UNL     1      43.501   5.183  12.417  0.00  0.00    +0.000 C 
ATOM      2  F   UNL     1      42.689   4.849  13.467  0.00  0.00    +0.000 F 
ATOM      3  F   UNL     1      43.219   6.499  12.159  0.00  0.00    +0.000 F 
ENDROOT
BRANCH   1   7
ATOM      4  N   UNL     1      47.917   7.127  13.525  0.00  0.00    +0.000 N 
ATOM      5  C   UNL     1      47.112   5.981  13.356  0.00  0.00    +0.000 A 
ATOM      6  C   UNL     1      45.801   6.126  12.902  0.00  0.00    +0.000 A 
ATOM      7  C   UNL     1      44.969   4.998  12.789  0.00  0.00    +0.000 A 
ATOM      8  C   UNL     1      45.537   3.751  13.073  0.00  0.00    +0.000 A 
ATOM      9  C   UNL     1      46.855   3.694  13.487  0.00  0.00    +0.000 A 
ATOM     10  N   UNL     1      47.633   4.776  13.653  0.00  0.00    +0.000 NA
ATOM     11  H   UNL     1      48.161   7.476  12.596  0.00  0.00    +0.000 HD
BRANCH   4  15
ATOM     12  C   UNL     1      49.515   8.979  17.268  0.00  0.00    +0.000 C 
ATOM     13  C   UNL     1      48.782   8.504  16.021  0.00  0.00    +0.000 C 
ATOM     14  C   UNL     1      48.651   6.963  15.887  0.00  0.00    +0.000 C 
ATOM     15  C   UNL     1      49.062   7.097  14.406  0.00  0.00    +0.000 C 
ATOM     16  C   UNL     1      49.653   8.480  14.738  0.00  0.00    +0.000 C 
BRANCH  13  17
ATOM     17  O   UNL     1      47.537   9.230  15.884  0.00  0.00    +0.000 OA
ATOM     18  H   UNL     1      47.766  10.160  16.054  0.00  0.00    +0.000 HD
ENDBRANCH  13  17
ENDBRANCH   4  15
ENDBRANCH   1   7
BRANCH   1  19
ATOM     19  C   UNL     1      43.055   4.356  11.176  0.00  0.00    +0.000 C 
BRANCH  19  20
ATOM     20  N   UNL     1      43.649   4.763   9.889  0.00  0.00    +0.000 N 
ATOM     21  H   UNL     1      43.844   5.760   9.811  0.00  0.00    +0.000 HD
BRANCH  20  22
ATOM     22  C   UNL     1      44.593   3.934   9.275  0.00  0.00    +0.000 A 
ATOM     23  C   UNL     1      44.597   2.537   9.411  0.00  0.00    +0.000 A 
ATOM     24  C   UNL     1      45.502   1.735   8.707  0.00  0.00    +0.000 A 
ATOM     25  C   UNL     1      46.404   2.310   7.811  0.00  0.00    +0.000 A 
ATOM     26  C   UNL     1      46.408   3.699   7.647  0.00  0.00    +0.000 A 
ATOM     27  C   UNL     1      45.502   4.494   8.367  0.00  0.00    +0.000 A 
BRANCH  25  28
ATOM     28  C   UNL     1      47.327   1.409   7.068  0.00  0.00    +0.000 C 
ATOM     29  N   UNL     1      48.411   1.974   6.460  0.00  0.00    +0.000 N 
ATOM     30  O   UNL     1      47.109   0.210   6.970  0.00  0.00    +0.000 OA
ATOM     31  H   UNL     1      48.488   2.969   6.306  0.00  0.00    +0.000 HD
ATOM     32  H   UNL     1      48.956   1.362   5.866  0.00  0.00    +0.000 HD
ENDBRANCH  25  28
ENDBRANCH  20  22
ENDBRANCH  19  20
ENDBRANCH   1  19
TORSDOF 7
ENDMDL
MODEL 5
REMARK VINA RESULT:    -8.664      3.078      3.866
REMARK INTER + INTRA:         -13.086
REMARK INTER:                 -12.022
REMARK INTRA:                  -1.064
REMARK UNBOUND:                -1.130
REMARK  Name = 
REMARK  8 active torsions:
REMARK  status: ('A' for Active; 'I' for Inactive)
REMARK    1  A    between atoms: C_1  and  C_2
REMARK    2  A    between atoms: C_2  and  O_3
REMARK    3  A    between atoms: C_5  and  N_6
REMARK    4  A    between atoms: C_9  and  C_10
REMARK    5  A    between atoms: C_10  and  C_13
REMARK    6  A    between atoms: C_13  and  N_14
REMARK    7  A    between atoms: N_14  and  C_15
REMARK    8  A    between atoms: C_18  and  C_19
REMARK                            x       y       z     vdW  Elec       q    Type
REMARK                         _______ _______ _______ _____ _____    ______ ____
ROOT
ATOM      1  C   UNL     1      43.697   5.588  12.265  0.00  0.00    +0.000 C 
ATOM      2  F   UNL     1      42.920   5.466  13.385  0.00  0.00    +0.000 F 
ATOM      3  F   UNL     1      43.359   6.805  11.733  0.00  0.00    +0.000 F 
ENDROOT
BRANCH   1   7
ATOM      4  N   UNL     1      48.311   7.281  11.666  0.00  0.00    +0.000 N 
ATOM      5  C   UNL     1      47.423   6.410  12.332  0.00  0.00    +0.000 A 
ATOM      6  C   UNL     1      46.087   6.357  11.932  0.00  0.00    +0.000 A 
ATOM      7  C   UNL     1      45.178   5.540  12.627  0.00  0.00    +0.000 A 
ATOM      8  C   UNL     1      45.690   4.747  13.661  0.00  0.00    +0.000 A 
ATOM      9  C   UNL     1      47.034   4.838  13.972  0.00  0.00    +0.000 A 
ATOM     10  N   UNL     1      47.891   5.663  13.348  0.00  0.00    +0.000 NA
ATOM     11  H   UNL     1      48.490   6.893  10.738  0.00  0.00    +0.000 HD
BRANCH   4  15
ATOM     12  C   UNL     1      50.834  10.920  12.287  0.00  0.00    +0.000 C 
ATOM     13  C   UNL     1      49.836   9.826  11.933  0.00  0.00    +0.000 C 
ATOM     14  C   UNL     1      49.313   9.003  13.141  0.00  0.00    +0.000 C 
ATOM     15  C   UNL     1      49.527   7.721  12.309  0.00  0.00    +0.000 C 
ATOM     16  C   UNL     1      50.482   8.521  11.401  0.00  0.00    +0.000 C 
BRANCH  13  17
ATOM     17  O   UNL     1      48.801  10.371  11.081  0.00  0.00    +0.000 OA
ATOM     18  H   UNL     1      48.587  11.239  11.465  0.00  0.00    +0.000 HD
ENDBRANCH  13  17
ENDBRANCH   4  15
ENDBRANCH   1   7
BRANCH   1  19
ATOM     19  C   UNL     1      43.260   4.494  11.249  0.00  0.00    +0.000 C 
BRANCH  19  20
ATOM     20  N   UNL     1      43.636   4.738   9.843  0.00  0.00    +0.000 N 
ATOM     21  H   UNL     1      43.688   5.722   9.586  0.00  0.00    +0.000 HD
BRANCH  20  22
ATOM     22  C   UNL     1      44.600   3.925   9.239  0.00  0.00    +0.000 A 
ATOM     23  C   UNL     1      44.653   2.533   9.412  0.00  0.00    +0.000 A 
ATOM     24  C   UNL     1      45.575   1.743   8.717  0.00  0.00    +0.000 A 
ATOM     25  C   UNL     1      46.446   2.324   7.794  0.00  0.00    +0.000 A 
ATOM     26  C   UNL     1      46.401   3.707   7.593  0.00  0.00    +0.000 A 
ATOM     27  C   UNL     1      45.478   4.491   8.304  0.00  0.00    +0.000 A 
BRANCH  25  28
ATOM     28  C   UNL     1      47.390   1.435   7.062  0.00  0.00    +0.000 C 
ATOM     29  N   UNL     1      48.518   2.000   6.542  0.00  0.00    +0.000 N 
ATOM     30  O   UNL     1      47.151   0.247   6.897  0.00  0.00    +0.000 OA
ATOM     31  H   UNL     1      48.625   2.999   6.439  0.00  0.00    +0.000 HD
ATOM     32  H   UNL     1      49.082   1.401   5.952  0.00  0.00    +0.000 HD
ENDBRANCH  25  28
ENDBRANCH  20  22
ENDBRANCH  19  20
ENDBRANCH   1  19
TORSDOF 7
ENDMDL
MODEL 6
REMARK VINA RESULT:    -8.304      3.418      4.169
REMARK INTER + INTRA:         -12.589
REMARK INTER:                 -11.618
REMARK INTRA:                  -0.971
REMARK UNBOUND:                -1.130
REMARK  Name = 
REMARK  8 active torsions:
REMARK  status: ('A' for Active; 'I' for Inactive)
REMARK    1  A    between atoms: C_1  and  C_2
REMARK    2  A    between atoms: C_2  and  O_3
REMARK    3  A    between atoms: C_5  and  N_6
REMARK    4  A    between atoms: C_9  and  C_10
REMARK    5  A    between atoms: C_10  and  C_13
REMARK    6  A    between atoms: C_13  and  N_14
REMARK    7  A    between atoms: N_14  and  C_15
REMARK    8  A    between atoms: C_18  and  C_19
REMARK                            x       y       z     vdW  Elec       q    Type
REMARK                         _______ _______ _______ _____ _____    ______ ____
ROOT
ATOM      1  C   UNL     1      44.436   4.493  12.444  0.00  0.00    +0.000 C 
ATOM      2  F   UNL     1      45.318   3.451  12.343  0.00  0.00    +0.000 F 
ATOM      3  F   UNL     1      43.826   4.321  13.660  0.00  0.00    +0.000 F 
ENDROOT
BRANCH   1   7
ATOM      4  N   UNL     1      48.663   7.049  12.120  0.00  0.00    +0.000 N 
ATOM      5  C   UNL     1      47.255   7.053  12.192  0.00  0.00    +0.000 A 
ATOM      6  C   UNL     1      46.575   5.847  12.369  0.00  0.00    +0.000 A 
ATOM      7  C   UNL     1      45.169   5.829  12.382  0.00  0.00    +0.000 A 
ATOM      8  C   UNL     1      44.511   7.061  12.288  0.00  0.00    +0.000 A 
ATOM      9  C   UNL     1      45.263   8.213  12.147  0.00  0.00    +0.000 A 
ATOM     10  N   UNL     1      46.604   8.225  12.075  0.00  0.00    +0.000 NA
ATOM     11  H   UNL     1      49.023   6.857  13.057  0.00  0.00    +0.000 HD
BRANCH   4  15
ATOM     12  C   UNL     1      52.402   9.480  12.457  0.00  0.00    +0.000 C 
ATOM     13  C   UNL     1      51.205   8.543  12.549  0.00  0.00    +0.000 C 
ATOM     14  C   UNL     1      50.852   7.802  11.232  0.00  0.00    +0.000 C 
ATOM     15  C   UNL     1      49.368   8.139  11.486  0.00  0.00    +0.000 C 
ATOM     16  C   UNL     1      49.830   9.252  12.447  0.00  0.00    +0.000 C 
BRANCH  13  17
ATOM     17  O   UNL     1      51.350   7.684  13.706  0.00  0.00    +0.000 OA
ATOM     18  H   UNL     1      51.623   6.822  13.348  0.00  0.00    +0.000 HD
ENDBRANCH  13  17
ENDBRANCH   4  15
ENDBRANCH   1   7
BRANCH   1  19
ATOM     19  C   UNL     1      43.348   4.318  11.345  0.00  0.00    +0.000 C 
BRANCH  19  20
ATOM     20  N   UNL     1      43.741   4.730   9.984  0.00  0.00    +0.000 N 
ATOM     21  H   UNL     1      43.806   5.738   9.851  0.00  0.00    +0.000 HD
BRANCH  20  22
ATOM     22  C   UNL     1      44.703   3.987   9.292  0.00  0.00    +0.000 A 
ATOM     23  C   UNL     1      44.741   2.585   9.293  0.00  0.00    +0.000 A 
ATOM     24  C   UNL     1      45.663   1.876   8.514  0.00  0.00    +0.000 A 
ATOM     25  C   UNL     1      46.548   2.557   7.677  0.00  0.00    +0.000 A 
ATOM     26  C   UNL     1      46.517   3.955   7.647  0.00  0.00    +0.000 A 
ATOM     27  C   UNL     1      45.594   4.655   8.441  0.00  0.00    +0.000 A 
BRANCH  25  28
ATOM     28  C   UNL     1      47.490   1.755   6.849  0.00  0.00    +0.000 C 
ATOM     29  N   UNL     1      48.598   2.384   6.362  0.00  0.00    +0.000 N 
ATOM     30  O   UNL     1      47.266   0.582   6.581  0.00  0.00    +0.000 OA
ATOM     31  H   UNL     1      48.688   3.390   6.348  0.00  0.00    +0.000 HD
ATOM     32  H   UNL     1      49.159   1.852   5.708  0.00  0.00    +0.000 HD
ENDBRANCH  25  28
ENDBRANCH  20  22
ENDBRANCH  19  20
ENDBRANCH   1  19
TORSDOF 7
ENDMDL
MODEL 7
REMARK VINA RESULT:    -8.040      2.927      3.571
REMARK INTER + INTRA:         -12.225
REMARK INTER:                 -11.262
REMARK INTRA:                  -0.962
REMARK UNBOUND:                -1.130
REMARK  Name = 
REMARK  8 active torsions:
REMARK  status: ('A' for Active; 'I' for Inactive)
REMARK    1  A    between atoms: C_1  and  C_2
REMARK    2  A    between atoms: C_2  and  O_3
REMARK    3  A    between atoms: C_5  and  N_6
REMARK    4  A    between atoms: C_9  and  C_10
REMARK    5  A    between atoms: C_10  and  C_13
REMARK    6  A    between atoms: C_13  and  N_14
REMARK    7  A    between atoms: N_14  and  C_15
REMARK    8  A    between atoms: C_18  and  C_19
REMARK                            x       y       z     vdW  Elec       q    Type
REMARK                         _______ _______ _______ _____ _____    ______ ____
ROOT
ATOM      1  C   UNL     1      43.410   4.528  12.234  0.00  0.00    +0.000 C 
ATOM      2  F   UNL     1      42.853   4.295  13.462  0.00  0.00    +0.000 F 
ATOM      3  F   UNL     1      42.348   4.574  11.368  0.00  0.00    +0.000 F 
ENDROOT
BRANCH   1   7
ATOM      4  N   UNL     1      47.227   7.265  13.798  0.00  0.00    +0.000 N 
ATOM      5  C   UNL     1      46.075   7.152  12.992  0.00  0.00    +0.000 A 
ATOM      6  C   UNL     1      45.294   5.998  13.072  0.00  0.00    +0.000 A 
ATOM      7  C   UNL     1      44.178   5.846  12.230  0.00  0.00    +0.000 A 
ATOM      8  C   UNL     1      43.859   6.918  11.389  0.00  0.00    +0.000 A 
ATOM      9  C   UNL     1      44.669   8.038  11.395  0.00  0.00    +0.000 A 
ATOM     10  N   UNL     1      45.769   8.160  12.156  0.00  0.00    +0.000 NA
ATOM     11  H   UNL     1      46.920   7.407  14.762  0.00  0.00    +0.000 HD
BRANCH   4  15
ATOM     12  C   UNL     1      51.557   8.080  14.559  0.00  0.00    +0.000 C 
ATOM     13  C   UNL     1      50.108   7.624  14.467  0.00  0.00    +0.000 C 
ATOM     14  C   UNL     1      49.577   7.422  13.023  0.00  0.00    +0.000 C 
ATOM     15  C   UNL     1      48.291   8.171  13.432  0.00  0.00    +0.000 C 
ATOM     16  C   UNL     1      49.068   8.764  14.624  0.00  0.00    +0.000 C 
BRANCH  13  17
ATOM     17  O   UNL     1      49.898   6.497  15.351  0.00  0.00    +0.000 OA
ATOM     18  H   UNL     1      50.196   6.802  16.225  0.00  0.00    +0.000 HD
ENDBRANCH  13  17
ENDBRANCH   4  15
ENDBRANCH   1   7
BRANCH   1  19
ATOM     19  C   UNL     1      44.275   3.292  11.850  0.00  0.00    +0.000 C 
BRANCH  19  20
ATOM     20  N   UNL     1      43.849   2.564  10.640  0.00  0.00    +0.000 N 
ATOM     21  H   UNL     1      42.846   2.584  10.467  0.00  0.00    +0.000 HD
BRANCH  20  22
ATOM     22  C   UNL     1      44.641   2.622   9.488  0.00  0.00    +0.000 A 
ATOM     23  C   UNL     1      44.942   3.818   8.819  0.00  0.00    +0.000 A 
ATOM     24  C   UNL     1      45.813   3.847   7.724  0.00  0.00    +0.000 A 
ATOM     25  C   UNL     1      46.442   2.677   7.295  0.00  0.00    +0.000 A 
ATOM     26  C   UNL     1      46.171   1.476   7.957  0.00  0.00    +0.000 A 
ATOM     27  C   UNL     1      45.286   1.459   9.048  0.00  0.00    +0.000 A 
BRANCH  25  28
ATOM     28  C   UNL     1      47.380   2.767   6.143  0.00  0.00    +0.000 C 
ATOM     29  N   UNL     1      48.686   2.436   6.362  0.00  0.00    +0.000 N 
ATOM     30  O   UNL     1      47.009   3.159   5.045  0.00  0.00    +0.000 OA
ATOM     31  H   UNL     1      49.076   2.355   7.290  0.00  0.00    +0.000 HD
ATOM     32  H   UNL     1      49.324   2.617   5.596  0.00  0.00    +0.000 HD
ENDBRANCH  25  28
ENDBRANCH  20  22
ENDBRANCH  19  20
ENDBRANCH   1  19
TORSDOF 7
ENDMDL
MODEL 8
REMARK VINA RESULT:    -7.741      1.925      2.292
REMARK INTER + INTRA:         -11.813
REMARK INTER:                 -11.070
REMARK INTRA:                  -0.743
REMARK UNBOUND:                -1.130
REMARK  Name = 
REMARK  8 active torsions:
REMARK  status: ('A' for Active; 'I' for Inactive)
REMARK    1  A    between atoms: C_1  and  C_2
REMARK    2  A    between atoms: C_2  and  O_3
REMARK    3  A    between atoms: C_5  and  N_6
REMARK    4  A    between atoms: C_9  and  C_10
REMARK    5  A    between atoms: C_10  and  C_13
REMARK    6  A    between atoms: C_13  and  N_14
REMARK    7  A    between atoms: N_14  and  C_15
REMARK    8  A    between atoms: C_18  and  C_19
REMARK                            x       y       z     vdW  Elec       q    Type
REMARK                         _______ _______ _______ _____ _____    ______ ____
ROOT
ATOM      1  C   UNL     1      45.376   6.384  11.684  0.00  0.00    +0.000 C 
ATOM      2  F   UNL     1      44.865   7.620  11.976  0.00  0.00    +0.000 F 
ATOM      3  F   UNL     1      46.109   6.568  10.540  0.00  0.00    +0.000 F 
ENDROOT
BRANCH   1   7
ATOM      4  N   UNL     1      49.195   7.042  14.765  0.00  0.00    +0.000 N 
ATOM      5  C   UNL     1      48.114   6.243  14.338  0.00  0.00    +0.000 A 
ATOM      6  C   UNL     1      47.372   6.633  13.222  0.00  0.00    +0.000 A 
ATOM      7  C   UNL     1      46.255   5.879  12.823  0.00  0.00    +0.000 A 
ATOM      8  C   UNL     1      45.983   4.707  13.540  0.00  0.00    +0.000 A 
ATOM      9  C   UNL     1      46.788   4.378  14.614  0.00  0.00    +0.000 A 
ATOM     10  N   UNL     1      47.820   5.129  15.033  0.00  0.00    +0.000 NA
ATOM     11  H   UNL     1      49.951   6.931  14.087  0.00  0.00    +0.000 HD
BRANCH   4  15
ATOM     12  C   UNL     1      52.435   8.574  17.439  0.00  0.00    +0.000 C 
ATOM     13  C   UNL     1      51.448   8.176  16.350  0.00  0.00    +0.000 C 
ATOM     14  C   UNL     1      49.953   8.356  16.726  0.00  0.00    +0.000 C 
ATOM     15  C   UNL     1      49.675   6.962  16.125  0.00  0.00    +0.000 C 
ATOM     16  C   UNL     1      51.179   6.652  16.258  0.00  0.00    +0.000 C 
BRANCH  13  17
ATOM     17  O   UNL     1      51.834   8.792  15.098  0.00  0.00    +0.000 OA
ATOM     18  H   UNL     1      51.005   9.127  14.715  0.00  0.00    +0.000 HD
ENDBRANCH  13  17
ENDBRANCH   4  15
ENDBRANCH   1   7
BRANCH   1  19
ATOM     19  C   UNL     1      44.190   5.438  11.334  0.00  0.00    +0.000 C 
BRANCH  19  20
ATOM     20  N   UNL     1      44.027   5.117   9.903  0.00  0.00    +0.000 N 
ATOM     21  H   UNL     1      43.867   5.926   9.306  0.00  0.00    +0.000 HD
BRANCH  20  22
ATOM     22  C   UNL     1      44.817   4.116   9.330  0.00  0.00    +0.000 A 
ATOM     23  C   UNL     1      44.699   2.757   9.661  0.00  0.00    +0.000 A 
ATOM     24  C   UNL     1      45.443   1.774   8.998  0.00  0.00    +0.000 A 
ATOM     25  C   UNL     1      46.298   2.124   7.952  0.00  0.00    +0.000 A 
ATOM     26  C   UNL     1      46.420   3.470   7.595  0.00  0.00    +0.000 A 
ATOM     27  C   UNL     1      45.676   4.448   8.274  0.00  0.00    +0.000 A 
BRANCH  25  28
ATOM     28  C   UNL     1      47.046   1.037   7.263  0.00  0.00    +0.000 C 
ATOM     29  N   UNL     1      46.772  -0.250   7.627  0.00  0.00    +0.000 N 
ATOM     30  O   UNL     1      47.904   1.283   6.427  0.00  0.00    +0.000 OA
ATOM     31  H   UNL     1      46.267  -0.477   8.471  0.00  0.00    +0.000 HD
ATOM     32  H   UNL     1      47.374  -0.961   7.230  0.00  0.00    +0.000 HD
ENDBRANCH  25  28
ENDBRANCH  20  22
ENDBRANCH  19  20
ENDBRANCH   1  19
TORSDOF 7
ENDMDL
MODEL 9
REMARK VINA RESULT:    -7.490      4.158      5.296
REMARK INTER + INTRA:         -11.467
REMARK INTER:                 -10.551
REMARK INTRA:                  -0.916
REMARK UNBOUND:                -1.130
REMARK  Name = 
REMARK  8 active torsions:
REMARK  status: ('A' for Active; 'I' for Inactive)
REMARK    1  A    between atoms: C_1  and  C_2
REMARK    2  A    between atoms: C_2  and  O_3
REMARK    3  A    between atoms: C_5  and  N_6
REMARK    4  A    between atoms: C_9  and  C_10
REMARK    5  A    between atoms: C_10  and  C_13
REMARK    6  A    between atoms: C_13  and  N_14
REMARK    7  A    between atoms: N_14  and  C_15
REMARK    8  A    between atoms: C_18  and  C_19
REMARK                            x       y       z     vdW  Elec       q    Type
REMARK                         _______ _______ _______ _____ _____    ______ ____
ROOT
ATOM      1  C   UNL     1      45.697   6.081  12.156  0.00  0.00    +0.000 C 
ATOM      2  F   UNL     1      46.245   4.828  12.210  0.00  0.00    +0.000 F 
ATOM      3  F   UNL     1      44.868   6.150  13.245  0.00  0.00    +0.000 F 
ENDROOT
BRANCH   1   7
ATOM      4  N   UNL     1      50.455   7.385  11.750  0.00  0.00    +0.000 N 
ATOM      5  C   UNL     1      49.118   7.764  11.989  0.00  0.00    +0.000 A 
ATOM      6  C   UNL     1      48.128   6.781  12.048  0.00  0.00    +0.000 A 
ATOM      7  C   UNL     1      46.783   7.150  12.224  0.00  0.00    +0.000 A 
ATOM      8  C   UNL     1      46.510   8.510  12.410  0.00  0.00    +0.000 A 
ATOM      9  C   UNL     1      47.555   9.415  12.368  0.00  0.00    +0.000 A 
ATOM     10  N   UNL     1      48.833   9.070  12.141  0.00  0.00    +0.000 NA
ATOM     11  H   UNL     1      50.805   6.928  12.594  0.00  0.00    +0.000 HD
BRANCH   4  15
ATOM     12  C   UNL     1      54.413   7.618   9.682  0.00  0.00    +0.000 C 
ATOM     13  C   UNL     1      53.105   7.296  10.391  0.00  0.00    +0.000 C 
ATOM     14  C   UNL     1      51.849   7.980   9.788  0.00  0.00    +0.000 C 
ATOM     15  C   UNL     1      51.404   8.338  11.222  0.00  0.00    +0.000 C 
ATOM     16  C   UNL     1      52.859   8.120  11.682  0.00  0.00    +0.000 C 
BRANCH  13  17
ATOM     17  O   UNL     1      52.988   5.864  10.565  0.00  0.00    +0.000 OA
ATOM     18  H   UNL     1      53.857   5.507  10.316  0.00  0.00    +0.000 HD
ENDBRANCH  13  17
ENDBRANCH   4  15
ENDBRANCH   1   7
BRANCH   1  19
ATOM     19  C   UNL     1      44.806   6.167  10.883  0.00  0.00    +0.000 C 
BRANCH  19  20
ATOM     20  N   UNL     1      44.236   4.890  10.412  0.00  0.00    +0.000 N 
ATOM     21  H   UNL     1      43.226   4.901  10.285  0.00  0.00    +0.000 HD
BRANCH  20  22
ATOM     22  C   UNL     1      44.936   4.132   9.467  0.00  0.00    +0.000 A 
ATOM     23  C   UNL     1      45.788   4.696   8.506  0.00  0.00    +0.000 A 
ATOM     24  C   UNL     1      46.542   3.898   7.637  0.00  0.00    +0.000 A 
ATOM     25  C   UNL     1      46.493   2.507   7.738  0.00  0.00    +0.000 A 
ATOM     26  C   UNL     1      45.663   1.924   8.699  0.00  0.00    +0.000 A 
ATOM     27  C   UNL     1      44.903   2.734   9.558  0.00  0.00    +0.000 A 
BRANCH  25  28
ATOM     28  C   UNL     1      47.335   1.706   6.807  0.00  0.00    +0.000 C 
ATOM     29  N   UNL     1      48.346   2.350   6.155  0.00  0.00    +0.000 N 
ATOM     30  O   UNL     1      47.110   0.521   6.602  0.00  0.00    +0.000 OA
ATOM     31  H   UNL     1      48.403   3.357   6.104  0.00  0.00    +0.000 HD
ATOM     32  H   UNL     1      48.827   1.813   5.443  0.00  0.00    +0.000 HD
ENDBRANCH  25  28
ENDBRANCH  20  22
ENDBRANCH  19  20
ENDBRANCH   1  19
TORSDOF 7
ENDMDL
