MODEL 1
REMARK VINA RESULT:    -9.299      0.000      0.000
REMARK INTER + INTRA:         -13.435
REMARK INTER:                 -12.560
REMARK INTRA:                  -0.875
REMARK UNBOUND:                -0.875
REMARK  Name = 
REMARK  6 active torsions:
REMARK  status: ('A' for Active; 'I' for Inactive)
REMARK    1  A    between atoms: C_2  and  C_4
REMARK    2  A    between atoms: C_7  and  N_8
REMARK    3  A    between atoms: N_8  and  C_9
REMARK    4  A    between atoms: C_9  and  C_10
REMARK    5  A    between atoms: C_10  and  C_13
REMARK    6  A    between atoms: C_17  and  C_18
REMARK                            x       y       z     vdW  Elec       q    Type
REMARK                         _______ _______ _______ _____ _____    ______ ____
ROOT
ATOM      1  C   UNL     1      43.718   5.683  11.997  0.00  0.00    +0.000 C 
ATOM      2  F   UNL     1      43.187   6.790  11.387  0.00  0.00    +0.000 F 
ATOM      3  F   UNL     1      42.948   5.492  13.111  0.00  0.00    +0.000 F 
ENDROOT
BRANCH   1   4
ATOM      4  C   UNL     1      45.178   5.883  12.351  0.00  0.00    +0.000 A 
ATOM      5  C   UNL     1      46.027   6.599  11.499  0.00  0.00    +0.000 A 
ATOM      6  C   UNL     1      47.363   6.787  11.838  0.00  0.00    +0.000 A 
ATOM      7  C   UNL     1      47.861   6.272  13.038  0.00  0.00    +0.000 A 
ATOM      8  C   UNL     1      47.037   5.566  13.933  0.00  0.00    +0.000 A 
ATOM      9  C   UNL     1      45.695   5.371  13.555  0.00  0.00    +0.000 A 
BRANCH   8  10
ATOM     10  C   UNL     1      47.541   5.087  15.240  0.00  0.00    +0.000 A 
ATOM     11  C   UNL     1      48.518   5.802  15.949  0.00  0.00    +0.000 A 
ATOM     12  C   UNL     1      48.929   5.350  17.195  0.00  0.00    +0.000 A 
ATOM     13  N   UNL     1      48.441   4.246  17.791  0.00  0.00    +0.000 NA
ATOM     14  C   UNL     1      47.508   3.565  17.101  0.00  0.00    +0.000 A 
ATOM     15  F   UNL     1      46.992   2.469  17.677  0.00  0.00    +0.000 F 
ATOM     16  C   UNL     1      47.040   3.929  15.849  0.00  0.00    +0.000 A 
ENDBRANCH   8  10
ENDBRANCH   1   4
BRANCH   1  17
ATOM     17  C   UNL     1      43.522   4.478  11.038  0.00  0.00    +0.000 C 
BRANCH  17  18
ATOM     18  N   UNL     1      43.792   4.853   9.633  0.00  0.00    +0.000 N 
ATOM     19  H   UNL     1      44.063   5.830   9.540  0.00  0.00    +0.000 HD
BRANCH  18  23
ATOM     20  C   UNL     1      46.394   2.286   7.768  0.00  0.00    +0.000 A 
ATOM     21  C   UNL     1      46.396   3.637   7.463  0.00  0.00    +0.000 A 
ATOM     22  N   UNL     1      45.536   4.523   8.040  0.00  0.00    +0.000 NA
ATOM     23  C   UNL     1      44.661   4.013   8.933  0.00  0.00    +0.000 A 
ATOM     24  C   UNL     1      44.673   2.640   9.223  0.00  0.00    +0.000 A 
ATOM     25  N   UNL     1      45.519   1.742   8.654  0.00  0.00    +0.000 NA
BRANCH  20  27
ATOM     26  N   UNL     1      48.463   1.990   6.550  0.00  0.00    +0.000 N 
ATOM     27  C   UNL     1      47.388   1.379   7.134  0.00  0.00    +0.000 C 
ATOM     28  O   UNL     1      47.256   0.160   7.130  0.00  0.00    +0.000 OA
ATOM     29  H   UNL     1      49.170   1.431   6.092  0.00  0.00    +0.000 HD
ATOM     30  H   UNL     1      48.545   3.001   6.570  0.00  0.00    +0.000 HD
ENDBRANCH  20  27
ENDBRANCH  18  23
ENDBRANCH  17  18
ENDBRANCH   1  17
TORSDOF 6
ENDMDL
MODEL 2
REMARK VINA RESULT:    -9.115      2.520      3.953
REMARK INTER + INTRA:         -13.187
REMARK INTER:                 -12.185
REMARK INTRA:                  -1.002
REMARK UNBOUND:                -0.875
REMARK  Name = 
REMARK  6 active torsions:
REMARK  status: ('A' for Active; 'I' for Inactive)
REMARK    1  A    between atoms: C_2  and  C_4
REMARK    2  A    between atoms: C_7  and  N_8
REMARK    3  A    between atoms: N_8  and  C_9
REMARK    4  A    between atoms: C_9  and  C_10
REMARK    5  A    between atoms: C_10  and  C_13
REMARK    6  A    between atoms: C_17  and  C_18
REMARK                            x       y       z     vdW  Elec       q    Type
REMARK                         _______ _______ _______ _____ _____    ______ ____
ROOT
ATOM      1  C   UNL     1      43.417   5.200  12.289  0.00  0.00    +0.000 C 
ATOM      2  F   UNL     1      42.801   6.343  11.849  0.00  0.00    +0.000 F 
ATOM      3  F   UNL     1      42.645   4.765  13.331  0.00  0.00    +0.000 F 
ENDROOT
BRANCH   1   4
ATOM      4  C   UNL     1      44.846   5.461  12.720  0.00  0.00    +0.000 A 
ATOM      5  C   UNL     1      45.546   4.516  13.479  0.00  0.00    +0.000 A 
ATOM      6  C   UNL     1      46.862   4.760  13.861  0.00  0.00    +0.000 A 
ATOM      7  C   UNL     1      47.494   5.946  13.476  0.00  0.00    +0.000 A 
ATOM      8  C   UNL     1      46.835   6.911  12.694  0.00  0.00    +0.000 A 
ATOM      9  C   UNL     1      45.497   6.649  12.341  0.00  0.00    +0.000 A 
BRANCH   8  10
ATOM     10  C   UNL     1      47.527   8.131  12.220  0.00  0.00    +0.000 A 
ATOM     11  C   UNL     1      46.892   9.381  12.241  0.00  0.00    +0.000 A 
ATOM     12  C   UNL     1      47.590  10.511  11.837  0.00  0.00    +0.000 A 
ATOM     13  N   UNL     1      48.869  10.493  11.418  0.00  0.00    +0.000 NA
ATOM     14  C   UNL     1      49.467   9.288  11.396  0.00  0.00    +0.000 A 
ATOM     15  F   UNL     1      50.747   9.241  10.999  0.00  0.00    +0.000 F 
ATOM     16  C   UNL     1      48.854   8.103  11.771  0.00  0.00    +0.000 A 
ENDBRANCH   8  10
ENDBRANCH   1   4
BRANCH   1  17
ATOM     17  C   UNL     1      43.346   4.157  11.142  0.00  0.00    +0.000 C 
BRANCH  17  18
ATOM     18  N   UNL     1      43.773   4.739   9.851  0.00  0.00    +0.000 N 
ATOM     19  H   UNL     1      44.129   5.687   9.956  0.00  0.00    +0.000 HD
BRANCH  18  23
ATOM     20  C   UNL     1      46.360   2.323   7.774  0.00  0.00    +0.000 A 
ATOM     21  C   UNL     1      46.305   3.684   7.519  0.00  0.00    +0.000 A 
ATOM     22  N   UNL     1      45.448   4.520   8.167  0.00  0.00    +0.000 NA
ATOM     23  C   UNL     1      44.633   3.952   9.082  0.00  0.00    +0.000 A 
ATOM     24  C   UNL     1      44.701   2.570   9.321  0.00  0.00    +0.000 A 
ATOM     25  N   UNL     1      45.545   1.721   8.680  0.00  0.00    +0.000 NA
BRANCH  20  27
ATOM     26  N   UNL     1      48.465   2.114   6.600  0.00  0.00    +0.000 N 
ATOM     27  C   UNL     1      47.349   1.471   7.061  0.00  0.00    +0.000 C 
ATOM     28  O   UNL     1      47.179   0.269   6.893  0.00  0.00    +0.000 OA
ATOM     29  H   UNL     1      49.171   1.594   6.098  0.00  0.00    +0.000 HD
ATOM     30  H   UNL     1      48.577   3.110   6.756  0.00  0.00    +0.000 HD
ENDBRANCH  20  27
ENDBRANCH  18  23
ENDBRANCH  17  18
ENDBRANCH   1  17
TORSDOF 6
ENDMDL
MODEL 3
REMARK VINA RESULT:    -8.795      0.774      1.158
REMARK INTER + INTRA:         -12.754
REMARK INTER:                 -11.725
REMARK INTRA:                  -1.030
REMARK UNBOUND:                -0.875
REMARK  Name = 
REMARK  6 active torsions:
REMARK  status: ('A' for Active; 'I' for Inactive)
REMARK    1  A    between atoms: C_2  and  C_4
REMARK    2  A    between atoms: C_7  and  N_8
REMARK    3  A    between atoms: N_8  and  C_9
REMARK    4  A    between atoms: C_9  and  C_10
REMARK    5  A    between atoms: C_10  and  C_13
REMARK    6  A    between atoms: C_17  and  C_18
REMARK                            x       y       z     vdW  Elec       q    Type
REMARK                         _______ _______ _______ _____ _____    ______ ____
ROOT
ATOM      1  C   UNL     1      43.922   5.198  12.035  0.00  0.00    +0.000 C 
ATOM      2  F   UNL     1      43.466   5.982  11.007  0.00  0.00    +0.000 F 
ATOM      3  F   UNL     1      43.023   5.390  13.048  0.00  0.00    +0.000 F 
ENDROOT
BRANCH   1   4
ATOM      4  C   UNL     1      45.328   5.580  12.452  0.00  0.00    +0.000 A 
ATOM      5  C   UNL     1      46.106   6.421  11.648  0.00  0.00    +0.000 A 
ATOM      6  C   UNL     1      47.392   6.775  12.045  0.00  0.00    +0.000 A 
ATOM      7  C   UNL     1      47.907   6.302  13.255  0.00  0.00    +0.000 A 
ATOM      8  C   UNL     1      47.151   5.474  14.102  0.00  0.00    +0.000 A 
ATOM      9  C   UNL     1      45.862   5.113  13.666  0.00  0.00    +0.000 A 
BRANCH   8  10
ATOM     10  C   UNL     1      47.664   5.035  15.420  0.00  0.00    +0.000 A 
ATOM     11  C   UNL     1      48.618   5.790  16.118  0.00  0.00    +0.000 A 
ATOM     12  C   UNL     1      49.037   5.374  17.374  0.00  0.00    +0.000 A 
ATOM     13  N   UNL     1      48.578   4.269  17.990  0.00  0.00    +0.000 NA
ATOM     14  C   UNL     1      47.668   3.548  17.310  0.00  0.00    +0.000 A 
ATOM     15  F   UNL     1      47.181   2.449  17.905  0.00  0.00    +0.000 F 
ATOM     16  C   UNL     1      47.194   3.875  16.049  0.00  0.00    +0.000 A 
ENDBRANCH   8  10
ENDBRANCH   1   4
BRANCH   1  17
ATOM     17  C   UNL     1      43.845   3.720  11.568  0.00  0.00    +0.000 C 
BRANCH  17  18
ATOM     18  N   UNL     1      43.516   3.621  10.130  0.00  0.00    +0.000 N 
ATOM     19  H   UNL     1      43.022   4.444   9.790  0.00  0.00    +0.000 HD
BRANCH  18  23
ATOM     20  C   UNL     1      46.520   2.713   7.485  0.00  0.00    +0.000 A 
ATOM     21  C   UNL     1      46.012   1.745   8.336  0.00  0.00    +0.000 A 
ATOM     22  N   UNL     1      45.032   2.005   9.245  0.00  0.00    +0.000 NA
ATOM     23  C   UNL     1      44.573   3.275   9.285  0.00  0.00    +0.000 A 
ATOM     24  C   UNL     1      45.105   4.241   8.416  0.00  0.00    +0.000 A 
ATOM     25  N   UNL     1      46.087   4.001   7.508  0.00  0.00    +0.000 NA
BRANCH  20  27
ATOM     26  N   UNL     1      47.623   3.154   5.377  0.00  0.00    +0.000 N 
ATOM     27  C   UNL     1      47.561   2.353   6.485  0.00  0.00    +0.000 C 
ATOM     28  O   UNL     1      48.317   1.401   6.638  0.00  0.00    +0.000 OA
ATOM     29  H   UNL     1      48.301   2.957   4.654  0.00  0.00    +0.000 HD
ATOM     30  H   UNL     1      46.984   3.936   5.280  0.00  0.00    +0.000 HD
ENDBRANCH  20  27
ENDBRANCH  18  23
ENDBRANCH  17  18
ENDBRANCH   1  17
TORSDOF 6
ENDMDL
MODEL 4
REMARK VINA RESULT:    -8.680      3.125      7.639
REMARK INTER + INTRA:         -12.600
REMARK INTER:                 -11.553
REMARK INTRA:                  -1.047
REMARK UNBOUND:                -0.875
REMARK  Name = 
REMARK  6 active torsions:
REMARK  status: ('A' for Active; 'I' for Inactive)
REMARK    1  A    between atoms: C_2  and  C_4
REMARK    2  A    between atoms: C_7  and  N_8
REMARK    3  A    between atoms: N_8  and  C_9
REMARK    4  A    between atoms: C_9  and  C_10
REMARK    5  A    between atoms: C_10  and  C_13
REMARK    6  A    between atoms: C_17  and  C_18
REMARK                            x       y       z     vdW  Elec       q    Type
REMARK                         _______ _______ _______ _____ _____    ______ ____
ROOT
ATOM      1  C   UNL     1      44.794   6.624  11.344  0.00  0.00    +0.000 C 
ATOM      2  F   UNL     1      43.620   7.332  11.351  0.00  0.00    +0.000 F 
ATOM      3  F   UNL     1      45.589   7.272  10.439  0.00  0.00    +0.000 F 
ENDROOT
BRANCH   1   4
ATOM      4  C   UNL     1      44.574   5.174  10.961  0.00  0.00    +0.000 A 
ATOM      5  C   UNL     1      43.619   4.399  11.628  0.00  0.00    +0.000 A 
ATOM      6  C   UNL     1      43.416   3.071  11.262  0.00  0.00    +0.000 A 
ATOM      7  C   UNL     1      44.157   2.511  10.218  0.00  0.00    +0.000 A 
ATOM      8  C   UNL     1      45.109   3.262   9.507  0.00  0.00    +0.000 A 
ATOM      9  C   UNL     1      45.311   4.596   9.912  0.00  0.00    +0.000 A 
BRANCH   8  10
ATOM     10  C   UNL     1      45.839   2.696   8.350  0.00  0.00    +0.000 A 
ATOM     11  C   UNL     1      46.271   1.361   8.345  0.00  0.00    +0.000 A 
ATOM     12  C   UNL     1      46.906   0.850   7.222  0.00  0.00    +0.000 A 
ATOM     13  N   UNL     1      47.142   1.562   6.104  0.00  0.00    +0.000 NA
ATOM     14  C   UNL     1      46.730   2.843   6.121  0.00  0.00    +0.000 A 
ATOM     15  F   UNL     1      46.937   3.573   5.015  0.00  0.00    +0.000 F 
ATOM     16  C   UNL     1      46.096   3.446   7.195  0.00  0.00    +0.000 A 
ENDBRANCH   8  10
ENDBRANCH   1   4
BRANCH   1  17
ATOM     17  C   UNL     1      45.429   6.754  12.754  0.00  0.00    +0.000 C 
BRANCH  17  18
ATOM     18  N   UNL     1      46.849   6.340  12.750  0.00  0.00    +0.000 N 
ATOM     19  H   UNL     1      47.481   7.133  12.662  0.00  0.00    +0.000 HD
BRANCH  18  23
ATOM     20  C   UNL     1      47.799   3.741  15.782  0.00  0.00    +0.000 A 
ATOM     21  C   UNL     1      48.093   5.091  15.890  0.00  0.00    +0.000 A 
ATOM     22  N   UNL     1      47.817   5.986  14.901  0.00  0.00    +0.000 NA
ATOM     23  C   UNL     1      47.239   5.488  13.787  0.00  0.00    +0.000 A 
ATOM     24  C   UNL     1      46.954   4.117  13.696  0.00  0.00    +0.000 A 
ATOM     25  N   UNL     1      47.228   3.209  14.669  0.00  0.00    +0.000 NA
BRANCH  20  27
ATOM     26  N   UNL     1      47.056   2.615  17.790  0.00  0.00    +0.000 N 
ATOM     27  C   UNL     1      48.088   2.823  16.915  0.00  0.00    +0.000 C 
ATOM     28  O   UNL     1      49.179   2.285  17.063  0.00  0.00    +0.000 OA
ATOM     29  H   UNL     1      47.190   2.010  18.588  0.00  0.00    +0.000 HD
ATOM     30  H   UNL     1      46.164   3.073  17.640  0.00  0.00    +0.000 HD
ENDBRANCH  20  27
ENDBRANCH  18  23
ENDBRANCH  17  18
ENDBRANCH   1  17
TORSDOF 6
ENDMDL
MODEL 5
REMARK VINA RESULT:    -8.400      3.144      7.447
REMARK INTER + INTRA:         -12.222
REMARK INTER:                 -11.209
REMARK INTRA:                  -1.013
REMARK UNBOUND:                -0.875
REMARK  Name = 
REMARK  6 active torsions:
REMARK  status: ('A' for Active; 'I' for Inactive)
REMARK    1  A    between atoms: C_2  and  C_4
REMARK    2  A    between atoms: C_7  and  N_8
REMARK    3  A    between atoms: N_8  and  C_9
REMARK    4  A    between atoms: C_9  and  C_10
REMARK    5  A    between atoms: C_10  and  C_13
REMARK    6  A    between atoms: C_17  and  C_18
REMARK                            x       y       z     vdW  Elec       q    Type
REMARK                         _______ _______ _______ _____ _____    ______ ____
ROOT
ATOM      1  C   UNL     1      44.699   6.678  11.389  0.00  0.00    +0.000 C 
ATOM      2  F   UNL     1      43.577   7.429  11.154  0.00  0.00    +0.000 F 
ATOM      3  F   UNL     1      45.666   7.233  10.596  0.00  0.00    +0.000 F 
ENDROOT
BRANCH   1   4
ATOM      4  C   UNL     1      44.475   5.216  11.058  0.00  0.00    +0.000 A 
ATOM      5  C   UNL     1      43.520   4.466  11.755  0.00  0.00    +0.000 A 
ATOM      6  C   UNL     1      43.313   3.127  11.438  0.00  0.00    +0.000 A 
ATOM      7  C   UNL     1      44.051   2.528  10.412  0.00  0.00    +0.000 A 
ATOM      8  C   UNL     1      45.003   3.251   9.673  0.00  0.00    +0.000 A 
ATOM      9  C   UNL     1      45.208   4.598  10.030  0.00  0.00    +0.000 A 
BRANCH   8  10
ATOM     10  C   UNL     1      45.729   2.642   8.535  0.00  0.00    +0.000 A 
ATOM     11  C   UNL     1      46.275   3.433   7.514  0.00  0.00    +0.000 A 
ATOM     12  C   UNL     1      46.994   2.831   6.490  0.00  0.00    +0.000 A 
ATOM     13  N   UNL     1      47.215   1.506   6.408  0.00  0.00    +0.000 NA
ATOM     14  C   UNL     1      46.682   0.755   7.389  0.00  0.00    +0.000 A 
ATOM     15  F   UNL     1      46.899  -0.568   7.342  0.00  0.00    +0.000 F 
ATOM     16  C   UNL     1      45.942   1.260   8.446  0.00  0.00    +0.000 A 
ENDBRANCH   8  10
ENDBRANCH   1   4
BRANCH   1  17
ATOM     17  C   UNL     1      45.095   6.874  12.877  0.00  0.00    +0.000 C 
BRANCH  17  18
ATOM     18  N   UNL     1      46.562   6.832  13.059  0.00  0.00    +0.000 N 
ATOM     19  H   UNL     1      46.956   7.756  13.227  0.00  0.00    +0.000 HD
BRANCH  18  23
ATOM     20  C   UNL     1      47.745   4.028  15.812  0.00  0.00    +0.000 A 
ATOM     21  C   UNL     1      48.280   5.306  15.830  0.00  0.00    +0.000 A 
ATOM     22  N   UNL     1      47.935   6.262  14.924  0.00  0.00    +0.000 NA
ATOM     23  C   UNL     1      47.035   5.899  13.984  0.00  0.00    +0.000 A 
ATOM     24  C   UNL     1      46.509   4.598  13.981  0.00  0.00    +0.000 A 
ATOM     25  N   UNL     1      46.847   3.630  14.873  0.00  0.00    +0.000 NA
BRANCH  20  27
ATOM     26  N   UNL     1      47.241   2.880  17.881  0.00  0.00    +0.000 N 
ATOM     27  C   UNL     1      48.133   3.043  16.857  0.00  0.00    +0.000 C 
ATOM     28  O   UNL     1      49.184   2.415  16.809  0.00  0.00    +0.000 OA
ATOM     29  H   UNL     1      47.449   2.234  18.629  0.00  0.00    +0.000 HD
ATOM     30  H   UNL     1      46.378   3.414  17.892  0.00  0.00    +0.000 HD
ENDBRANCH  20  27
ENDBRANCH  18  23
ENDBRANCH  17  18
ENDBRANCH   1  17
TORSDOF 6
ENDMDL
MODEL 6
REMARK VINA RESULT:    -8.056      2.618      3.467
REMARK INTER + INTRA:         -11.757
REMARK INTER:                 -11.081
REMARK INTRA:                  -0.676
REMARK UNBOUND:                -0.875
REMARK  Name = 
REMARK  6 active torsions:
REMARK  status: ('A' for Active; 'I' for Inactive)
REMARK    1  A    between atoms: C_2  and  C_4
REMARK    2  A    between atoms: C_7  and  N_8
REMARK    3  A    between atoms: N_8  and  C_9
REMARK    4  A    between atoms: C_9  and  C_10
REMARK    5  A    between atoms: C_10  and  C_13
REMARK    6  A    between atoms: C_17  and  C_18
REMARK                            x       y       z     vdW  Elec       q    Type
REMARK                         _______ _______ _______ _____ _____    ______ ____
ROOT
ATOM      1  C   UNL     1      45.075   6.145  11.396  0.00  0.00    +0.000 C 
ATOM      2  F   UNL     1      45.740   6.378  10.220  0.00  0.00    +0.000 F 
ATOM      3  F   UNL     1      44.303   7.257  11.589  0.00  0.00    +0.000 F 
ENDROOT
BRANCH   1   4
ATOM      4  C   UNL     1      46.033   5.919  12.548  0.00  0.00    +0.000 A 
ATOM      5  C   UNL     1      45.786   4.917  13.493  0.00  0.00    +0.000 A 
ATOM      6  C   UNL     1      46.677   4.709  14.542  0.00  0.00    +0.000 A 
ATOM      7  C   UNL     1      47.829   5.493  14.648  0.00  0.00    +0.000 A 
ATOM      8  C   UNL     1      48.126   6.495  13.707  0.00  0.00    +0.000 A 
ATOM      9  C   UNL     1      47.196   6.699  12.669  0.00  0.00    +0.000 A 
BRANCH   8  10
ATOM     10  C   UNL     1      49.383   7.274  13.772  0.00  0.00    +0.000 A 
ATOM     11  C   UNL     1      50.178   7.277  14.928  0.00  0.00    +0.000 A 
ATOM     12  C   UNL     1      51.377   7.977  14.935  0.00  0.00    +0.000 A 
ATOM     13  N   UNL     1      51.846   8.670  13.881  0.00  0.00    +0.000 NA
ATOM     14  C   UNL     1      51.074   8.666  12.779  0.00  0.00    +0.000 A 
ATOM     15  F   UNL     1      51.524   9.334  11.707  0.00  0.00    +0.000 F 
ATOM     16  C   UNL     1      49.860   8.006  12.677  0.00  0.00    +0.000 A 
ENDBRANCH   8  10
ENDBRANCH   1   4
BRANCH   1  17
ATOM     17  C   UNL     1      44.145   4.921  11.175  0.00  0.00    +0.000 C 
BRANCH  17  18
ATOM     18  N   UNL     1      43.810   4.744   9.746  0.00  0.00    +0.000 N 
ATOM     19  H   UNL     1      43.670   5.633   9.270  0.00  0.00    +0.000 HD
BRANCH  18  23
ATOM     20  C   UNL     1      46.371   2.192   7.803  0.00  0.00    +0.000 A 
ATOM     21  C   UNL     1      46.281   3.523   7.428  0.00  0.00    +0.000 A 
ATOM     22  N   UNL     1      45.430   4.401   8.029  0.00  0.00    +0.000 NA
ATOM     23  C   UNL     1      44.658   3.905   9.020  0.00  0.00    +0.000 A 
ATOM     24  C   UNL     1      44.762   2.552   9.380  0.00  0.00    +0.000 A 
ATOM     25  N   UNL     1      45.601   1.661   8.789  0.00  0.00    +0.000 NA
BRANCH  20  27
ATOM     26  N   UNL     1      48.413   1.916   6.535  0.00  0.00    +0.000 N 
ATOM     27  C   UNL     1      47.352   1.295   7.135  0.00  0.00    +0.000 C 
ATOM     28  O   UNL     1      47.222   0.077   7.119  0.00  0.00    +0.000 OA
ATOM     29  H   UNL     1      49.109   1.365   6.054  0.00  0.00    +0.000 HD
ATOM     30  H   UNL     1      48.493   2.927   6.566  0.00  0.00    +0.000 HD
ENDBRANCH  20  27
ENDBRANCH  18  23
ENDBRANCH  17  18
ENDBRANCH   1  17
TORSDOF 6
ENDMDL
MODEL 7
REMARK VINA RESULT:    -7.982      3.419      7.993
REMARK INTER + INTRA:         -11.657
REMARK INTER:                 -10.964
REMARK INTRA:                  -0.693
REMARK UNBOUND:                -0.875
REMARK  Name = 
REMARK  6 active torsions:
REMARK  status: ('A' for Active; 'I' for Inactive)
REMARK    1  A    between atoms: C_2  and  C_4
REMARK    2  A    between atoms: C_7  and  N_8
REMARK    3  A    between atoms: N_8  and  C_9
REMARK    4  A    between atoms: C_9  and  C_10
REMARK    5  A    between atoms: C_10  and  C_13
REMARK    6  A    between atoms: C_17  and  C_18
REMARK                            x       y       z     vdW  Elec       q    Type
REMARK                         _______ _______ _______ _____ _____    ______ ____
ROOT
ATOM      1  C   UNL     1      46.048   6.814  11.740  0.00  0.00    +0.000 C 
ATOM      2  F   UNL     1      45.389   8.009  11.621  0.00  0.00    +0.000 F 
ATOM      3  F   UNL     1      47.259   7.019  11.138  0.00  0.00    +0.000 F 
ENDROOT
BRANCH   1   4
ATOM      4  C   UNL     1      45.281   5.681  11.086  0.00  0.00    +0.000 A 
ATOM      5  C   UNL     1      43.939   5.450  11.409  0.00  0.00    +0.000 A 
ATOM      6  C   UNL     1      43.240   4.415  10.796  0.00  0.00    +0.000 A 
ATOM      7  C   UNL     1      43.873   3.610   9.844  0.00  0.00    +0.000 A 
ATOM      8  C   UNL     1      45.212   3.822   9.475  0.00  0.00    +0.000 A 
ATOM      9  C   UNL     1      45.903   4.862  10.127  0.00  0.00    +0.000 A 
BRANCH   8  10
ATOM     10  C   UNL     1      45.861   3.022   8.412  0.00  0.00    +0.000 A 
ATOM     11  C   UNL     1      46.432   3.634   7.286  0.00  0.00    +0.000 A 
ATOM     12  C   UNL     1      47.078   2.855   6.336  0.00  0.00    +0.000 A 
ATOM     13  N   UNL     1      47.203   1.518   6.421  0.00  0.00    +0.000 NA
ATOM     14  C   UNL     1      46.647   0.939   7.501  0.00  0.00    +0.000 A 
ATOM     15  F   UNL     1      46.769  -0.391   7.621  0.00  0.00    +0.000 F 
ATOM     16  C   UNL     1      45.975   1.628   8.498  0.00  0.00    +0.000 A 
ENDBRANCH   8  10
ENDBRANCH   1   4
BRANCH   1  17
ATOM     17  C   UNL     1      46.277   6.551  13.253  0.00  0.00    +0.000 C 
BRANCH  17  18
ATOM     18  N   UNL     1      46.565   5.126  13.519  0.00  0.00    +0.000 N 
ATOM     19  H   UNL     1      47.059   4.682  12.747  0.00  0.00    +0.000 HD
BRANCH  18  23
ATOM     20  C   UNL     1      48.551   4.349  17.026  0.00  0.00    +0.000 A 
ATOM     21  C   UNL     1      47.560   3.495  16.571  0.00  0.00    +0.000 A 
ATOM     22  N   UNL     1      46.859   3.723  15.426  0.00  0.00    +0.000 NA
ATOM     23  C   UNL     1      47.175   4.845  14.744  0.00  0.00    +0.000 A 
ATOM     24  C   UNL     1      48.179   5.700  15.225  0.00  0.00    +0.000 A 
ATOM     25  N   UNL     1      48.884   5.491  16.368  0.00  0.00    +0.000 NA
BRANCH  20  27
ATOM     26  N   UNL     1      48.576   3.478  19.282  0.00  0.00    +0.000 N 
ATOM     27  C   UNL     1      49.309   4.020  18.263  0.00  0.00    +0.000 C 
ATOM     28  O   UNL     1      50.513   4.221  18.368  0.00  0.00    +0.000 OA
ATOM     29  H   UNL     1      49.028   3.242  20.155  0.00  0.00    +0.000 HD
ATOM     30  H   UNL     1      47.580   3.322  19.165  0.00  0.00    +0.000 HD
ENDBRANCH  20  27
ENDBRANCH  18  23
ENDBRANCH  17  18
ENDBRANCH   1  17
TORSDOF 6
ENDMDL
MODEL 8
REMARK VINA RESULT:    -7.968      2.459      3.401
REMARK INTER + INTRA:         -11.638
REMARK INTER:                 -11.056
REMARK INTRA:                  -0.582
REMARK UNBOUND:                -0.875
REMARK  Name = 
REMARK  6 active torsions:
REMARK  status: ('A' for Active; 'I' for Inactive)
REMARK    1  A    between atoms: C_2  and  C_4
REMARK    2  A    between atoms: C_7  and  N_8
REMARK    3  A    between atoms: N_8  and  C_9
REMARK    4  A    between atoms: C_9  and  C_10
REMARK    5  A    between atoms: C_10  and  C_13
REMARK    6  A    between atoms: C_17  and  C_18
REMARK                            x       y       z     vdW  Elec       q    Type
REMARK                         _______ _______ _______ _____ _____    ______ ____
ROOT
ATOM      1  C   UNL     1      43.769   5.013  12.392  0.00  0.00    +0.000 C 
ATOM      2  F   UNL     1      42.701   5.172  13.237  0.00  0.00    +0.000 F 
ATOM      3  F   UNL     1      44.563   4.081  13.001  0.00  0.00    +0.000 F 
ENDROOT
BRANCH   1   4
ATOM      4  C   UNL     1      44.506   6.318  12.166  0.00  0.00    +0.000 A 
ATOM      5  C   UNL     1      43.856   7.411  11.582  0.00  0.00    +0.000 A 
ATOM      6  C   UNL     1      44.537   8.609  11.388  0.00  0.00    +0.000 A 
ATOM      7  C   UNL     1      45.871   8.728  11.788  0.00  0.00    +0.000 A 
ATOM      8  C   UNL     1      46.554   7.662  12.398  0.00  0.00    +0.000 A 
ATOM      9  C   UNL     1      45.848   6.454  12.561  0.00  0.00    +0.000 A 
BRANCH   8  10
ATOM     10  C   UNL     1      47.942   7.809  12.893  0.00  0.00    +0.000 A 
ATOM     11  C   UNL     1      48.348   7.229  14.103  0.00  0.00    +0.000 A 
ATOM     12  C   UNL     1      49.670   7.344  14.510  0.00  0.00    +0.000 A 
ATOM     13  N   UNL     1      50.618   7.988  13.804  0.00  0.00    +0.000 NA
ATOM     14  C   UNL     1      50.218   8.547  12.647  0.00  0.00    +0.000 A 
ATOM     15  F   UNL     1      51.144   9.181  11.915  0.00  0.00    +0.000 F 
ATOM     16  C   UNL     1      48.921   8.494  12.161  0.00  0.00    +0.000 A 
ENDBRANCH   8  10
ENDBRANCH   1   4
BRANCH   1  17
ATOM     17  C   UNL     1      43.231   4.421  11.061  0.00  0.00    +0.000 C 
BRANCH  17  18
ATOM     18  N   UNL     1      43.977   4.941   9.895  0.00  0.00    +0.000 N 
ATOM     19  H   UNL     1      44.534   5.761  10.129  0.00  0.00    +0.000 HD
BRANCH  18  23
ATOM     20  C   UNL     1      46.218   2.084   7.984  0.00  0.00    +0.000 A 
ATOM     21  C   UNL     1      46.346   3.421   7.649  0.00  0.00    +0.000 A 
ATOM     22  N   UNL     1      45.608   4.402   8.240  0.00  0.00    +0.000 NA
ATOM     23  C   UNL     1      44.724   4.002   9.179  0.00  0.00    +0.000 A 
ATOM     24  C   UNL     1      44.607   2.641   9.500  0.00  0.00    +0.000 A 
ATOM     25  N   UNL     1      45.330   1.650   8.917  0.00  0.00    +0.000 NA
BRANCH  20  27
ATOM     26  N   UNL     1      46.819  -0.236   7.653  0.00  0.00    +0.000 N 
ATOM     27  C   UNL     1      47.085   1.066   7.331  0.00  0.00    +0.000 C 
ATOM     28  O   UNL     1      47.983   1.370   6.554  0.00  0.00    +0.000 OA
ATOM     29  H   UNL     1      47.379  -0.976   7.252  0.00  0.00    +0.000 HD
ATOM     30  H   UNL     1      46.068  -0.456   8.298  0.00  0.00    +0.000 HD
ENDBRANCH  20  27
ENDBRANCH  18  23
ENDBRANCH  17  18
ENDBRANCH   1  17
TORSDOF 6
ENDMDL
MODEL 9
REMARK VINA RESULT:    -7.676      3.554      7.817
REMARK INTER + INTRA:         -11.243
REMARK INTER:                 -10.201
REMARK INTRA:                  -1.042
REMARK UNBOUND:                -0.875
REMARK  Name = 
REMARK  6 active torsions:
REMARK  status: ('A' for Active; 'I' for Inactive)
REMARK    1  A    between atoms: C_2  and  C_4
REMARK    2  A    between atoms: C_7  and  N_8
REMARK    3  A    between atoms: N_8  and  C_9
REMARK    4  A    between atoms: C_9  and  C_10
REMARK    5  A    between atoms: C_10  and  C_13
REMARK    6  A    between atoms: C_17  and  C_18
REMARK                            x       y       z     vdW  Elec       q    Type
REMARK                         _______ _______ _______ _____ _____    ______ ____
ROOT
ATOM      1  C   UNL     1      48.685   8.168  12.331  0.00  0.00    +0.000 C 
ATOM      2  F   UNL     1      49.106   9.277  11.642  0.00  0.00    +0.000 F 
ATOM      3  F   UNL     1      49.527   7.167  11.933  0.00  0.00    +0.000 F 
ENDROOT
BRANCH   1   4
ATOM      4  C   UNL     1      47.237   7.837  12.030  0.00  0.00    +0.000 A 
ATOM      5  C   UNL     1      46.219   8.746  12.340  0.00  0.00    +0.000 A 
ATOM      6  C   UNL     1      44.893   8.437  12.051  0.00  0.00    +0.000 A 
ATOM      7  C   UNL     1      44.575   7.222  11.438  0.00  0.00    +0.000 A 
ATOM      8  C   UNL     1      45.569   6.291  11.090  0.00  0.00    +0.000 A 
ATOM      9  C   UNL     1      46.899   6.619  11.414  0.00  0.00    +0.000 A 
BRANCH   8  10
ATOM     10  C   UNL     1      45.243   5.039  10.370  0.00  0.00    +0.000 A 
ATOM     11  C   UNL     1      44.527   4.007  10.995  0.00  0.00    +0.000 A 
ATOM     12  C   UNL     1      44.195   2.869  10.273  0.00  0.00    +0.000 A 
ATOM     13  N   UNL     1      44.515   2.681   8.979  0.00  0.00    +0.000 NA
ATOM     14  C   UNL     1      45.207   3.674   8.391  0.00  0.00    +0.000 A 
ATOM     15  F   UNL     1      45.526   3.522   7.098  0.00  0.00    +0.000 F 
ATOM     16  C   UNL     1      45.593   4.842   9.028  0.00  0.00    +0.000 A 
ENDBRANCH   8  10
ENDBRANCH   1   4
BRANCH   1  17
ATOM     17  C   UNL     1      48.909   8.441  13.842  0.00  0.00    +0.000 C 
BRANCH  17  18
ATOM     18  N   UNL     1      49.792   7.425  14.453  0.00  0.00    +0.000 N 
ATOM     19  H   UNL     1      50.600   7.842  14.911  0.00  0.00    +0.000 HD
BRANCH  18  23
ATOM     20  C   UNL     1      48.150   4.591  16.926  0.00  0.00    +0.000 A 
ATOM     21  C   UNL     1      47.603   4.842  15.678  0.00  0.00    +0.000 A 
ATOM     22  N   UNL     1      48.100   5.787  14.833  0.00  0.00    +0.000 NA
ATOM     23  C   UNL     1      49.166   6.487  15.278  0.00  0.00    +0.000 A 
ATOM     24  C   UNL     1      49.701   6.221  16.548  0.00  0.00    +0.000 A 
ATOM     25  N   UNL     1      49.214   5.286  17.405  0.00  0.00    +0.000 NA
BRANCH  20  27
ATOM     26  N   UNL     1      48.283   3.239  18.928  0.00  0.00    +0.000 N 
ATOM     27  C   UNL     1      47.586   3.515  17.784  0.00  0.00    +0.000 C 
ATOM     28  O   UNL     1      46.562   2.909  17.489  0.00  0.00    +0.000 OA
ATOM     29  H   UNL     1      47.959   2.511  19.549  0.00  0.00    +0.000 HD
ATOM     30  H   UNL     1      49.127   3.759  19.145  0.00  0.00    +0.000 HD
ENDBRANCH  20  27
ENDBRANCH  18  23
ENDBRANCH  17  18
ENDBRANCH   1  17
TORSDOF 6
ENDMDL
