MODEL 1
REMARK VINA RESULT:    -9.543      0.000      0.000
REMARK INTER + INTRA:         -13.936
REMARK INTER:                 -12.890
REMARK INTRA:                  -1.045
REMARK UNBOUND:                -1.045
REMARK  Name = 
REMARK  6 active torsions:
REMARK  status: ('A' for Active; 'I' for Inactive)
REMARK    1  A    between atoms: C_2  and  C_4
REMARK    2  A    between atoms: C_7  and  O_8
REMARK    3  A    between atoms: O_8  and  C_9
REMARK    4  A    between atoms: C_9  and  C_10
REMARK    5  A    between atoms: C_10  and  C_13
REMARK    6  A    between atoms: C_17  and  C_18
REMARK                            x       y       z     vdW  Elec       q    Type
REMARK                         _______ _______ _______ _____ _____    ______ ____
ROOT
ATOM      1  C   UNL     1      43.520   5.286  12.158  0.00  0.00    +0.000 C 
ATOM      2  F   UNL     1      43.045   6.465  11.657  0.00  0.00    +0.000 F 
ATOM      3  F   UNL     1      42.725   4.997  13.229  0.00  0.00    +0.000 F 
ENDROOT
BRANCH   1   4
ATOM      4  C   UNL     1      44.986   5.391  12.544  0.00  0.00    +0.000 A 
ATOM      5  C   UNL     1      45.851   6.247  11.849  0.00  0.00    +0.000 A 
ATOM      6  C   UNL     1      47.169   6.402  12.269  0.00  0.00    +0.000 A 
ATOM      7  C   UNL     1      47.629   5.717  13.397  0.00  0.00    +0.000 A 
ATOM      8  C   UNL     1      46.794   4.853  14.126  0.00  0.00    +0.000 A 
ATOM      9  C   UNL     1      45.472   4.694  13.666  0.00  0.00    +0.000 A 
BRANCH   8  10
ATOM     10  C   UNL     1      47.273   4.199  15.362  0.00  0.00    +0.000 A 
ATOM     11  C   UNL     1      47.186   4.791  16.622  0.00  0.00    +0.000 A 
ATOM     12  C   UNL     1      47.728   4.134  17.725  0.00  0.00    +0.000 A 
ATOM     13  C   UNL     1      48.341   2.901  17.550  0.00  0.00    +0.000 A 
ATOM     14  C   UNL     1      48.375   2.369  16.275  0.00  0.00    +0.000 A 
ATOM     15  N   UNL     1      47.856   2.983  15.190  0.00  0.00    +0.000 NA
ENDBRANCH   8  10
ENDBRANCH   1   4
BRANCH   1  16
ATOM     16  C   UNL     1      43.352   4.189  11.097  0.00  0.00    +0.000 C 
BRANCH  16  17
ATOM     17  O   UNL     1      43.596   4.690   9.770  0.00  0.00    +0.000 OA
BRANCH  17  21
ATOM     18  C   UNL     1      46.330   2.332   7.784  0.00  0.00    +0.000 A 
ATOM     19  C   UNL     1      45.479   1.755   8.728  0.00  0.00    +0.000 A 
ATOM     20  C   UNL     1      44.555   2.563   9.397  0.00  0.00    +0.000 A 
ATOM     21  C   UNL     1      44.518   3.916   9.095  0.00  0.00    +0.000 A 
ATOM     22  N   UNL     1      45.334   4.498   8.189  0.00  0.00    +0.000 NA
ATOM     23  C   UNL     1      46.228   3.698   7.563  0.00  0.00    +0.000 A 
BRANCH  18  25
ATOM     24  N   UNL     1      48.442   2.262   6.584  0.00  0.00    +0.000 N 
ATOM     25  C   UNL     1      47.347   1.575   7.026  0.00  0.00    +0.000 C 
ATOM     26  O   UNL     1      47.237   0.372   6.836  0.00  0.00    +0.000 OA
ATOM     27  H   UNL     1      49.179   1.704   6.171  0.00  0.00    +0.000 HD
ATOM     28  H   UNL     1      48.694   3.173   6.940  0.00  0.00    +0.000 HD
ENDBRANCH  18  25
ENDBRANCH  17  21
ENDBRANCH  16  17
ENDBRANCH   1  16
TORSDOF 6
ENDMDL
MODEL 2
REMARK VINA RESULT:    -9.400      1.066      1.301
REMARK INTER + INTRA:         -13.743
REMARK INTER:                 -12.575
REMARK INTRA:                  -1.168
REMARK UNBOUND:                -1.045
REMARK  Name = 
REMARK  6 active torsions:
REMARK  status: ('A' for Active; 'I' for Inactive)
REMARK    1  A    between atoms: C_2  and  C_4
REMARK    2  A    between atoms: C_7  and  O_8
REMARK    3  A    between atoms: O_8  and  C_9
REMARK    4  A    between atoms: C_9  and  C_10
REMARK    5  A    between atoms: C_10  and  C_13
REMARK    6  A    between atoms: C_17  and  C_18
REMARK                            x       y       z     vdW  Elec       q    Type
REMARK                         _______ _______ _______ _____ _____    ______ ____
ROOT
ATOM      1  C   UNL     1      43.606   4.729  12.180  0.00  0.00    +0.000 C 
ATOM      2  F   UNL     1      42.696   5.661  12.593  0.00  0.00    +0.000 F 
ATOM      3  F   UNL     1      43.258   3.573  12.817  0.00  0.00    +0.000 F 
ENDROOT
BRANCH   1   4
ATOM      4  C   UNL     1      45.029   5.155  12.500  0.00  0.00    +0.000 A 
ATOM      5  C   UNL     1      45.685   6.111  11.714  0.00  0.00    +0.000 A 
ATOM      6  C   UNL     1      46.955   6.559  12.070  0.00  0.00    +0.000 A 
ATOM      7  C   UNL     1      47.571   6.067  13.224  0.00  0.00    +0.000 A 
ATOM      8  C   UNL     1      46.946   5.111  14.044  0.00  0.00    +0.000 A 
ATOM      9  C   UNL     1      45.674   4.656  13.648  0.00  0.00    +0.000 A 
BRANCH   8  10
ATOM     10  C   UNL     1      47.579   4.662  15.302  0.00  0.00    +0.000 A 
ATOM     11  C   UNL     1      48.263   5.522  16.162  0.00  0.00    +0.000 A 
ATOM     12  C   UNL     1      48.891   5.002  17.292  0.00  0.00    +0.000 A 
ATOM     13  C   UNL     1      48.820   3.639  17.543  0.00  0.00    +0.000 A 
ATOM     14  C   UNL     1      48.111   2.852  16.656  0.00  0.00    +0.000 A 
ATOM     15  N   UNL     1      47.491   3.330  15.556  0.00  0.00    +0.000 NA
ENDBRANCH   8  10
ENDBRANCH   1   4
BRANCH   1  16
ATOM     16  C   UNL     1      43.464   4.530  10.665  0.00  0.00    +0.000 C 
BRANCH  16  17
ATOM     17  O   UNL     1      43.573   3.143  10.297  0.00  0.00    +0.000 OA
BRANCH  17  21
ATOM     18  C   UNL     1      46.512   2.602   7.461  0.00  0.00    +0.000 A 
ATOM     19  C   UNL     1      45.984   3.876   7.671  0.00  0.00    +0.000 A 
ATOM     20  C   UNL     1      44.986   4.050   8.635  0.00  0.00    +0.000 A 
ATOM     21  C   UNL     1      44.558   2.943   9.351  0.00  0.00    +0.000 A 
ATOM     22  N   UNL     1      45.051   1.699   9.163  0.00  0.00    +0.000 NA
ATOM     23  C   UNL     1      46.007   1.553   8.216  0.00  0.00    +0.000 A 
BRANCH  18  25
ATOM     24  N   UNL     1      47.671   3.146   5.395  0.00  0.00    +0.000 N 
ATOM     25  C   UNL     1      47.561   2.303   6.464  0.00  0.00    +0.000 C 
ATOM     26  O   UNL     1      48.331   1.363   6.610  0.00  0.00    +0.000 OA
ATOM     27  H   UNL     1      48.468   2.992   4.789  0.00  0.00    +0.000 HD
ATOM     28  H   UNL     1      47.243   4.061   5.376  0.00  0.00    +0.000 HD
ENDBRANCH  18  25
ENDBRANCH  17  21
ENDBRANCH  16  17
ENDBRANCH   1  16
TORSDOF 6
ENDMDL
MODEL 3
REMARK VINA RESULT:    -9.062      2.082      3.750
REMARK INTER + INTRA:         -13.286
REMARK INTER:                 -12.120
REMARK INTRA:                  -1.166
REMARK UNBOUND:                -1.045
REMARK  Name = 
REMARK  6 active torsions:
REMARK  status: ('A' for Active; 'I' for Inactive)
REMARK    1  A    between atoms: C_2  and  C_4
REMARK    2  A    between atoms: C_7  and  O_8
REMARK    3  A    between atoms: O_8  and  C_9
REMARK    4  A    between atoms: C_9  and  C_10
REMARK    5  A    between atoms: C_10  and  C_13
REMARK    6  A    between atoms: C_17  and  C_18
REMARK                            x       y       z     vdW  Elec       q    Type
REMARK                         _______ _______ _______ _____ _____    ______ ____
ROOT
ATOM      1  C   UNL     1      43.474   5.344  12.136  0.00  0.00    +0.000 C 
ATOM      2  F   UNL     1      43.031   6.512  11.580  0.00  0.00    +0.000 F 
ATOM      3  F   UNL     1      42.623   5.087  13.171  0.00  0.00    +0.000 F 
ENDROOT
BRANCH   1   4
ATOM      4  C   UNL     1      44.919   5.454  12.593  0.00  0.00    +0.000 A 
ATOM      5  C   UNL     1      45.543   4.392  13.259  0.00  0.00    +0.000 A 
ATOM      6  C   UNL     1      46.893   4.470  13.592  0.00  0.00    +0.000 A 
ATOM      7  C   UNL     1      47.634   5.604  13.247  0.00  0.00    +0.000 A 
ATOM      8  C   UNL     1      47.048   6.690  12.574  0.00  0.00    +0.000 A 
ATOM      9  C   UNL     1      45.676   6.597  12.271  0.00  0.00    +0.000 A 
BRANCH   8  10
ATOM     10  C   UNL     1      47.864   7.846  12.147  0.00  0.00    +0.000 A 
ATOM     11  C   UNL     1      49.224   7.751  11.845  0.00  0.00    +0.000 A 
ATOM     12  C   UNL     1      49.934   8.905  11.519  0.00  0.00    +0.000 A 
ATOM     13  C   UNL     1      49.275  10.126  11.496  0.00  0.00    +0.000 A 
ATOM     14  C   UNL     1      47.925  10.140  11.790  0.00  0.00    +0.000 A 
ATOM     15  N   UNL     1      47.212   9.038  12.106  0.00  0.00    +0.000 NA
ENDBRANCH   8  10
ENDBRANCH   1   4
BRANCH   1  16
ATOM     16  C   UNL     1      43.355   4.221  11.096  0.00  0.00    +0.000 C 
BRANCH  16  17
ATOM     17  O   UNL     1      43.570   4.708   9.759  0.00  0.00    +0.000 OA
BRANCH  17  21
ATOM     18  C   UNL     1      46.372   2.419   7.788  0.00  0.00    +0.000 A 
ATOM     19  C   UNL     1      45.514   1.816   8.709  0.00  0.00    +0.000 A 
ATOM     20  C   UNL     1      44.567   2.601   9.374  0.00  0.00    +0.000 A 
ATOM     21  C   UNL     1      44.514   3.957   9.090  0.00  0.00    +0.000 A 
ATOM     22  N   UNL     1      45.336   4.564   8.206  0.00  0.00    +0.000 NA
ATOM     23  C   UNL     1      46.253   3.786   7.584  0.00  0.00    +0.000 A 
BRANCH  18  25
ATOM     24  N   UNL     1      48.449   2.417   6.526  0.00  0.00    +0.000 N 
ATOM     25  C   UNL     1      47.413   1.688   7.037  0.00  0.00    +0.000 C 
ATOM     26  O   UNL     1      47.374   0.471   6.912  0.00  0.00    +0.000 OA
ATOM     27  H   UNL     1      49.208   1.885   6.119  0.00  0.00    +0.000 HD
ATOM     28  H   UNL     1      48.652   3.360   6.828  0.00  0.00    +0.000 HD
ENDBRANCH  18  25
ENDBRANCH  17  21
ENDBRANCH  16  17
ENDBRANCH   1  16
TORSDOF 6
ENDMDL
MODEL 4
REMARK VINA RESULT:    -8.443      1.712      2.152
REMARK INTER + INTRA:         -12.450
REMARK INTER:                 -11.267
REMARK INTRA:                  -1.182
REMARK UNBOUND:                -1.045
REMARK  Name = 
REMARK  6 active torsions:
REMARK  status: ('A' for Active; 'I' for Inactive)
REMARK    1  A    between atoms: C_2  and  C_4
REMARK    2  A    between atoms: C_7  and  O_8
REMARK    3  A    between atoms: O_8  and  C_9
REMARK    4  A    between atoms: C_9  and  C_10
REMARK    5  A    between atoms: C_10  and  C_13
REMARK    6  A    between atoms: C_17  and  C_18
REMARK                            x       y       z     vdW  Elec       q    Type
REMARK                         _______ _______ _______ _____ _____    ______ ____
ROOT
ATOM      1  C   UNL     1      44.020   4.378  12.368  0.00  0.00    +0.000 C 
ATOM      2  F   UNL     1      42.974   4.782  13.150  0.00  0.00    +0.000 F 
ATOM      3  F   UNL     1      44.380   3.151  12.845  0.00  0.00    +0.000 F 
ENDROOT
BRANCH   1   4
ATOM      4  C   UNL     1      45.169   5.372  12.412  0.00  0.00    +0.000 A 
ATOM      5  C   UNL     1      45.231   6.437  11.505  0.00  0.00    +0.000 A 
ATOM      6  C   UNL     1      46.240   7.391  11.613  0.00  0.00    +0.000 A 
ATOM      7  C   UNL     1      47.184   7.297  12.639  0.00  0.00    +0.000 A 
ATOM      8  C   UNL     1      47.155   6.248  13.574  0.00  0.00    +0.000 A 
ATOM      9  C   UNL     1      46.140   5.283  13.428  0.00  0.00    +0.000 A 
BRANCH   8  10
ATOM     10  C   UNL     1      48.112   6.209  14.699  0.00  0.00    +0.000 A 
ATOM     11  C   UNL     1      49.188   7.090  14.818  0.00  0.00    +0.000 A 
ATOM     12  C   UNL     1      50.084   6.937  15.874  0.00  0.00    +0.000 A 
ATOM     13  C   UNL     1      49.887   5.914  16.791  0.00  0.00    +0.000 A 
ATOM     14  C   UNL     1      48.790   5.091  16.619  0.00  0.00    +0.000 A 
ATOM     15  N   UNL     1      47.906   5.218  15.607  0.00  0.00    +0.000 NA
ENDBRANCH   8  10
ENDBRANCH   1   4
BRANCH   1  16
ATOM     16  C   UNL     1      43.532   4.231  10.920  0.00  0.00    +0.000 C 
BRANCH  16  17
ATOM     17  O   UNL     1      43.699   2.887  10.436  0.00  0.00    +0.000 OA
BRANCH  17  21
ATOM     18  C   UNL     1      46.430   2.767   7.352  0.00  0.00    +0.000 A 
ATOM     19  C   UNL     1      45.886   3.991   7.744  0.00  0.00    +0.000 A 
ATOM     20  C   UNL     1      44.960   4.022   8.791  0.00  0.00    +0.000 A 
ATOM     21  C   UNL     1      44.615   2.828   9.405  0.00  0.00    +0.000 A 
ATOM     22  N   UNL     1      45.124   1.630   9.040  0.00  0.00    +0.000 NA
ATOM     23  C   UNL     1      46.010   1.624   8.017  0.00  0.00    +0.000 A 
BRANCH  18  25
ATOM     24  N   UNL     1      48.622   2.075   6.565  0.00  0.00    +0.000 N 
ATOM     25  C   UNL     1      47.408   2.618   6.255  0.00  0.00    +0.000 C 
ATOM     26  O   UNL     1      47.129   2.928   5.105  0.00  0.00    +0.000 OA
ATOM     27  H   UNL     1      49.231   1.873   5.781  0.00  0.00    +0.000 HD
ATOM     28  H   UNL     1      48.791   1.571   7.425  0.00  0.00    +0.000 HD
ENDBRANCH  18  25
ENDBRANCH  17  21
ENDBRANCH  16  17
ENDBRANCH   1  16
TORSDOF 6
ENDMDL
MODEL 5
REMARK VINA RESULT:    -8.185      2.010      3.026
REMARK INTER + INTRA:         -12.102
REMARK INTER:                 -11.307
REMARK INTRA:                  -0.795
REMARK UNBOUND:                -1.045
REMARK  Name = 
REMARK  6 active torsions:
REMARK  status: ('A' for Active; 'I' for Inactive)
REMARK    1  A    between atoms: C_2  and  C_4
REMARK    2  A    between atoms: C_7  and  O_8
REMARK    3  A    between atoms: O_8  and  C_9
REMARK    4  A    between atoms: C_9  and  C_10
REMARK    5  A    between atoms: C_10  and  C_13
REMARK    6  A    between atoms: C_17  and  C_18
REMARK                            x       y       z     vdW  Elec       q    Type
REMARK                         _______ _______ _______ _____ _____    ______ ____
ROOT
ATOM      1  C   UNL     1      44.871   6.091  11.371  0.00  0.00    +0.000 C 
ATOM      2  F   UNL     1      45.603   6.405  10.261  0.00  0.00    +0.000 F 
ATOM      3  F   UNL     1      44.056   7.163  11.587  0.00  0.00    +0.000 F 
ENDROOT
BRANCH   1   4
ATOM      4  C   UNL     1      45.764   5.798  12.566  0.00  0.00    +0.000 A 
ATOM      5  C   UNL     1      45.518   4.693  13.391  0.00  0.00    +0.000 A 
ATOM      6  C   UNL     1      46.395   4.385  14.428  0.00  0.00    +0.000 A 
ATOM      7  C   UNL     1      47.534   5.167  14.637  0.00  0.00    +0.000 A 
ATOM      8  C   UNL     1      47.821   6.281  13.829  0.00  0.00    +0.000 A 
ATOM      9  C   UNL     1      46.906   6.587  12.803  0.00  0.00    +0.000 A 
BRANCH   8  10
ATOM     10  C   UNL     1      49.070   7.049  14.013  0.00  0.00    +0.000 A 
ATOM     11  C   UNL     1      49.558   7.953  13.068  0.00  0.00    +0.000 A 
ATOM     12  C   UNL     1      50.782   8.581  13.290  0.00  0.00    +0.000 A 
ATOM     13  C   UNL     1      51.491   8.300  14.450  0.00  0.00    +0.000 A 
ATOM     14  C   UNL     1      50.937   7.407  15.348  0.00  0.00    +0.000 A 
ATOM     15  N   UNL     1      49.753   6.786  15.159  0.00  0.00    +0.000 NA
ENDBRANCH   8  10
ENDBRANCH   1   4
BRANCH   1  16
ATOM     16  C   UNL     1      44.010   4.857  11.068  0.00  0.00    +0.000 C 
BRANCH  16  17
ATOM     17  O   UNL     1      43.704   4.753   9.666  0.00  0.00    +0.000 OA
BRANCH  17  21
ATOM     18  C   UNL     1      46.327   2.218   7.750  0.00  0.00    +0.000 A 
ATOM     19  C   UNL     1      45.516   1.725   8.772  0.00  0.00    +0.000 A 
ATOM     20  C   UNL     1      44.629   2.593   9.418  0.00  0.00    +0.000 A 
ATOM     21  C   UNL     1      44.589   3.918   9.013  0.00  0.00    +0.000 A 
ATOM     22  N   UNL     1      45.367   4.420   8.029  0.00  0.00    +0.000 NA
ATOM     23  C   UNL     1      46.226   3.564   7.427  0.00  0.00    +0.000 A 
BRANCH  18  25
ATOM     24  N   UNL     1      48.445   2.007   6.577  0.00  0.00    +0.000 N 
ATOM     25  C   UNL     1      47.303   1.394   7.008  0.00  0.00    +0.000 C 
ATOM     26  O   UNL     1      47.120   0.198   6.824  0.00  0.00    +0.000 OA
ATOM     27  H   UNL     1      49.151   1.400   6.177  0.00  0.00    +0.000 HD
ATOM     28  H   UNL     1      48.751   2.902   6.932  0.00  0.00    +0.000 HD
ENDBRANCH  18  25
ENDBRANCH  17  21
ENDBRANCH  16  17
ENDBRANCH   1  16
TORSDOF 6
ENDMDL
MODEL 6
REMARK VINA RESULT:    -8.131      1.225      1.691
REMARK INTER + INTRA:         -12.028
REMARK INTER:                 -11.102
REMARK INTRA:                  -0.926
REMARK UNBOUND:                -1.045
REMARK  Name = 
REMARK  6 active torsions:
REMARK  status: ('A' for Active; 'I' for Inactive)
REMARK    1  A    between atoms: C_2  and  C_4
REMARK    2  A    between atoms: C_7  and  O_8
REMARK    3  A    between atoms: O_8  and  C_9
REMARK    4  A    between atoms: C_9  and  C_10
REMARK    5  A    between atoms: C_10  and  C_13
REMARK    6  A    between atoms: C_17  and  C_18
REMARK                            x       y       z     vdW  Elec       q    Type
REMARK                         _______ _______ _______ _____ _____    ______ ____
ROOT
ATOM      1  C   UNL     1      45.158   6.327  11.601  0.00  0.00    +0.000 C 
ATOM      2  F   UNL     1      45.266   6.908  10.368  0.00  0.00    +0.000 F 
ATOM      3  F   UNL     1      44.146   6.991  12.231  0.00  0.00    +0.000 F 
ENDROOT
BRANCH   1   4
ATOM      4  C   UNL     1      46.465   6.405  12.373  0.00  0.00    +0.000 A 
ATOM      5  C   UNL     1      47.493   7.261  11.959  0.00  0.00    +0.000 A 
ATOM      6  C   UNL     1      48.648   7.390  12.725  0.00  0.00    +0.000 A 
ATOM      7  C   UNL     1      48.778   6.678  13.920  0.00  0.00    +0.000 A 
ATOM      8  C   UNL     1      47.769   5.811  14.375  0.00  0.00    +0.000 A 
ATOM      9  C   UNL     1      46.622   5.679  13.570  0.00  0.00    +0.000 A 
BRANCH   8  10
ATOM     10  C   UNL     1      47.889   5.128  15.680  0.00  0.00    +0.000 A 
ATOM     11  C   UNL     1      48.817   5.499  16.654  0.00  0.00    +0.000 A 
ATOM     12  C   UNL     1      48.910   4.754  17.828  0.00  0.00    +0.000 A 
ATOM     13  C   UNL     1      48.075   3.659  18.008  0.00  0.00    +0.000 A 
ATOM     14  C   UNL     1      47.171   3.362  17.007  0.00  0.00    +0.000 A 
ATOM     15  N   UNL     1      47.057   4.068  15.862  0.00  0.00    +0.000 NA
ENDBRANCH   8  10
ENDBRANCH   1   4
BRANCH   1  16
ATOM     16  C   UNL     1      44.761   4.855  11.425  0.00  0.00    +0.000 C 
BRANCH  16  17
ATOM     17  O   UNL     1      44.131   4.622  10.152  0.00  0.00    +0.000 OA
BRANCH  17  21
ATOM     18  C   UNL     1      46.534   2.404   7.645  0.00  0.00    +0.000 A 
ATOM     19  C   UNL     1      46.532   3.796   7.544  0.00  0.00    +0.000 A 
ATOM     20  C   UNL     1      45.712   4.540   8.398  0.00  0.00    +0.000 A 
ATOM     21  C   UNL     1      44.930   3.863   9.321  0.00  0.00    +0.000 A 
ATOM     22  N   UNL     1      44.912   2.517   9.434  0.00  0.00    +0.000 NA
ATOM     23  C   UNL     1      45.703   1.817   8.588  0.00  0.00    +0.000 A 
BRANCH  18  25
ATOM     24  N   UNL     1      48.457   2.066   6.198  0.00  0.00    +0.000 N 
ATOM     25  C   UNL     1      47.352   1.522   6.789  0.00  0.00    +0.000 C 
ATOM     26  O   UNL     1      47.079   0.338   6.647  0.00  0.00    +0.000 OA
ATOM     27  H   UNL     1      49.066   1.418   5.714  0.00  0.00    +0.000 HD
ATOM     28  H   UNL     1      48.857   2.945   6.496  0.00  0.00    +0.000 HD
ENDBRANCH  18  25
ENDBRANCH  17  21
ENDBRANCH  16  17
ENDBRANCH   1  16
TORSDOF 6
ENDMDL
MODEL 7
REMARK VINA RESULT:    -7.859      2.440      3.055
REMARK INTER + INTRA:         -11.660
REMARK INTER:                 -10.658
REMARK INTRA:                  -1.003
REMARK UNBOUND:                -1.045
REMARK  Name = 
REMARK  6 active torsions:
REMARK  status: ('A' for Active; 'I' for Inactive)
REMARK    1  A    between atoms: C_2  and  C_4
REMARK    2  A    between atoms: C_7  and  O_8
REMARK    3  A    between atoms: O_8  and  C_9
REMARK    4  A    between atoms: C_9  and  C_10
REMARK    5  A    between atoms: C_10  and  C_13
REMARK    6  A    between atoms: C_17  and  C_18
REMARK                            x       y       z     vdW  Elec       q    Type
REMARK                         _______ _______ _______ _____ _____    ______ ____
ROOT
ATOM      1  C   UNL     1      43.842   5.763  11.867  0.00  0.00    +0.000 C 
ATOM      2  F   UNL     1      42.849   6.001  10.958  0.00  0.00    +0.000 F 
ATOM      3  F   UNL     1      43.205   5.539  13.053  0.00  0.00    +0.000 F 
ENDROOT
BRANCH   1   4
ATOM      4  C   UNL     1      44.816   6.927  11.949  0.00  0.00    +0.000 A 
ATOM      5  C   UNL     1      44.453   8.200  11.494  0.00  0.00    +0.000 A 
ATOM      6  C   UNL     1      45.321   9.276  11.658  0.00  0.00    +0.000 A 
ATOM      7  C   UNL     1      46.552   9.092  12.294  0.00  0.00    +0.000 A 
ATOM      8  C   UNL     1      46.953   7.832  12.772  0.00  0.00    +0.000 A 
ATOM      9  C   UNL     1      46.069   6.755  12.571  0.00  0.00    +0.000 A 
BRANCH   8  10
ATOM     10  C   UNL     1      48.221   7.671  13.512  0.00  0.00    +0.000 A 
ATOM     11  C   UNL     1      48.319   6.974  14.718  0.00  0.00    +0.000 A 
ATOM     12  C   UNL     1      49.540   6.932  15.387  0.00  0.00    +0.000 A 
ATOM     13  C   UNL     1      50.639   7.581  14.840  0.00  0.00    +0.000 A 
ATOM     14  C   UNL     1      50.471   8.237  13.635  0.00  0.00    +0.000 A 
ATOM     15  N   UNL     1      49.300   8.291  12.965  0.00  0.00    +0.000 NA
ENDBRANCH   8  10
ENDBRANCH   1   4
BRANCH   1  16
ATOM     16  C   UNL     1      44.601   4.494  11.455  0.00  0.00    +0.000 C 
BRANCH  16  17
ATOM     17  O   UNL     1      43.949   3.812  10.370  0.00  0.00    +0.000 OA
BRANCH  17  21
ATOM     18  C   UNL     1      46.643   2.711   7.453  0.00  0.00    +0.000 A 
ATOM     19  C   UNL     1      46.329   4.060   7.627  0.00  0.00    +0.000 A 
ATOM     20  C   UNL     1      45.413   4.424   8.619  0.00  0.00    +0.000 A 
ATOM     21  C   UNL     1      44.849   3.425   9.398  0.00  0.00    +0.000 A 
ATOM     22  N   UNL     1      45.133   2.113   9.244  0.00  0.00    +0.000 NA
ATOM     23  C   UNL     1      46.013   1.784   8.270  0.00  0.00    +0.000 A 
BRANCH  18  25
ATOM     24  N   UNL     1      47.843   3.027   5.363  0.00  0.00    +0.000 N 
ATOM     25  C   UNL     1      47.588   2.215   6.432  0.00  0.00    +0.000 C 
ATOM     26  O   UNL     1      48.156   1.139   6.557  0.00  0.00    +0.000 OA
ATOM     27  H   UNL     1      48.579   2.720   4.739  0.00  0.00    +0.000 HD
ATOM     28  H   UNL     1      47.608   4.009   5.357  0.00  0.00    +0.000 HD
ENDBRANCH  18  25
ENDBRANCH  17  21
ENDBRANCH  16  17
ENDBRANCH   1  16
TORSDOF 6
ENDMDL
MODEL 8
REMARK VINA RESULT:    -7.855      2.476      7.103
REMARK INTER + INTRA:         -11.656
REMARK INTER:                 -10.377
REMARK INTRA:                  -1.279
REMARK UNBOUND:                -1.045
REMARK  Name = 
REMARK  6 active torsions:
REMARK  status: ('A' for Active; 'I' for Inactive)
REMARK    1  A    between atoms: C_2  and  C_4
REMARK    2  A    between atoms: C_7  and  O_8
REMARK    3  A    between atoms: O_8  and  C_9
REMARK    4  A    between atoms: C_9  and  C_10
REMARK    5  A    between atoms: C_10  and  C_13
REMARK    6  A    between atoms: C_17  and  C_18
REMARK                            x       y       z     vdW  Elec       q    Type
REMARK                         _______ _______ _______ _____ _____    ______ ____
ROOT
ATOM      1  C   UNL     1      44.513   6.581  11.425  0.00  0.00    +0.000 C 
ATOM      2  F   UNL     1      43.273   7.154  11.445  0.00  0.00    +0.000 F 
ATOM      3  F   UNL     1      45.237   7.308  10.524  0.00  0.00    +0.000 F 
ENDROOT
BRANCH   1   4
ATOM      4  C   UNL     1      44.445   5.109  11.052  0.00  0.00    +0.000 A 
ATOM      5  C   UNL     1      43.540   4.250  11.688  0.00  0.00    +0.000 A 
ATOM      6  C   UNL     1      43.425   2.925  11.275  0.00  0.00    +0.000 A 
ATOM      7  C   UNL     1      44.200   2.453  10.213  0.00  0.00    +0.000 A 
ATOM      8  C   UNL     1      45.117   3.283   9.544  0.00  0.00    +0.000 A 
ATOM      9  C   UNL     1      45.233   4.612   9.996  0.00  0.00    +0.000 A 
BRANCH   8  10
ATOM     10  C   UNL     1      45.870   2.791   8.372  0.00  0.00    +0.000 A 
ATOM     11  C   UNL     1      46.132   3.575   7.247  0.00  0.00    +0.000 A 
ATOM     12  C   UNL     1      46.787   3.009   6.156  0.00  0.00    +0.000 A 
ATOM     13  C   UNL     1      47.171   1.676   6.209  0.00  0.00    +0.000 A 
ATOM     14  C   UNL     1      46.893   0.966   7.361  0.00  0.00    +0.000 A 
ATOM     15  N   UNL     1      46.262   1.491   8.434  0.00  0.00    +0.000 NA
ENDBRANCH   8  10
ENDBRANCH   1   4
BRANCH   1  16
ATOM     16  C   UNL     1      45.151   6.724  12.814  0.00  0.00    +0.000 C 
BRANCH  16  17
ATOM     17  O   UNL     1      46.574   6.519  12.770  0.00  0.00    +0.000 OA
BRANCH  17  21
ATOM     18  C   UNL     1      47.785   3.757  15.578  0.00  0.00    +0.000 A 
ATOM     19  C   UNL     1      47.142   3.324  14.418  0.00  0.00    +0.000 A 
ATOM     20  C   UNL     1      46.734   4.268  13.471  0.00  0.00    +0.000 A 
ATOM     21  C   UNL     1      46.987   5.608  13.721  0.00  0.00    +0.000 A 
ATOM     22  N   UNL     1      47.604   6.052  14.838  0.00  0.00    +0.000 NA
ATOM     23  C   UNL     1      47.979   5.121  15.746  0.00  0.00    +0.000 A 
BRANCH  18  25
ATOM     24  N   UNL     1      49.029   1.790  16.276  0.00  0.00    +0.000 N 
ATOM     25  C   UNL     1      48.250   2.849  16.646  0.00  0.00    +0.000 C 
ATOM     26  O   UNL     1      47.985   3.058  17.822  0.00  0.00    +0.000 OA
ATOM     27  H   UNL     1      49.433   1.250  17.033  0.00  0.00    +0.000 HD
ATOM     28  H   UNL     1      49.481   1.735  15.374  0.00  0.00    +0.000 HD
ENDBRANCH  18  25
ENDBRANCH  17  21
ENDBRANCH  16  17
ENDBRANCH   1  16
TORSDOF 6
ENDMDL
MODEL 9
REMARK VINA RESULT:    -7.764      2.656      7.609
REMARK INTER + INTRA:         -11.532
REMARK INTER:                 -10.644
REMARK INTRA:                  -0.889
REMARK UNBOUND:                -1.045
REMARK  Name = 
REMARK  6 active torsions:
REMARK  status: ('A' for Active; 'I' for Inactive)
REMARK    1  A    between atoms: C_2  and  C_4
REMARK    2  A    between atoms: C_7  and  O_8
REMARK    3  A    between atoms: O_8  and  C_9
REMARK    4  A    between atoms: C_9  and  C_10
REMARK    5  A    between atoms: C_10  and  C_13
REMARK    6  A    between atoms: C_17  and  C_18
REMARK                            x       y       z     vdW  Elec       q    Type
REMARK                         _______ _______ _______ _____ _____    ______ ____
ROOT
ATOM      1  C   UNL     1      44.632   6.469  11.538  0.00  0.00    +0.000 C 
ATOM      2  F   UNL     1      43.404   7.054  11.676  0.00  0.00    +0.000 F 
ATOM      3  F   UNL     1      45.296   7.227  10.618  0.00  0.00    +0.000 F 
ENDROOT
BRANCH   1   4
ATOM      4  C   UNL     1      44.515   5.016  11.108  0.00  0.00    +0.000 A 
ATOM      5  C   UNL     1      43.581   4.164  11.709  0.00  0.00    +0.000 A 
ATOM      6  C   UNL     1      43.422   2.861  11.245  0.00  0.00    +0.000 A 
ATOM      7  C   UNL     1      44.183   2.405  10.166  0.00  0.00    +0.000 A 
ATOM      8  C   UNL     1      45.129   3.229   9.530  0.00  0.00    +0.000 A 
ATOM      9  C   UNL     1      45.288   4.534  10.034  0.00  0.00    +0.000 A 
BRANCH   8  10
ATOM     10  C   UNL     1      45.867   2.757   8.341  0.00  0.00    +0.000 A 
ATOM     11  C   UNL     1      46.096   3.554   7.218  0.00  0.00    +0.000 A 
ATOM     12  C   UNL     1      46.739   3.006   6.110  0.00  0.00    +0.000 A 
ATOM     13  C   UNL     1      47.146   1.679   6.146  0.00  0.00    +0.000 A 
ATOM     14  C   UNL     1      46.900   0.957   7.297  0.00  0.00    +0.000 A 
ATOM     15  N   UNL     1      46.281   1.463   8.385  0.00  0.00    +0.000 NA
ENDBRANCH   8  10
ENDBRANCH   1   4
BRANCH   1  16
ATOM     16  C   UNL     1      45.373   6.544  12.880  0.00  0.00    +0.000 C 
BRANCH  16  17
ATOM     17  O   UNL     1      46.681   5.950  12.799  0.00  0.00    +0.000 OA
BRANCH  17  21
ATOM     18  C   UNL     1      48.072   4.799  16.503  0.00  0.00    +0.000 A 
ATOM     19  C   UNL     1      48.567   5.962  15.913  0.00  0.00    +0.000 A 
ATOM     20  C   UNL     1      48.090   6.345  14.655  0.00  0.00    +0.000 A 
ATOM     21  C   UNL     1      47.136   5.549  14.039  0.00  0.00    +0.000 A 
ATOM     22  N   UNL     1      46.645   4.416  14.588  0.00  0.00    +0.000 NA
ATOM     23  C   UNL     1      47.131   4.060  15.801  0.00  0.00    +0.000 A 
BRANCH  18  25
ATOM     24  N   UNL     1      47.771   3.303  18.395  0.00  0.00    +0.000 N 
ATOM     25  C   UNL     1      48.511   4.298  17.821  0.00  0.00    +0.000 C 
ATOM     26  O   UNL     1      49.522   4.725  18.362  0.00  0.00    +0.000 OA
ATOM     27  H   UNL     1      48.155   2.895  19.238  0.00  0.00    +0.000 HD
ATOM     28  H   UNL     1      47.103   2.752  17.874  0.00  0.00    +0.000 HD
ENDBRANCH  18  25
ENDBRANCH  17  21
ENDBRANCH  16  17
ENDBRANCH   1  16
TORSDOF 6
ENDMDL
