MODEL 1
REMARK VINA RESULT:    -9.448      0.000      0.000
REMARK INTER + INTRA:         -12.500
REMARK INTER:                 -12.210
REMARK INTRA:                  -0.290
REMARK UNBOUND:                -0.290
REMARK  Name = 
REMARK  5 active torsions:
REMARK  status: ('A' for Active; 'I' for Inactive)
REMARK    1  A    between atoms: C_2  and  C_4
REMARK    2  A    between atoms: N_8  and  C_9
REMARK    3  A    between atoms: C_9  and  C_10
REMARK    4  A    between atoms: C_12  and  C_13
REMARK    5  A    between atoms: C_17  and  C_18
REMARK                            x       y       z     vdW  Elec       q    Type
REMARK                         _______ _______ _______ _____ _____    ______ ____
ROOT
ATOM      1  C   UNL     1      43.973   4.737  11.705  0.00  0.00    +0.000 C 
ATOM      2  C   UNL     1      42.762   4.887  12.610  0.00  0.00    +0.000 C 
ATOM      3  C   UNL     1      42.736   5.533  11.265  0.00  0.00    +0.000 C 
ENDROOT
BRANCH   1   8
ATOM      4  C   UNL     1      46.462   2.723   7.511  0.00  0.00    +0.000 A 
ATOM      5  C   UNL     1      46.210   4.060   7.814  0.00  0.00    +0.000 A 
ATOM      6  C   UNL     1      45.479   4.382   8.966  0.00  0.00    +0.000 A 
ATOM      7  C   UNL     1      45.010   3.365   9.783  0.00  0.00    +0.000 A 
ATOM      8  N   UNL     1      44.203   3.534  10.900  0.00  0.00    +0.000 N 
ATOM      9  N   UNL     1      45.254   2.063   9.499  0.00  0.00    +0.000 NA
ATOM     10  C   UNL     1      45.959   1.768   8.377  0.00  0.00    +0.000 A 
ATOM     11  H   UNL     1      44.100   2.621  11.331  0.00  0.00    +0.000 HD
BRANCH   4  13
ATOM     12  N   UNL     1      47.130   3.040   5.195  0.00  0.00    +0.000 N 
ATOM     13  C   UNL     1      47.204   2.265   6.322  0.00  0.00    +0.000 C 
ATOM     14  O   UNL     1      47.890   1.249   6.338  0.00  0.00    +0.000 OA
ATOM     15  H   UNL     1      47.734   2.772   4.431  0.00  0.00    +0.000 HD
ATOM     16  H   UNL     1      46.797   3.990   5.216  0.00  0.00    +0.000 HD
ENDBRANCH   4  13
ENDBRANCH   1   8
BRANCH   1  17
ATOM     17  C   UNL     1      45.194   5.580  12.101  0.00  0.00    +0.000 A 
ATOM     18  C   UNL     1      45.815   5.391  13.337  0.00  0.00    +0.000 A 
ATOM     19  C   UNL     1      47.074   5.948  13.595  0.00  0.00    +0.000 A 
ATOM     20  C   UNL     1      47.647   6.734  12.589  0.00  0.00    +0.000 A 
ATOM     21  C   UNL     1      46.947   6.940  11.416  0.00  0.00    +0.000 A 
ATOM     22  N   UNL     1      45.745   6.393  11.159  0.00  0.00    +0.000 NA
BRANCH  19  23
ATOM     23  C   UNL     1      47.787   5.673  14.857  0.00  0.00    +0.000 A 
ATOM     24  C   UNL     1      48.699   6.594  15.396  0.00  0.00    +0.000 A 
ATOM     25  C   UNL     1      49.373   6.335  16.591  0.00  0.00    +0.000 A 
ATOM     26  C   UNL     1      49.152   5.139  17.274  0.00  0.00    +0.000 A 
ATOM     27  C   UNL     1      48.254   4.194  16.762  0.00  0.00    +0.000 A 
ATOM     28  C   UNL     1      47.584   4.471  15.558  0.00  0.00    +0.000 A 
BRANCH  27  29
ATOM     29  C   UNL     1      47.987   2.893  17.478  0.00  0.00    +0.000 C 
ATOM     30  F   UNL     1      46.665   2.587  17.581  0.00  0.00    +0.000 F 
ATOM     31  F   UNL     1      48.570   1.831  16.855  0.00  0.00    +0.000 F 
ATOM     32  F   UNL     1      48.472   2.893  18.750  0.00  0.00    +0.000 F 
ENDBRANCH  27  29
ENDBRANCH  19  23
ENDBRANCH   1  17
TORSDOF 5
ENDMDL
MODEL 2
REMARK VINA RESULT:    -9.085      3.479      4.622
REMARK INTER + INTRA:         -12.031
REMARK INTER:                 -11.479
REMARK INTRA:                  -0.552
REMARK UNBOUND:                -0.290
REMARK  Name = 
REMARK  5 active torsions:
REMARK  status: ('A' for Active; 'I' for Inactive)
REMARK    1  A    between atoms: C_2  and  C_4
REMARK    2  A    between atoms: N_8  and  C_9
REMARK    3  A    between atoms: C_9  and  C_10
REMARK    4  A    between atoms: C_12  and  C_13
REMARK    5  A    between atoms: C_17  and  C_18
REMARK                            x       y       z     vdW  Elec       q    Type
REMARK                         _______ _______ _______ _____ _____    ______ ____
ROOT
ATOM      1  C   UNL     1      44.028   4.470  11.675  0.00  0.00    +0.000 C 
ATOM      2  C   UNL     1      42.725   4.822  12.373  0.00  0.00    +0.000 C 
ATOM      3  C   UNL     1      43.144   5.627  11.189  0.00  0.00    +0.000 C 
ENDROOT
BRANCH   1   8
ATOM      4  C   UNL     1      46.489   2.674   7.368  0.00  0.00    +0.000 A 
ATOM      5  C   UNL     1      46.434   3.977   7.857  0.00  0.00    +0.000 A 
ATOM      6  C   UNL     1      45.673   4.254   9.002  0.00  0.00    +0.000 A 
ATOM      7  C   UNL     1      44.982   3.226   9.626  0.00  0.00    +0.000 A 
ATOM      8  N   UNL     1      44.125   3.372  10.709  0.00  0.00    +0.000 N 
ATOM      9  N   UNL     1      45.035   1.956   9.160  0.00  0.00    +0.000 NA
ATOM     10  C   UNL     1      45.771   1.706   8.048  0.00  0.00    +0.000 A 
ATOM     11  H   UNL     1      43.842   2.438  10.989  0.00  0.00    +0.000 HD
BRANCH   4  13
ATOM     12  N   UNL     1      47.139   3.066   5.057  0.00  0.00    +0.000 N 
ATOM     13  C   UNL     1      47.242   2.268   6.166  0.00  0.00    +0.000 C 
ATOM     14  O   UNL     1      47.960   1.275   6.155  0.00  0.00    +0.000 OA
ATOM     15  H   UNL     1      47.748   2.837   4.286  0.00  0.00    +0.000 HD
ATOM     16  H   UNL     1      46.774   4.005   5.102  0.00  0.00    +0.000 HD
ENDBRANCH   4  13
ENDBRANCH   1   8
BRANCH   1  17
ATOM     17  C   UNL     1      45.304   4.882  12.423  0.00  0.00    +0.000 A 
ATOM     18  C   UNL     1      46.096   5.930  11.950  0.00  0.00    +0.000 A 
ATOM     19  C   UNL     1      47.095   6.489  12.758  0.00  0.00    +0.000 A 
ATOM     20  C   UNL     1      47.293   5.921  14.021  0.00  0.00    +0.000 A 
ATOM     21  C   UNL     1      46.523   4.839  14.400  0.00  0.00    +0.000 A 
ATOM     22  N   UNL     1      45.552   4.311  13.634  0.00  0.00    +0.000 NA
BRANCH  19  23
ATOM     23  C   UNL     1      47.870   7.662  12.310  0.00  0.00    +0.000 A 
ATOM     24  C   UNL     1      47.295   8.941  12.261  0.00  0.00    +0.000 A 
ATOM     25  C   UNL     1      48.028  10.053  11.839  0.00  0.00    +0.000 A 
ATOM     26  C   UNL     1      49.359   9.905  11.450  0.00  0.00    +0.000 A 
ATOM     27  C   UNL     1      49.964   8.642  11.480  0.00  0.00    +0.000 A 
ATOM     28  C   UNL     1      49.211   7.535  11.907  0.00  0.00    +0.000 A 
BRANCH  27  29
ATOM     29  C   UNL     1      51.403   8.449  11.071  0.00  0.00    +0.000 C 
ATOM     30  F   UNL     1      51.903   9.476  10.330  0.00  0.00    +0.000 F 
ATOM     31  F   UNL     1      52.233   8.322  12.143  0.00  0.00    +0.000 F 
ATOM     32  F   UNL     1      51.582   7.325  10.324  0.00  0.00    +0.000 F 
ENDBRANCH  27  29
ENDBRANCH  19  23
ENDBRANCH   1  17
TORSDOF 5
ENDMDL
MODEL 3
REMARK VINA RESULT:    -8.892      4.801      8.227
REMARK INTER + INTRA:         -11.780
REMARK INTER:                 -10.884
REMARK INTRA:                  -0.896
REMARK UNBOUND:                -0.290
REMARK  Name = 
REMARK  5 active torsions:
REMARK  status: ('A' for Active; 'I' for Inactive)
REMARK    1  A    between atoms: C_2  and  C_4
REMARK    2  A    between atoms: N_8  and  C_9
REMARK    3  A    between atoms: C_9  and  C_10
REMARK    4  A    between atoms: C_12  and  C_13
REMARK    5  A    between atoms: C_17  and  C_18
REMARK                            x       y       z     vdW  Elec       q    Type
REMARK                         _______ _______ _______ _____ _____    ______ ____
ROOT
ATOM      1  C   UNL     1      47.916   7.844  12.419  0.00  0.00    +0.000 C 
ATOM      2  C   UNL     1      49.048   7.975  11.415  0.00  0.00    +0.000 C 
ATOM      3  C   UNL     1      48.405   9.216  11.935  0.00  0.00    +0.000 C 
ENDROOT
BRANCH   1   8
ATOM      4  C   UNL     1      47.716   4.334  16.354  0.00  0.00    +0.000 A 
ATOM      5  C   UNL     1      47.071   4.294  15.119  0.00  0.00    +0.000 A 
ATOM      6  C   UNL     1      47.218   5.365  14.226  0.00  0.00    +0.000 A 
ATOM      7  C   UNL     1      47.998   6.452  14.590  0.00  0.00    +0.000 A 
ATOM      8  N   UNL     1      48.160   7.614  13.846  0.00  0.00    +0.000 N 
ATOM      9  N   UNL     1      48.633   6.497  15.786  0.00  0.00    +0.000 NA
ATOM     10  C   UNL     1      48.475   5.455  16.640  0.00  0.00    +0.000 A 
ATOM     11  H   UNL     1      48.849   8.181  14.329  0.00  0.00    +0.000 HD
BRANCH   4  13
ATOM     12  N   UNL     1      48.765   2.948  18.055  0.00  0.00    +0.000 N 
ATOM     13  C   UNL     1      47.621   3.275  17.376  0.00  0.00    +0.000 C 
ATOM     14  O   UNL     1      46.559   2.724  17.640  0.00  0.00    +0.000 OA
ATOM     15  H   UNL     1      48.656   2.306  18.826  0.00  0.00    +0.000 HD
ATOM     16  H   UNL     1      49.581   3.539  18.050  0.00  0.00    +0.000 HD
ENDBRANCH   4  13
ENDBRANCH   1   8
BRANCH   1  17
ATOM     17  C   UNL     1      46.574   7.377  11.836  0.00  0.00    +0.000 A 
ATOM     18  C   UNL     1      46.519   6.279  10.977  0.00  0.00    +0.000 A 
ATOM     19  C   UNL     1      45.291   5.682  10.661  0.00  0.00    +0.000 A 
ATOM     20  C   UNL     1      44.137   6.262  11.199  0.00  0.00    +0.000 A 
ATOM     21  C   UNL     1      44.257   7.392  11.984  0.00  0.00    +0.000 A 
ATOM     22  N   UNL     1      45.435   7.958  12.302  0.00  0.00    +0.000 NA
BRANCH  19  23
ATOM     23  C   UNL     1      45.226   4.459   9.837  0.00  0.00    +0.000 A 
ATOM     24  C   UNL     1      44.423   3.370  10.210  0.00  0.00    +0.000 A 
ATOM     25  C   UNL     1      44.360   2.213   9.430  0.00  0.00    +0.000 A 
ATOM     26  C   UNL     1      45.107   2.119   8.257  0.00  0.00    +0.000 A 
ATOM     27  C   UNL     1      45.925   3.184   7.858  0.00  0.00    +0.000 A 
ATOM     28  C   UNL     1      45.977   4.341   8.654  0.00  0.00    +0.000 A 
BRANCH  27  29
ATOM     29  C   UNL     1      46.742   3.117   6.591  0.00  0.00    +0.000 C 
ATOM     30  F   UNL     1      46.321   2.161   5.718  0.00  0.00    +0.000 F 
ATOM     31  F   UNL     1      46.720   4.290   5.899  0.00  0.00    +0.000 F 
ATOM     32  F   UNL     1      48.054   2.851   6.835  0.00  0.00    +0.000 F 
ENDBRANCH  27  29
ENDBRANCH  19  23
ENDBRANCH   1  17
TORSDOF 5
ENDMDL
MODEL 4
REMARK VINA RESULT:    -8.761      4.803      8.167
REMARK INTER + INTRA:         -11.611
REMARK INTER:                 -10.808
REMARK INTRA:                  -0.803
REMARK UNBOUND:                -0.290
REMARK  Name = 
REMARK  5 active torsions:
REMARK  status: ('A' for Active; 'I' for Inactive)
REMARK    1  A    between atoms: C_2  and  C_4
REMARK    2  A    between atoms: N_8  and  C_9
REMARK    3  A    between atoms: C_9  and  C_10
REMARK    4  A    between atoms: C_12  and  C_13
REMARK    5  A    between atoms: C_17  and  C_18
REMARK                            x       y       z     vdW  Elec       q    Type
REMARK                         _______ _______ _______ _____ _____    ______ ____
ROOT
ATOM      1  C   UNL     1      48.762   7.958  13.013  0.00  0.00    +0.000 C 
ATOM      2  C   UNL     1      49.934   7.806  12.059  0.00  0.00    +0.000 C 
ATOM      3  C   UNL     1      49.609   9.165  12.583  0.00  0.00    +0.000 C 
ENDROOT
BRANCH   1   8
ATOM      4  C   UNL     1      47.841   4.383  16.783  0.00  0.00    +0.000 A 
ATOM      5  C   UNL     1      47.284   4.465  15.508  0.00  0.00    +0.000 A 
ATOM      6  C   UNL     1      47.629   5.536  14.671  0.00  0.00    +0.000 A 
ATOM      7  C   UNL     1      48.514   6.501  15.128  0.00  0.00    +0.000 A 
ATOM      8  N   UNL     1      48.874   7.654  14.443  0.00  0.00    +0.000 N 
ATOM      9  N   UNL     1      49.063   6.425  16.363  0.00  0.00    +0.000 NA
ATOM     10  C   UNL     1      48.715   5.386  17.162  0.00  0.00    +0.000 A 
ATOM     11  H   UNL     1      49.594   8.111  14.992  0.00  0.00    +0.000 HD
BRANCH   4  13
ATOM     12  N   UNL     1      48.348   3.216  18.855  0.00  0.00    +0.000 N 
ATOM     13  C   UNL     1      47.541   3.314  17.753  0.00  0.00    +0.000 C 
ATOM     14  O   UNL     1      46.589   2.555  17.608  0.00  0.00    +0.000 OA
ATOM     15  H   UNL     1      48.059   2.555  19.562  0.00  0.00    +0.000 HD
ATOM     16  H   UNL     1      48.967   3.960  19.137  0.00  0.00    +0.000 HD
ENDBRANCH   4  13
ENDBRANCH   1   8
BRANCH   1  17
ATOM     17  C   UNL     1      47.373   7.862  12.366  0.00  0.00    +0.000 A 
ATOM     18  C   UNL     1      47.000   6.719  11.656  0.00  0.00    +0.000 A 
ATOM     19  C   UNL     1      45.662   6.506  11.301  0.00  0.00    +0.000 A 
ATOM     20  C   UNL     1      44.740   7.502  11.641  0.00  0.00    +0.000 A 
ATOM     21  C   UNL     1      45.187   8.642  12.280  0.00  0.00    +0.000 A 
ATOM     22  N   UNL     1      46.468   8.842  12.637  0.00  0.00    +0.000 NA
BRANCH  19  23
ATOM     23  C   UNL     1      45.237   5.256  10.641  0.00  0.00    +0.000 A 
ATOM     24  C   UNL     1      44.226   4.450  11.187  0.00  0.00    +0.000 A 
ATOM     25  C   UNL     1      43.822   3.267  10.562  0.00  0.00    +0.000 A 
ATOM     26  C   UNL     1      44.429   2.862   9.375  0.00  0.00    +0.000 A 
ATOM     27  C   UNL     1      45.446   3.639   8.805  0.00  0.00    +0.000 A 
ATOM     28  C   UNL     1      45.840   4.825   9.446  0.00  0.00    +0.000 A 
BRANCH  27  29
ATOM     29  C   UNL     1      46.119   3.231   7.517  0.00  0.00    +0.000 C 
ATOM     30  F   UNL     1      46.777   2.043   7.596  0.00  0.00    +0.000 F 
ATOM     31  F   UNL     1      45.235   3.102   6.490  0.00  0.00    +0.000 F 
ATOM     32  F   UNL     1      47.041   4.144   7.104  0.00  0.00    +0.000 F 
ENDBRANCH  27  29
ENDBRANCH  19  23
ENDBRANCH   1  17
TORSDOF 5
ENDMDL
MODEL 5
REMARK VINA RESULT:    -8.161      5.642      8.782
REMARK INTER + INTRA:         -10.836
REMARK INTER:                 -10.220
REMARK INTRA:                  -0.615
REMARK UNBOUND:                -0.290
REMARK  Name = 
REMARK  5 active torsions:
REMARK  status: ('A' for Active; 'I' for Inactive)
REMARK    1  A    between atoms: C_2  and  C_4
REMARK    2  A    between atoms: N_8  and  C_9
REMARK    3  A    between atoms: C_9  and  C_10
REMARK    4  A    between atoms: C_12  and  C_13
REMARK    5  A    between atoms: C_17  and  C_18
REMARK                            x       y       z     vdW  Elec       q    Type
REMARK                         _______ _______ _______ _____ _____    ______ ____
ROOT
ATOM      1  C   UNL     1      48.082   3.746  16.730  0.00  0.00    +0.000 C 
ATOM      2  C   UNL     1      47.676   4.325  18.075  0.00  0.00    +0.000 C 
ATOM      3  C   UNL     1      46.774   3.333  17.421  0.00  0.00    +0.000 C 
ENDROOT
BRANCH   1   8
ATOM      4  C   UNL     1      52.876   2.000  18.075  0.00  0.00    +0.000 A 
ATOM      5  C   UNL     1      52.385   3.304  18.107  0.00  0.00    +0.000 A 
ATOM      6  C   UNL     1      51.084   3.564  17.653  0.00  0.00    +0.000 A 
ATOM      7  C   UNL     1      50.309   2.520  17.171  0.00  0.00    +0.000 A 
ATOM      8  N   UNL     1      49.044   2.647  16.611  0.00  0.00    +0.000 N 
ATOM      9  N   UNL     1      50.777   1.250  17.140  0.00  0.00    +0.000 NA
ATOM     10  C   UNL     1      52.039   1.016  17.578  0.00  0.00    +0.000 A 
ATOM     11  H   UNL     1      48.704   1.707  16.434  0.00  0.00    +0.000 HD
BRANCH   4  13
ATOM     12  N   UNL     1      55.287   2.066  17.769  0.00  0.00    +0.000 N 
ATOM     13  C   UNL     1      54.230   1.611  18.510  0.00  0.00    +0.000 C 
ATOM     14  O   UNL     1      54.417   0.932  19.514  0.00  0.00    +0.000 OA
ATOM     15  H   UNL     1      56.206   1.885  18.146  0.00  0.00    +0.000 HD
ATOM     16  H   UNL     1      55.195   2.818  17.104  0.00  0.00    +0.000 HD
ENDBRANCH   4  13
ENDBRANCH   1   8
BRANCH   1  17
ATOM     17  C   UNL     1      47.926   4.696  15.534  0.00  0.00    +0.000 A 
ATOM     18  C   UNL     1      46.950   4.461  14.565  0.00  0.00    +0.000 A 
ATOM     19  C   UNL     1      46.618   5.451  13.631  0.00  0.00    +0.000 A 
ATOM     20  C   UNL     1      47.337   6.650  13.684  0.00  0.00    +0.000 A 
ATOM     21  C   UNL     1      48.341   6.792  14.623  0.00  0.00    +0.000 A 
ATOM     22  N   UNL     1      48.650   5.849  15.531  0.00  0.00    +0.000 NA
BRANCH  19  23
ATOM     23  C   UNL     1      45.519   5.255  12.667  0.00  0.00    +0.000 A 
ATOM     24  C   UNL     1      44.181   5.474  13.031  0.00  0.00    +0.000 A 
ATOM     25  C   UNL     1      43.140   5.289  12.118  0.00  0.00    +0.000 A 
ATOM     26  C   UNL     1      43.417   4.873  10.817  0.00  0.00    +0.000 A 
ATOM     27  C   UNL     1      44.739   4.639  10.421  0.00  0.00    +0.000 A 
ATOM     28  C   UNL     1      45.775   4.829  11.351  0.00  0.00    +0.000 A 
BRANCH  27  29
ATOM     29  C   UNL     1      45.074   4.194   9.018  0.00  0.00    +0.000 C 
ATOM     30  F   UNL     1      44.020   4.253   8.159  0.00  0.00    +0.000 F 
ATOM     31  F   UNL     1      46.057   4.950   8.456  0.00  0.00    +0.000 F 
ATOM     32  F   UNL     1      45.521   2.908   8.976  0.00  0.00    +0.000 F 
ENDBRANCH  27  29
ENDBRANCH  19  23
ENDBRANCH   1  17
TORSDOF 5
ENDMDL
MODEL 6
REMARK VINA RESULT:    -7.502      5.472      8.642
REMARK INTER + INTRA:          -9.984
REMARK INTER:                  -9.219
REMARK INTRA:                  -0.765
REMARK UNBOUND:                -0.290
REMARK  Name = 
REMARK  5 active torsions:
REMARK  status: ('A' for Active; 'I' for Inactive)
REMARK    1  A    between atoms: C_2  and  C_4
REMARK    2  A    between atoms: N_8  and  C_9
REMARK    3  A    between atoms: C_9  and  C_10
REMARK    4  A    between atoms: C_12  and  C_13
REMARK    5  A    between atoms: C_17  and  C_18
REMARK                            x       y       z     vdW  Elec       q    Type
REMARK                         _______ _______ _______ _____ _____    ______ ____
ROOT
ATOM      1  C   UNL     1      48.506   3.727  17.119  0.00  0.00    +0.000 C 
ATOM      2  C   UNL     1      48.047   4.206  18.486  0.00  0.00    +0.000 C 
ATOM      3  C   UNL     1      47.126   3.354  17.679  0.00  0.00    +0.000 C 
ENDROOT
BRANCH   1   8
ATOM      4  C   UNL     1      53.306   1.758  18.081  0.00  0.00    +0.000 A 
ATOM      5  C   UNL     1      52.890   3.088  18.109  0.00  0.00    +0.000 A 
ATOM      6  C   UNL     1      51.568   3.406  17.768  0.00  0.00    +0.000 A 
ATOM      7  C   UNL     1      50.697   2.393  17.398  0.00  0.00    +0.000 A 
ATOM      8  N   UNL     1      49.393   2.572  16.953  0.00  0.00    +0.000 N 
ATOM      9  N   UNL     1      51.092   1.098  17.372  0.00  0.00    +0.000 NA
ATOM     10  C   UNL     1      52.376   0.808  17.701  0.00  0.00    +0.000 A 
ATOM     11  H   UNL     1      48.989   1.647  16.843  0.00  0.00    +0.000 HD
BRANCH   4  13
ATOM     12  N   UNL     1      54.857   0.651  19.591  0.00  0.00    +0.000 N 
ATOM     13  C   UNL     1      54.673   1.308  18.404  0.00  0.00    +0.000 C 
ATOM     14  O   UNL     1      55.610   1.480  17.633  0.00  0.00    +0.000 OA
ATOM     15  H   UNL     1      55.772   0.252  19.741  0.00  0.00    +0.000 HD
ATOM     16  H   UNL     1      54.089   0.272  20.121  0.00  0.00    +0.000 HD
ENDBRANCH   4  13
ENDBRANCH   1   8
BRANCH   1  17
ATOM     17  C   UNL     1      48.504   4.795  16.016  0.00  0.00    +0.000 A 
ATOM     18  C   UNL     1      47.568   4.745  14.982  0.00  0.00    +0.000 A 
ATOM     19  C   UNL     1      47.381   5.846  14.136  0.00  0.00    +0.000 A 
ATOM     20  C   UNL     1      48.201   6.960  14.341  0.00  0.00    +0.000 A 
ATOM     21  C   UNL     1      49.158   6.917  15.336  0.00  0.00    +0.000 A 
ATOM     22  N   UNL     1      49.328   5.868  16.161  0.00  0.00    +0.000 NA
BRANCH  19  23
ATOM     23  C   UNL     1      46.325   5.845  13.106  0.00  0.00    +0.000 A 
ATOM     24  C   UNL     1      45.990   7.014  12.403  0.00  0.00    +0.000 A 
ATOM     25  C   UNL     1      44.992   7.014  11.426  0.00  0.00    +0.000 A 
ATOM     26  C   UNL     1      44.299   5.840  11.134  0.00  0.00    +0.000 A 
ATOM     27  C   UNL     1      44.602   4.657  11.820  0.00  0.00    +0.000 A 
ATOM     28  C   UNL     1      45.609   4.674  12.800  0.00  0.00    +0.000 A 
BRANCH  27  29
ATOM     29  C   UNL     1      43.876   3.367  11.524  0.00  0.00    +0.000 C 
ATOM     30  F   UNL     1      44.424   2.653  10.503  0.00  0.00    +0.000 F 
ATOM     31  F   UNL     1      43.852   2.530  12.597  0.00  0.00    +0.000 F 
ATOM     32  F   UNL     1      42.574   3.574  11.182  0.00  0.00    +0.000 F 
ENDBRANCH  27  29
ENDBRANCH  19  23
ENDBRANCH   1  17
TORSDOF 5
ENDMDL
MODEL 7
REMARK VINA RESULT:    -7.406      3.383      4.376
REMARK INTER + INTRA:          -9.860
REMARK INTER:                  -9.398
REMARK INTRA:                  -0.462
REMARK UNBOUND:                -0.290
REMARK  Name = 
REMARK  5 active torsions:
REMARK  status: ('A' for Active; 'I' for Inactive)
REMARK    1  A    between atoms: C_2  and  C_4
REMARK    2  A    between atoms: N_8  and  C_9
REMARK    3  A    between atoms: C_9  and  C_10
REMARK    4  A    between atoms: C_12  and  C_13
REMARK    5  A    between atoms: C_17  and  C_18
REMARK                            x       y       z     vdW  Elec       q    Type
REMARK                         _______ _______ _______ _____ _____    ______ ____
ROOT
ATOM      1  C   UNL     1      44.189   4.035  11.617  0.00  0.00    +0.000 C 
ATOM      2  C   UNL     1      42.846   4.272  12.286  0.00  0.00    +0.000 C 
ATOM      3  C   UNL     1      43.209   5.096  11.097  0.00  0.00    +0.000 C 
ENDROOT
BRANCH   1   8
ATOM      4  C   UNL     1      46.698   2.508   7.234  0.00  0.00    +0.000 A 
ATOM      5  C   UNL     1      46.468   3.802   7.697  0.00  0.00    +0.000 A 
ATOM      6  C   UNL     1      45.727   3.994   8.872  0.00  0.00    +0.000 A 
ATOM      7  C   UNL     1      45.227   2.892   9.550  0.00  0.00    +0.000 A 
ATOM      8  N   UNL     1      44.408   2.937  10.671  0.00  0.00    +0.000 N 
ATOM      9  N   UNL     1      45.451   1.631   9.109  0.00  0.00    +0.000 NA
ATOM     10  C   UNL     1      46.165   1.464   7.968  0.00  0.00    +0.000 A 
ATOM     11  H   UNL     1      44.282   1.980  10.983  0.00  0.00    +0.000 HD
BRANCH   4  13
ATOM     12  N   UNL     1      48.745   2.620   5.925  0.00  0.00    +0.000 N 
ATOM     13  C   UNL     1      47.448   2.187   6.005  0.00  0.00    +0.000 C 
ATOM     14  O   UNL     1      46.952   1.531   5.096  0.00  0.00    +0.000 OA
ATOM     15  H   UNL     1      49.275   2.294   5.130  0.00  0.00    +0.000 HD
ATOM     16  H   UNL     1      49.259   2.932   6.733  0.00  0.00    +0.000 HD
ENDBRANCH   4  13
ENDBRANCH   1   8
BRANCH   1  17
ATOM     17  C   UNL     1      45.406   4.577  12.380  0.00  0.00    +0.000 A 
ATOM     18  C   UNL     1      45.841   5.889  12.182  0.00  0.00    +0.000 A 
ATOM     19  C   UNL     1      46.763   6.474  13.058  0.00  0.00    +0.000 A 
ATOM     20  C   UNL     1      47.259   5.678  14.096  0.00  0.00    +0.000 A 
ATOM     21  C   UNL     1      46.842   4.364  14.194  0.00  0.00    +0.000 A 
ATOM     22  N   UNL     1      45.944   3.804  13.363  0.00  0.00    +0.000 NA
BRANCH  19  23
ATOM     23  C   UNL     1      47.154   7.891  12.921  0.00  0.00    +0.000 A 
ATOM     24  C   UNL     1      46.336   8.811  12.246  0.00  0.00    +0.000 A 
ATOM     25  C   UNL     1      46.704  10.152  12.117  0.00  0.00    +0.000 A 
ATOM     26  C   UNL     1      47.908  10.602  12.657  0.00  0.00    +0.000 A 
ATOM     27  C   UNL     1      48.752   9.710  13.332  0.00  0.00    +0.000 A 
ATOM     28  C   UNL     1      48.366   8.364  13.453  0.00  0.00    +0.000 A 
BRANCH  27  29
ATOM     29  C   UNL     1      50.058  10.166  13.934  0.00  0.00    +0.000 C 
ATOM     30  F   UNL     1      51.153   9.597  13.358  0.00  0.00    +0.000 F 
ATOM     31  F   UNL     1      50.236  11.512  13.826  0.00  0.00    +0.000 F 
ATOM     32  F   UNL     1      50.143   9.882  15.263  0.00  0.00    +0.000 F 
ENDBRANCH  27  29
ENDBRANCH  19  23
ENDBRANCH   1  17
TORSDOF 5
ENDMDL
MODEL 8
REMARK VINA RESULT:    -7.257      3.568      5.250
REMARK INTER + INTRA:          -9.668
REMARK INTER:                  -8.859
REMARK INTRA:                  -0.810
REMARK UNBOUND:                -0.290
REMARK  Name = 
REMARK  5 active torsions:
REMARK  status: ('A' for Active; 'I' for Inactive)
REMARK    1  A    between atoms: C_2  and  C_4
REMARK    2  A    between atoms: N_8  and  C_9
REMARK    3  A    between atoms: C_9  and  C_10
REMARK    4  A    between atoms: C_12  and  C_13
REMARK    5  A    between atoms: C_17  and  C_18
REMARK                            x       y       z     vdW  Elec       q    Type
REMARK                         _______ _______ _______ _____ _____    ______ ____
ROOT
ATOM      1  C   UNL     1      48.894   8.579  12.463  0.00  0.00    +0.000 C 
ATOM      2  C   UNL     1      49.915   9.262  11.570  0.00  0.00    +0.000 C 
ATOM      3  C   UNL     1      49.979   7.780  11.728  0.00  0.00    +0.000 C 
ENDROOT
BRANCH   1   8
ATOM      4  C   UNL     1      44.878   5.169  12.755  0.00  0.00    +0.000 A 
ATOM      5  C   UNL     1      46.213   4.971  13.101  0.00  0.00    +0.000 A 
ATOM      6  C   UNL     1      47.141   6.002  12.896  0.00  0.00    +0.000 A 
ATOM      7  C   UNL     1      46.716   7.201  12.342  0.00  0.00    +0.000 A 
ATOM      8  N   UNL     1      47.537   8.269  12.003  0.00  0.00    +0.000 N 
ATOM      9  N   UNL     1      45.419   7.402  12.007  0.00  0.00    +0.000 NA
ATOM     10  C   UNL     1      44.536   6.393  12.208  0.00  0.00    +0.000 A 
ATOM     11  H   UNL     1      46.930   9.024  11.704  0.00  0.00    +0.000 HD
BRANCH   4  13
ATOM     12  N   UNL     1      44.143   2.854  12.624  0.00  0.00    +0.000 N 
ATOM     13  C   UNL     1      43.820   4.154  12.911  0.00  0.00    +0.000 C 
ATOM     14  O   UNL     1      42.698   4.444  13.312  0.00  0.00    +0.000 OA
ATOM     15  H   UNL     1      43.443   2.162  12.845  0.00  0.00    +0.000 HD
ATOM     16  H   UNL     1      45.098   2.543  12.541  0.00  0.00    +0.000 HD
ENDBRANCH   4  13
ENDBRANCH   1   8
BRANCH   1  17
ATOM     17  C   UNL     1      49.116   8.762  13.972  0.00  0.00    +0.000 A 
ATOM     18  C   UNL     1      48.858   7.716  14.858  0.00  0.00    +0.000 A 
ATOM     19  C   UNL     1      49.309   7.776  16.183  0.00  0.00    +0.000 A 
ATOM     20  C   UNL     1      49.976   8.939  16.583  0.00  0.00    +0.000 A 
ATOM     21  C   UNL     1      50.135   9.968  15.675  0.00  0.00    +0.000 A 
ATOM     22  N   UNL     1      49.717   9.907  14.398  0.00  0.00    +0.000 NA
BRANCH  19  23
ATOM     23  C   UNL     1      49.134   6.635  17.102  0.00  0.00    +0.000 A 
ATOM     24  C   UNL     1      49.399   6.756  18.475  0.00  0.00    +0.000 A 
ATOM     25  C   UNL     1      49.232   5.676  19.346  0.00  0.00    +0.000 A 
ATOM     26  C   UNL     1      48.798   4.445  18.858  0.00  0.00    +0.000 A 
ATOM     27  C   UNL     1      48.529   4.286  17.492  0.00  0.00    +0.000 A 
ATOM     28  C   UNL     1      48.703   5.382  16.630  0.00  0.00    +0.000 A 
BRANCH  27  29
ATOM     29  C   UNL     1      48.052   2.968  16.932  0.00  0.00    +0.000 C 
ATOM     30  F   UNL     1      47.571   3.057  15.662  0.00  0.00    +0.000 F 
ATOM     31  F   UNL     1      49.042   2.035  16.893  0.00  0.00    +0.000 F 
ATOM     32  F   UNL     1      47.051   2.422  17.675  0.00  0.00    +0.000 F 
ENDBRANCH  27  29
ENDBRANCH  19  23
ENDBRANCH   1  17
TORSDOF 5
ENDMDL
MODEL 9
REMARK VINA RESULT:    -7.137      5.381      7.667
REMARK INTER + INTRA:          -9.512
REMARK INTER:                  -8.720
REMARK INTRA:                  -0.792
REMARK UNBOUND:                -0.290
REMARK  Name = 
REMARK  5 active torsions:
REMARK  status: ('A' for Active; 'I' for Inactive)
REMARK    1  A    between atoms: C_2  and  C_4
REMARK    2  A    between atoms: N_8  and  C_9
REMARK    3  A    between atoms: C_9  and  C_10
REMARK    4  A    between atoms: C_12  and  C_13
REMARK    5  A    between atoms: C_17  and  C_18
REMARK                            x       y       z     vdW  Elec       q    Type
REMARK                         _______ _______ _______ _____ _____    ______ ____
ROOT
ATOM      1  C   UNL     1      49.331   7.819  12.791  0.00  0.00    +0.000 C 
ATOM      2  C   UNL     1      49.701   8.753  13.930  0.00  0.00    +0.000 C 
ATOM      3  C   UNL     1      49.608   7.290  14.205  0.00  0.00    +0.000 C 
ENDROOT
BRANCH   1   8
ATOM      4  C   UNL     1      53.108   9.301   9.418  0.00  0.00    +0.000 A 
ATOM      5  C   UNL     1      52.107  10.078   9.998  0.00  0.00    +0.000 A 
ATOM      6  C   UNL     1      51.161   9.472  10.837  0.00  0.00    +0.000 A 
ATOM      7  C   UNL     1      51.231   8.107  11.069  0.00  0.00    +0.000 A 
ATOM      8  N   UNL     1      50.314   7.365  11.802  0.00  0.00    +0.000 N 
ATOM      9  N   UNL     1      52.203   7.346  10.513  0.00  0.00    +0.000 NA
ATOM     10  C   UNL     1      53.108   7.947   9.699  0.00  0.00    +0.000 A 
ATOM     11  H   UNL     1      50.679   6.421  11.863  0.00  0.00    +0.000 HD
BRANCH   4  13
ATOM     12  N   UNL     1      54.765   8.933   7.676  0.00  0.00    +0.000 N 
ATOM     13  C   UNL     1      54.145   9.825   8.509  0.00  0.00    +0.000 C 
ATOM     14  O   UNL     1      54.428  11.018   8.468  0.00  0.00    +0.000 OA
ATOM     15  H   UNL     1      55.386   9.326   6.985  0.00  0.00    +0.000 HD
ATOM     16  H   UNL     1      54.392   8.013   7.499  0.00  0.00    +0.000 HD
ENDBRANCH   4  13
ENDBRANCH   1   8
BRANCH   1  17
ATOM     17  C   UNL     1      47.854   7.847  12.374  0.00  0.00    +0.000 A 
ATOM     18  C   UNL     1      47.182   6.663  12.066  0.00  0.00    +0.000 A 
ATOM     19  C   UNL     1      45.785   6.645  11.953  0.00  0.00    +0.000 A 
ATOM     20  C   UNL     1      45.112   7.861  12.111  0.00  0.00    +0.000 A 
ATOM     21  C   UNL     1      45.843   9.010  12.343  0.00  0.00    +0.000 A 
ATOM     22  N   UNL     1      47.182   9.028  12.468  0.00  0.00    +0.000 NA
BRANCH  19  23
ATOM     23  C   UNL     1      45.054   5.383  11.729  0.00  0.00    +0.000 A 
ATOM     24  C   UNL     1      44.147   4.886  12.680  0.00  0.00    +0.000 A 
ATOM     25  C   UNL     1      43.454   3.693  12.468  0.00  0.00    +0.000 A 
ATOM     26  C   UNL     1      43.658   2.964  11.297  0.00  0.00    +0.000 A 
ATOM     27  C   UNL     1      44.559   3.426  10.330  0.00  0.00    +0.000 A 
ATOM     28  C   UNL     1      45.249   4.629  10.559  0.00  0.00    +0.000 A 
BRANCH  27  29
ATOM     29  C   UNL     1      44.799   2.665   9.049  0.00  0.00    +0.000 C 
ATOM     30  F   UNL     1      44.205   1.440   9.022  0.00  0.00    +0.000 F 
ATOM     31  F   UNL     1      44.333   3.331   7.957  0.00  0.00    +0.000 F 
ATOM     32  F   UNL     1      46.123   2.445   8.817  0.00  0.00    +0.000 F 
ENDBRANCH  27  29
ENDBRANCH  19  23
ENDBRANCH   1  17
TORSDOF 5
ENDMDL
