MODEL 1
REMARK VINA RESULT:    -9.027      0.000      0.000
REMARK INTER + INTRA:         -12.546
REMARK INTER:                 -11.666
REMARK INTRA:                  -0.880
REMARK UNBOUND:                -0.880
REMARK  Name = 
REMARK  5 active torsions:
REMARK  status: ('A' for Active; 'I' for Inactive)
REMARK    1  A    between atoms: C_2  and  C_4
REMARK    2  A    between atoms: C_8  and  O_9
REMARK    3  A    between atoms: O_9  and  C_10
REMARK    4  A    between atoms: C_10  and  C_11
REMARK    5  A    between atoms: C_15  and  C_16
REMARK                            x       y       z     vdW  Elec       q    Type
REMARK                         _______ _______ _______ _____ _____    ______ ____
ROOT
ATOM      1  C   UNL     1      43.163   6.166  11.026  0.00  0.00    +0.000 C 
ENDROOT
BRANCH   1   2
ATOM      2  C   UNL     1      43.511   4.744  10.701  0.00  0.00    +0.000 A 
ATOM      3  C   UNL     1      43.007   3.693  11.452  0.00  0.00    +0.000 A 
ATOM      4  N   UNL     1      43.313   2.399  11.231  0.00  0.00    +0.000 NA
ATOM      5  C   UNL     1      44.150   2.140  10.196  0.00  0.00    +0.000 A 
ATOM      6  C   UNL     1      44.716   3.100   9.352  0.00  0.00    +0.000 A 
ATOM      7  C   UNL     1      44.361   4.429   9.631  0.00  0.00    +0.000 A 
BRANCH   6   8
ATOM      8  C   UNL     1      45.645   2.748   8.255  0.00  0.00    +0.000 A 
ATOM      9  C   UNL     1      45.960   3.668   7.234  0.00  0.00    +0.000 A 
ATOM     10  C   UNL     1      46.862   3.347   6.214  0.00  0.00    +0.000 A 
ATOM     11  C   UNL     1      47.452   2.093   6.194  0.00  0.00    +0.000 A 
ATOM     12  F   UNL     1      48.316   1.784   5.218  0.00  0.00    +0.000 F 
ATOM     13  C   UNL     1      47.160   1.156   7.172  0.00  0.00    +0.000 A 
ATOM     14  C   UNL     1      46.267   1.484   8.198  0.00  0.00    +0.000 A 
ENDBRANCH   6   8
ENDBRANCH   1   2
BRANCH   1  15
ATOM     15  O   UNL     1      43.642   6.480  12.331  0.00  0.00    +0.000 OA
BRANCH  15  20
ATOM     16  C   UNL     1      46.764   5.284  13.749  0.00  0.00    +0.000 A 
ATOM     17  C   UNL     1      47.721   6.041  13.063  0.00  0.00    +0.000 A 
ATOM     18  C   UNL     1      47.318   6.965  12.103  0.00  0.00    +0.000 A 
ATOM     19  C   UNL     1      45.961   7.142  11.827  0.00  0.00    +0.000 A 
ATOM     20  C   UNL     1      44.998   6.399  12.514  0.00  0.00    +0.000 A 
ATOM     21  C   UNL     1      45.404   5.479  13.482  0.00  0.00    +0.000 A 
BRANCH  16  23
ATOM     22  N   UNL     1      47.394   4.739  16.033  0.00  0.00    +0.000 N 
ATOM     23  C   UNL     1      47.232   4.294  14.751  0.00  0.00    +0.000 C 
ATOM     24  O   UNL     1      47.420   3.119  14.457  0.00  0.00    +0.000 OA
ATOM     25  H   UNL     1      47.608   4.037  16.730  0.00  0.00    +0.000 HD
ATOM     26  H   UNL     1      47.020   5.621  16.354  0.00  0.00    +0.000 HD
ENDBRANCH  16  23
ENDBRANCH  15  20
ENDBRANCH   1  15
TORSDOF 5
ENDMDL
MODEL 2
REMARK VINA RESULT:    -9.019      0.108      0.989
REMARK INTER + INTRA:         -12.536
REMARK INTER:                 -11.649
REMARK INTRA:                  -0.887
REMARK UNBOUND:                -0.880
REMARK  Name = 
REMARK  5 active torsions:
REMARK  status: ('A' for Active; 'I' for Inactive)
REMARK    1  A    between atoms: C_2  and  C_4
REMARK    2  A    between atoms: C_8  and  O_9
REMARK    3  A    between atoms: O_9  and  C_10
REMARK    4  A    between atoms: C_10  and  C_11
REMARK    5  A    between atoms: C_15  and  C_16
REMARK                            x       y       z     vdW  Elec       q    Type
REMARK                         _______ _______ _______ _____ _____    ______ ____
ROOT
ATOM      1  C   UNL     1      43.238   6.176  11.076  0.00  0.00    +0.000 C 
ENDROOT
BRANCH   1   2
ATOM      2  C   UNL     1      43.565   4.753  10.729  0.00  0.00    +0.000 A 
ATOM      3  C   UNL     1      43.033   3.699  11.455  0.00  0.00    +0.000 A 
ATOM      4  N   UNL     1      43.318   2.404  11.213  0.00  0.00    +0.000 NA
ATOM      5  C   UNL     1      44.163   2.148  10.184  0.00  0.00    +0.000 A 
ATOM      6  C   UNL     1      44.756   3.113   9.364  0.00  0.00    +0.000 A 
ATOM      7  C   UNL     1      44.421   4.442   9.664  0.00  0.00    +0.000 A 
BRANCH   6   8
ATOM      8  C   UNL     1      45.692   2.764   8.272  0.00  0.00    +0.000 A 
ATOM      9  C   UNL     1      46.283   1.487   8.189  0.00  0.00    +0.000 A 
ATOM     10  C   UNL     1      47.143   1.146   7.140  0.00  0.00    +0.000 A 
ATOM     11  C   UNL     1      47.437   2.087   6.165  0.00  0.00    +0.000 A 
ATOM     12  F   UNL     1      48.260   1.762   5.159  0.00  0.00    +0.000 F 
ATOM     13  C   UNL     1      46.886   3.357   6.217  0.00  0.00    +0.000 A 
ATOM     14  C   UNL     1      46.016   3.691   7.260  0.00  0.00    +0.000 A 
ENDBRANCH   6   8
ENDBRANCH   1   2
BRANCH   1  15
ATOM     15  O   UNL     1      43.725   6.463  12.384  0.00  0.00    +0.000 OA
BRANCH  15  20
ATOM     16  C   UNL     1      46.810   5.206  13.831  0.00  0.00    +0.000 A 
ATOM     17  C   UNL     1      47.790   5.909  13.120  0.00  0.00    +0.000 A 
ATOM     18  C   UNL     1      47.415   6.816  12.133  0.00  0.00    +0.000 A 
ATOM     19  C   UNL     1      46.064   7.030  11.855  0.00  0.00    +0.000 A 
ATOM     20  C   UNL     1      45.079   6.342  12.566  0.00  0.00    +0.000 A 
ATOM     21  C   UNL     1      45.456   5.438  13.562  0.00  0.00    +0.000 A 
BRANCH  16  23
ATOM     22  N   UNL     1      47.215   4.648  16.163  0.00  0.00    +0.000 N 
ATOM     23  C   UNL     1      47.247   4.231  14.862  0.00  0.00    +0.000 C 
ATOM     24  O   UNL     1      47.578   3.088  14.569  0.00  0.00    +0.000 OA
ATOM     25  H   UNL     1      47.410   3.947  16.866  0.00  0.00    +0.000 HD
ATOM     26  H   UNL     1      46.725   5.482  16.454  0.00  0.00    +0.000 HD
ENDBRANCH  16  23
ENDBRANCH  15  20
ENDBRANCH   1  15
TORSDOF 5
ENDMDL
MODEL 3
REMARK VINA RESULT:    -8.454      1.655      1.911
REMARK INTER + INTRA:         -11.806
REMARK INTER:                 -10.909
REMARK INTRA:                  -0.897
REMARK UNBOUND:                -0.880
REMARK  Name = 
REMARK  5 active torsions:
REMARK  status: ('A' for Active; 'I' for Inactive)
REMARK    1  A    between atoms: C_2  and  C_4
REMARK    2  A    between atoms: C_8  and  O_9
REMARK    3  A    between atoms: O_9  and  C_10
REMARK    4  A    between atoms: C_10  and  C_11
REMARK    5  A    between atoms: C_15  and  C_16
REMARK                            x       y       z     vdW  Elec       q    Type
REMARK                         _______ _______ _______ _____ _____    ______ ____
ROOT
ATOM      1  C   UNL     1      43.497   6.269  11.445  0.00  0.00    +0.000 C 
ENDROOT
BRANCH   1   2
ATOM      2  C   UNL     1      43.703   4.845  11.020  0.00  0.00    +0.000 A 
ATOM      3  C   UNL     1      43.102   3.800  11.705  0.00  0.00    +0.000 A 
ATOM      4  N   UNL     1      43.278   2.501  11.393  0.00  0.00    +0.000 NA
ATOM      5  C   UNL     1      44.079   2.232  10.332  0.00  0.00    +0.000 A 
ATOM      6  C   UNL     1      44.732   3.188   9.548  0.00  0.00    +0.000 A 
ATOM      7  C   UNL     1      44.510   4.523   9.921  0.00  0.00    +0.000 A 
BRANCH   6   8
ATOM      8  C   UNL     1      45.615   2.823   8.418  0.00  0.00    +0.000 A 
ATOM      9  C   UNL     1      45.958   3.759   7.420  0.00  0.00    +0.000 A 
ATOM     10  C   UNL     1      46.818   3.425   6.369  0.00  0.00    +0.000 A 
ATOM     11  C   UNL     1      47.336   2.141   6.292  0.00  0.00    +0.000 A 
ATOM     12  F   UNL     1      48.159   1.818   5.287  0.00  0.00    +0.000 F 
ATOM     13  C   UNL     1      47.013   1.189   7.246  0.00  0.00    +0.000 A 
ATOM     14  C   UNL     1      46.163   1.530   8.303  0.00  0.00    +0.000 A 
ENDBRANCH   6   8
ENDBRANCH   1   2
BRANCH   1  15
ATOM     15  O   UNL     1      44.236   6.513  12.639  0.00  0.00    +0.000 OA
BRANCH  15  20
ATOM     16  C   UNL     1      47.699   7.594  12.799  0.00  0.00    +0.000 A 
ATOM     17  C   UNL     1      47.622   8.929  12.382  0.00  0.00    +0.000 A 
ATOM     18  C   UNL     1      46.391   9.477  12.033  0.00  0.00    +0.000 A 
ATOM     19  C   UNL     1      45.232   8.701  12.104  0.00  0.00    +0.000 A 
ATOM     20  C   UNL     1      45.297   7.373  12.531  0.00  0.00    +0.000 A 
ATOM     21  C   UNL     1      46.532   6.826  12.888  0.00  0.00    +0.000 A 
BRANCH  16  23
ATOM     22  N   UNL     1      50.032   7.215  12.231  0.00  0.00    +0.000 N 
ATOM     23  C   UNL     1      49.031   7.037  13.144  0.00  0.00    +0.000 C 
ATOM     24  O   UNL     1      49.240   6.484  14.217  0.00  0.00    +0.000 OA
ATOM     25  H   UNL     1      50.959   6.929  12.518  0.00  0.00    +0.000 HD
ATOM     26  H   UNL     1      49.958   7.867  11.463  0.00  0.00    +0.000 HD
ENDBRANCH  16  23
ENDBRANCH  15  20
ENDBRANCH   1  15
TORSDOF 5
ENDMDL
MODEL 4
REMARK VINA RESULT:    -8.339      2.347      3.254
REMARK INTER + INTRA:         -11.657
REMARK INTER:                 -10.759
REMARK INTRA:                  -0.899
REMARK UNBOUND:                -0.880
REMARK  Name = 
REMARK  5 active torsions:
REMARK  status: ('A' for Active; 'I' for Inactive)
REMARK    1  A    between atoms: C_2  and  C_4
REMARK    2  A    between atoms: C_8  and  O_9
REMARK    3  A    between atoms: O_9  and  C_10
REMARK    4  A    between atoms: C_10  and  C_11
REMARK    5  A    between atoms: C_15  and  C_16
REMARK                            x       y       z     vdW  Elec       q    Type
REMARK                         _______ _______ _______ _____ _____    ______ ____
ROOT
ATOM      1  C   UNL     1      43.604   6.270  11.597  0.00  0.00    +0.000 C 
ENDROOT
BRANCH   1   2
ATOM      2  C   UNL     1      43.756   4.861  11.104  0.00  0.00    +0.000 A 
ATOM      3  C   UNL     1      43.089   3.812  11.717  0.00  0.00    +0.000 A 
ATOM      4  N   UNL     1      43.213   2.524  11.342  0.00  0.00    +0.000 NA
ATOM      5  C   UNL     1      44.032   2.272  10.291  0.00  0.00    +0.000 A 
ATOM      6  C   UNL     1      44.750   3.235   9.575  0.00  0.00    +0.000 A 
ATOM      7  C   UNL     1      44.580   4.557  10.011  0.00  0.00    +0.000 A 
BRANCH   6   8
ATOM      8  C   UNL     1      45.648   2.886   8.451  0.00  0.00    +0.000 A 
ATOM      9  C   UNL     1      46.163   1.582   8.297  0.00  0.00    +0.000 A 
ATOM     10  C   UNL     1      46.986   1.245   7.219  0.00  0.00    +0.000 A 
ATOM     11  C   UNL     1      47.320   2.213   6.284  0.00  0.00    +0.000 A 
ATOM     12  F   UNL     1      48.107   1.891   5.250  0.00  0.00    +0.000 F 
ATOM     13  C   UNL     1      46.844   3.509   6.406  0.00  0.00    +0.000 A 
ATOM     14  C   UNL     1      46.011   3.841   7.479  0.00  0.00    +0.000 A 
ENDBRANCH   6   8
ENDBRANCH   1   2
BRANCH   1  15
ATOM     15  O   UNL     1      44.461   6.469  12.718  0.00  0.00    +0.000 OA
BRANCH  15  20
ATOM     16  C   UNL     1      46.672   9.292  12.144  0.00  0.00    +0.000 A 
ATOM     17  C   UNL     1      47.919   8.675  11.979  0.00  0.00    +0.000 A 
ATOM     18  C   UNL     1      48.025   7.290  12.068  0.00  0.00    +0.000 A 
ATOM     19  C   UNL     1      46.891   6.514  12.316  0.00  0.00    +0.000 A 
ATOM     20  C   UNL     1      45.642   7.119  12.470  0.00  0.00    +0.000 A 
ATOM     21  C   UNL     1      45.535   8.508  12.373  0.00  0.00    +0.000 A 
BRANCH  16  23
ATOM     22  N   UNL     1      45.357  11.336  12.116  0.00  0.00    +0.000 N 
ATOM     23  C   UNL     1      46.600  10.772  12.063  0.00  0.00    +0.000 C 
ATOM     24  O   UNL     1      47.610  11.464  11.999  0.00  0.00    +0.000 OA
ATOM     25  H   UNL     1      45.322  12.346  12.169  0.00  0.00    +0.000 HD
ATOM     26  H   UNL     1      44.538  10.822  12.410  0.00  0.00    +0.000 HD
ENDBRANCH  16  23
ENDBRANCH  15  20
ENDBRANCH   1  15
TORSDOF 5
ENDMDL
MODEL 5
REMARK VINA RESULT:    -8.316      2.003      2.591
REMARK INTER + INTRA:         -11.628
REMARK INTER:                 -10.675
REMARK INTRA:                  -0.953
REMARK UNBOUND:                -0.880
REMARK  Name = 
REMARK  5 active torsions:
REMARK  status: ('A' for Active; 'I' for Inactive)
REMARK    1  A    between atoms: C_2  and  C_4
REMARK    2  A    between atoms: C_8  and  O_9
REMARK    3  A    between atoms: O_9  and  C_10
REMARK    4  A    between atoms: C_10  and  C_11
REMARK    5  A    between atoms: C_15  and  C_16
REMARK                            x       y       z     vdW  Elec       q    Type
REMARK                         _______ _______ _______ _____ _____    ______ ____
ROOT
ATOM      1  C   UNL     1      43.474   6.196  11.424  0.00  0.00    +0.000 C 
ENDROOT
BRANCH   1   2
ATOM      2  C   UNL     1      43.690   4.780  10.977  0.00  0.00    +0.000 A 
ATOM      3  C   UNL     1      43.088   3.720  11.639  0.00  0.00    +0.000 A 
ATOM      4  N   UNL     1      43.272   2.428  11.305  0.00  0.00    +0.000 NA
ATOM      5  C   UNL     1      44.083   2.181  10.247  0.00  0.00    +0.000 A 
ATOM      6  C   UNL     1      44.738   3.153   9.485  0.00  0.00    +0.000 A 
ATOM      7  C   UNL     1      44.508   4.480   9.879  0.00  0.00    +0.000 A 
BRANCH   6   8
ATOM      8  C   UNL     1      45.632   2.812   8.356  0.00  0.00    +0.000 A 
ATOM      9  C   UNL     1      45.967   3.761   7.369  0.00  0.00    +0.000 A 
ATOM     10  C   UNL     1      46.836   3.449   6.319  0.00  0.00    +0.000 A 
ATOM     11  C   UNL     1      47.374   2.174   6.233  0.00  0.00    +0.000 A 
ATOM     12  F   UNL     1      48.207   1.873   5.229  0.00  0.00    +0.000 F 
ATOM     13  C   UNL     1      47.061   1.208   7.177  0.00  0.00    +0.000 A 
ATOM     14  C   UNL     1      46.201   1.528   8.233  0.00  0.00    +0.000 A 
ENDBRANCH   6   8
ENDBRANCH   1   2
BRANCH   1  15
ATOM     15  O   UNL     1      44.015   6.360  12.733  0.00  0.00    +0.000 OA
BRANCH  15  20
ATOM     16  C   UNL     1      47.150   8.179  12.509  0.00  0.00    +0.000 A 
ATOM     17  C   UNL     1      48.090   7.216  12.894  0.00  0.00    +0.000 A 
ATOM     18  C   UNL     1      47.670   5.935  13.242  0.00  0.00    +0.000 A 
ATOM     19  C   UNL     1      46.313   5.608  13.202  0.00  0.00    +0.000 A 
ATOM     20  C   UNL     1      45.369   6.558  12.809  0.00  0.00    +0.000 A 
ATOM     21  C   UNL     1      45.793   7.841  12.452  0.00  0.00    +0.000 A 
BRANCH  16  23
ATOM     22  N   UNL     1      46.826  10.589  12.504  0.00  0.00    +0.000 N 
ATOM     23  C   UNL     1      47.632   9.540  12.164  0.00  0.00    +0.000 C 
ATOM     24  O   UNL     1      48.726   9.722  11.641  0.00  0.00    +0.000 OA
ATOM     25  H   UNL     1      47.208  11.515  12.365  0.00  0.00    +0.000 HD
ATOM     26  H   UNL     1      46.049  10.493  13.143  0.00  0.00    +0.000 HD
ENDBRANCH  16  23
ENDBRANCH  15  20
ENDBRANCH   1  15
TORSDOF 5
ENDMDL
MODEL 6
REMARK VINA RESULT:    -8.192      3.470      6.589
REMARK INTER + INTRA:         -11.467
REMARK INTER:                 -11.006
REMARK INTRA:                  -0.461
REMARK UNBOUND:                -0.880
REMARK  Name = 
REMARK  5 active torsions:
REMARK  status: ('A' for Active; 'I' for Inactive)
REMARK    1  A    between atoms: C_2  and  C_4
REMARK    2  A    between atoms: C_8  and  O_9
REMARK    3  A    between atoms: O_9  and  C_10
REMARK    4  A    between atoms: C_10  and  C_11
REMARK    5  A    between atoms: C_15  and  C_16
REMARK                            x       y       z     vdW  Elec       q    Type
REMARK                         _______ _______ _______ _____ _____    ______ ____
ROOT
ATOM      1  C   UNL     1      43.397   4.016  11.048  0.00  0.00    +0.000 C 
ENDROOT
BRANCH   1   2
ATOM      2  C   UNL     1      44.571   4.434  11.885  0.00  0.00    +0.000 A 
ATOM      3  C   UNL     1      45.028   3.640  12.925  0.00  0.00    +0.000 A 
ATOM      4  N   UNL     1      46.053   3.979  13.732  0.00  0.00    +0.000 NA
ATOM      5  C   UNL     1      46.663   5.163  13.477  0.00  0.00    +0.000 A 
ATOM      6  C   UNL     1      46.314   6.049  12.454  0.00  0.00    +0.000 A 
ATOM      7  C   UNL     1      45.241   5.642  11.646  0.00  0.00    +0.000 A 
BRANCH   6   8
ATOM      8  C   UNL     1      47.008   7.340  12.247  0.00  0.00    +0.000 A 
ATOM      9  C   UNL     1      48.347   7.394  11.809  0.00  0.00    +0.000 A 
ATOM     10  C   UNL     1      48.994   8.613  11.583  0.00  0.00    +0.000 A 
ATOM     11  C   UNL     1      48.313   9.799  11.808  0.00  0.00    +0.000 A 
ATOM     12  F   UNL     1      48.930  10.968  11.592  0.00  0.00    +0.000 F 
ATOM     13  C   UNL     1      47.000   9.790  12.250  0.00  0.00    +0.000 A 
ATOM     14  C   UNL     1      46.351   8.569  12.462  0.00  0.00    +0.000 A 
ENDBRANCH   6   8
ENDBRANCH   1   2
BRANCH   1  15
ATOM     15  O   UNL     1      43.767   2.895  10.250  0.00  0.00    +0.000 OA
BRANCH  15  20
ATOM     16  C   UNL     1      46.366   2.109   7.838  0.00  0.00    +0.000 A 
ATOM     17  C   UNL     1      46.628   3.354   7.254  0.00  0.00    +0.000 A 
ATOM     18  C   UNL     1      45.919   4.478   7.668  0.00  0.00    +0.000 A 
ATOM     19  C   UNL     1      44.951   4.367   8.668  0.00  0.00    +0.000 A 
ATOM     20  C   UNL     1      44.691   3.132   9.265  0.00  0.00    +0.000 A 
ATOM     21  C   UNL     1      45.409   2.006   8.854  0.00  0.00    +0.000 A 
BRANCH  16  23
ATOM     22  N   UNL     1      46.692  -0.300   7.767  0.00  0.00    +0.000 N 
ATOM     23  C   UNL     1      47.128   0.929   7.357  0.00  0.00    +0.000 C 
ATOM     24  O   UNL     1      48.077   1.043   6.590  0.00  0.00    +0.000 OA
ATOM     25  H   UNL     1      47.147  -1.101   7.350  0.00  0.00    +0.000 HD
ATOM     26  H   UNL     1      45.785  -0.442   8.190  0.00  0.00    +0.000 HD
ENDBRANCH  16  23
ENDBRANCH  15  20
ENDBRANCH   1  15
TORSDOF 5
ENDMDL
MODEL 7
REMARK VINA RESULT:    -8.178      1.519      2.237
REMARK INTER + INTRA:         -11.449
REMARK INTER:                 -10.707
REMARK INTRA:                  -0.742
REMARK UNBOUND:                -0.880
REMARK  Name = 
REMARK  5 active torsions:
REMARK  status: ('A' for Active; 'I' for Inactive)
REMARK    1  A    between atoms: C_2  and  C_4
REMARK    2  A    between atoms: C_8  and  O_9
REMARK    3  A    between atoms: O_9  and  C_10
REMARK    4  A    between atoms: C_10  and  C_11
REMARK    5  A    between atoms: C_15  and  C_16
REMARK                            x       y       z     vdW  Elec       q    Type
REMARK                         _______ _______ _______ _____ _____    ______ ____
ROOT
ATOM      1  C   UNL     1      44.964   5.525  12.932  0.00  0.00    +0.000 C 
ENDROOT
BRANCH   1   2
ATOM      2  C   UNL     1      44.576   4.408  12.008  0.00  0.00    +0.000 A 
ATOM      3  C   UNL     1      43.524   3.559  12.315  0.00  0.00    +0.000 A 
ATOM      4  N   UNL     1      43.152   2.518  11.543  0.00  0.00    +0.000 NA
ATOM      5  C   UNL     1      43.854   2.326  10.399  0.00  0.00    +0.000 A 
ATOM      6  C   UNL     1      44.924   3.114   9.965  0.00  0.00    +0.000 A 
ATOM      7  C   UNL     1      45.265   4.183  10.809  0.00  0.00    +0.000 A 
BRANCH   6   8
ATOM      8  C   UNL     1      45.666   2.832   8.715  0.00  0.00    +0.000 A 
ATOM      9  C   UNL     1      46.111   1.531   8.402  0.00  0.00    +0.000 A 
ATOM     10  C   UNL     1      46.784   1.258   7.207  0.00  0.00    +0.000 A 
ATOM     11  C   UNL     1      47.035   2.287   6.313  0.00  0.00    +0.000 A 
ATOM     12  F   UNL     1      47.679   2.027   5.168  0.00  0.00    +0.000 F 
ATOM     13  C   UNL     1      46.625   3.581   6.589  0.00  0.00    +0.000 A 
ATOM     14  C   UNL     1      45.941   3.850   7.779  0.00  0.00    +0.000 A 
ENDBRANCH   6   8
ENDBRANCH   1   2
BRANCH   1  15
ATOM     15  O   UNL     1      46.347   5.821  12.754  0.00  0.00    +0.000 OA
BRANCH  15  20
ATOM     16  C   UNL     1      47.676   4.546  15.884  0.00  0.00    +0.000 A 
ATOM     17  C   UNL     1      48.593   5.537  16.253  0.00  0.00    +0.000 A 
ATOM     18  C   UNL     1      48.778   6.650  15.438  0.00  0.00    +0.000 A 
ATOM     19  C   UNL     1      48.046   6.783  14.256  0.00  0.00    +0.000 A 
ATOM     20  C   UNL     1      47.120   5.805  13.885  0.00  0.00    +0.000 A 
ATOM     21  C   UNL     1      46.930   4.693  14.708  0.00  0.00    +0.000 A 
BRANCH  16  23
ATOM     22  N   UNL     1      48.626   2.586  16.965  0.00  0.00    +0.000 N 
ATOM     23  C   UNL     1      47.520   3.363  16.767  0.00  0.00    +0.000 C 
ATOM     24  O   UNL     1      46.461   3.117  17.333  0.00  0.00    +0.000 OA
ATOM     25  H   UNL     1      48.542   1.847  17.650  0.00  0.00    +0.000 HD
ATOM     26  H   UNL     1      49.557   2.892  16.716  0.00  0.00    +0.000 HD
ENDBRANCH  16  23
ENDBRANCH  15  20
ENDBRANCH   1  15
TORSDOF 5
ENDMDL
MODEL 8
REMARK VINA RESULT:    -7.953      2.260      3.476
REMARK INTER + INTRA:         -11.158
REMARK INTER:                 -10.339
REMARK INTRA:                  -0.819
REMARK UNBOUND:                -0.880
REMARK  Name = 
REMARK  5 active torsions:
REMARK  status: ('A' for Active; 'I' for Inactive)
REMARK    1  A    between atoms: C_2  and  C_4
REMARK    2  A    between atoms: C_8  and  O_9
REMARK    3  A    between atoms: O_9  and  C_10
REMARK    4  A    between atoms: C_10  and  C_11
REMARK    5  A    between atoms: C_15  and  C_16
REMARK                            x       y       z     vdW  Elec       q    Type
REMARK                         _______ _______ _______ _____ _____    ______ ____
ROOT
ATOM      1  C   UNL     1      44.908   5.407  13.024  0.00  0.00    +0.000 C 
ENDROOT
BRANCH   1   2
ATOM      2  C   UNL     1      44.524   4.312  12.072  0.00  0.00    +0.000 A 
ATOM      3  C   UNL     1      43.471   3.456  12.353  0.00  0.00    +0.000 A 
ATOM      4  N   UNL     1      43.103   2.434  11.555  0.00  0.00    +0.000 NA
ATOM      5  C   UNL     1      43.811   2.270  10.410  0.00  0.00    +0.000 A 
ATOM      6  C   UNL     1      44.882   3.068  10.000  0.00  0.00    +0.000 A 
ATOM      7  C   UNL     1      45.219   4.116  10.871  0.00  0.00    +0.000 A 
BRANCH   6   8
ATOM      8  C   UNL     1      45.630   2.816   8.748  0.00  0.00    +0.000 A 
ATOM      9  C   UNL     1      45.908   3.854   7.835  0.00  0.00    +0.000 A 
ATOM     10  C   UNL     1      46.641   3.622   6.666  0.00  0.00    +0.000 A 
ATOM     11  C   UNL     1      47.094   2.343   6.386  0.00  0.00    +0.000 A 
ATOM     12  F   UNL     1      47.797   2.119   5.269  0.00  0.00    +0.000 F 
ATOM     13  C   UNL     1      46.832   1.293   7.252  0.00  0.00    +0.000 A 
ATOM     14  C   UNL     1      46.110   1.530   8.426  0.00  0.00    +0.000 A 
ENDBRANCH   6   8
ENDBRANCH   1   2
BRANCH   1  15
ATOM     15  O   UNL     1      46.232   5.845  12.726  0.00  0.00    +0.000 OA
BRANCH  15  20
ATOM     16  C   UNL     1      45.283   9.239  11.849  0.00  0.00    +0.000 A 
ATOM     17  C   UNL     1      46.469   9.952  12.063  0.00  0.00    +0.000 A 
ATOM     18  C   UNL     1      47.606   9.289  12.514  0.00  0.00    +0.000 A 
ATOM     19  C   UNL     1      47.569   7.913  12.750  0.00  0.00    +0.000 A 
ATOM     20  C   UNL     1      46.394   7.191  12.529  0.00  0.00    +0.000 A 
ATOM     21  C   UNL     1      45.256   7.856  12.068  0.00  0.00    +0.000 A 
BRANCH  16  23
ATOM     22  N   UNL     1      43.520   9.579  10.210  0.00  0.00    +0.000 N 
ATOM     23  C   UNL     1      44.084   9.982  11.387  0.00  0.00    +0.000 C 
ATOM     24  O   UNL     1      43.591  10.887  12.051  0.00  0.00    +0.000 OA
ATOM     25  H   UNL     1      42.644  10.017   9.957  0.00  0.00    +0.000 HD
ATOM     26  H   UNL     1      43.749   8.698   9.771  0.00  0.00    +0.000 HD
ENDBRANCH  16  23
ENDBRANCH  15  20
ENDBRANCH   1  15
TORSDOF 5
ENDMDL
MODEL 9
REMARK VINA RESULT:    -7.880      3.678      6.856
REMARK INTER + INTRA:         -11.064
REMARK INTER:                 -10.246
REMARK INTRA:                  -0.818
REMARK UNBOUND:                -0.880
REMARK  Name = 
REMARK  5 active torsions:
REMARK  status: ('A' for Active; 'I' for Inactive)
REMARK    1  A    between atoms: C_2  and  C_4
REMARK    2  A    between atoms: C_8  and  O_9
REMARK    3  A    between atoms: O_9  and  C_10
REMARK    4  A    between atoms: C_10  and  C_11
REMARK    5  A    between atoms: C_15  and  C_16
REMARK                            x       y       z     vdW  Elec       q    Type
REMARK                         _______ _______ _______ _____ _____    ______ ____
ROOT
ATOM      1  C   UNL     1      43.737   4.734  10.542  0.00  0.00    +0.000 C 
ENDROOT
BRANCH   1   2
ATOM      2  C   UNL     1      44.816   5.013  11.547  0.00  0.00    +0.000 A 
ATOM      3  C   UNL     1      44.927   4.261  12.706  0.00  0.00    +0.000 A 
ATOM      4  N   UNL     1      45.851   4.487  13.660  0.00  0.00    +0.000 NA
ATOM      5  C   UNL     1      46.720   5.504  13.438  0.00  0.00    +0.000 A 
ATOM      6  C   UNL     1      46.729   6.329  12.309  0.00  0.00    +0.000 A 
ATOM      7  C   UNL     1      45.745   6.045  11.350  0.00  0.00    +0.000 A 
BRANCH   6   8
ATOM      8  C   UNL     1      47.692   7.440  12.142  0.00  0.00    +0.000 A 
ATOM      9  C   UNL     1      47.266   8.784  12.114  0.00  0.00    +0.000 A 
ATOM     10  C   UNL     1      48.178   9.837  11.987  0.00  0.00    +0.000 A 
ATOM     11  C   UNL     1      49.531   9.559  11.872  0.00  0.00    +0.000 A 
ATOM     12  F   UNL     1      50.406  10.565  11.752  0.00  0.00    +0.000 F 
ATOM     13  C   UNL     1      49.989   8.251  11.884  0.00  0.00    +0.000 A 
ATOM     14  C   UNL     1      49.076   7.201  12.023  0.00  0.00    +0.000 A 
ENDBRANCH   6   8
ENDBRANCH   1   2
BRANCH   1  15
ATOM     15  O   UNL     1      44.300   4.752   9.233  0.00  0.00    +0.000 OA
BRANCH  15  20
ATOM     16  C   UNL     1      46.446   2.623   7.220  0.00  0.00    +0.000 A 
ATOM     17  C   UNL     1      46.215   1.353   7.766  0.00  0.00    +0.000 A 
ATOM     18  C   UNL     1      45.331   1.206   8.831  0.00  0.00    +0.000 A 
ATOM     19  C   UNL     1      44.670   2.320   9.353  0.00  0.00    +0.000 A 
ATOM     20  C   UNL     1      44.885   3.587   8.808  0.00  0.00    +0.000 A 
ATOM     21  C   UNL     1      45.766   3.733   7.734  0.00  0.00    +0.000 A 
BRANCH  16  23
ATOM     22  N   UNL     1      48.728   2.531   6.387  0.00  0.00    +0.000 N 
ATOM     23  C   UNL     1      47.410   2.745   6.098  0.00  0.00    +0.000 C 
ATOM     24  O   UNL     1      47.040   2.980   4.954  0.00  0.00    +0.000 OA
ATOM     25  H   UNL     1      49.364   2.509   5.601  0.00  0.00    +0.000 HD
ATOM     26  H   UNL     1      49.033   2.102   7.250  0.00  0.00    +0.000 HD
ENDBRANCH  16  23
ENDBRANCH  15  20
ENDBRANCH   1  15
TORSDOF 5
ENDMDL
