MODEL 1
REMARK VINA RESULT:    -9.505      0.000      0.000
REMARK INTER + INTRA:         -12.404
REMARK INTER:                 -11.727
REMARK INTRA:                  -0.677
REMARK UNBOUND:                -0.677
REMARK  Name = 
REMARK  4 active torsions:
REMARK  status: ('A' for Active; 'I' for Inactive)
REMARK    1  A    between atoms: C_2  and  C_4
REMARK    2  A    between atoms: N_8  and  C_9
REMARK    3  A    between atoms: C_9  and  C_10
REMARK    4  A    between atoms: C_15  and  C_16
REMARK                            x       y       z     vdW  Elec       q    Type
REMARK                         _______ _______ _______ _____ _____    ______ ____
ROOT
ATOM      1  C   UNL     1      44.795   4.843  11.950  0.00  0.00    +0.000 A 
ATOM      2  C   UNL     1      45.444   3.976  12.827  0.00  0.00    +0.000 A 
ATOM      3  C   UNL     1      46.562   4.421  13.519  0.00  0.00    +0.000 A 
ATOM      4  F   UNL     1      47.183   3.587  14.363  0.00  0.00    +0.000 F 
ATOM      5  C   UNL     1      47.057   5.714  13.350  0.00  0.00    +0.000 A 
ATOM      6  C   UNL     1      46.423   6.621  12.486  0.00  0.00    +0.000 A 
ATOM      7  C   UNL     1      45.277   6.160  11.812  0.00  0.00    +0.000 A 
ENDROOT
BRANCH   6   8
ATOM      8  C   UNL     1      46.934   7.996  12.275  0.00  0.00    +0.000 A 
ATOM      9  C   UNL     1      48.280   8.239  11.972  0.00  0.00    +0.000 A 
ATOM     10  C   UNL     1      48.708   9.542  11.771  0.00  0.00    +0.000 A 
ATOM     11  N   UNL     1      47.905  10.619  11.864  0.00  0.00    +0.000 NA
ATOM     12  C   UNL     1      46.619  10.394  12.166  0.00  0.00    +0.000 A 
ATOM     13  N   UNL     1      45.792  11.512  12.229  0.00  0.00    +0.000 N 
ATOM     14  C   UNL     1      46.098   9.120  12.363  0.00  0.00    +0.000 A 
ATOM     15  H   UNL     1      46.393  12.325  12.111  0.00  0.00    +0.000 HD
ATOM     16  H   UNL     1      45.275  11.548  13.100  0.00  0.00    +0.000 HD
ENDBRANCH   6   8
BRANCH   1  17
ATOM     17  C   UNL     1      43.575   4.413  11.171  0.00  0.00    +0.000 C 
BRANCH  17  22
ATOM     18  C   UNL     1      46.356   2.308   7.686  0.00  0.00    +0.000 A 
ATOM     19  C   UNL     1      45.596   1.835   8.726  0.00  0.00    +0.000 A 
ATOM     20  N   UNL     1      44.750   2.606   9.437  0.00  0.00    +0.000 NA
ATOM     21  C   UNL     1      44.670   3.904   9.108  0.00  0.00    +0.000 A 
ATOM     22  N   UNL     1      43.777   4.722   9.770  0.00  0.00    +0.000 N 
ATOM     23  N   UNL     1      45.390   4.466   8.128  0.00  0.00    +0.000 NA
ATOM     24  C   UNL     1      46.229   3.654   7.436  0.00  0.00    +0.000 A 
ATOM     25  H   UNL     1      44.021   5.684   9.567  0.00  0.00    +0.000 HD
BRANCH  18  27
ATOM     26  N   UNL     1      48.365   2.077   6.353  0.00  0.00    +0.000 N 
ATOM     27  C   UNL     1      47.275   1.467   6.908  0.00  0.00    +0.000 C 
ATOM     28  O   UNL     1      47.081   0.267   6.786  0.00  0.00    +0.000 OA
ATOM     29  H   UNL     1      49.031   1.468   5.887  0.00  0.00    +0.000 HD
ATOM     30  H   UNL     1      48.696   2.992   6.622  0.00  0.00    +0.000 HD
ENDBRANCH  18  27
ENDBRANCH  17  22
ENDBRANCH   1  17
TORSDOF 4
ENDMDL
MODEL 2
REMARK VINA RESULT:    -9.092      3.095      4.204
REMARK INTER + INTRA:         -11.894
REMARK INTER:                 -11.378
REMARK INTRA:                  -0.516
REMARK UNBOUND:                -0.677
REMARK  Name = 
REMARK  4 active torsions:
REMARK  status: ('A' for Active; 'I' for Inactive)
REMARK    1  A    between atoms: C_2  and  C_4
REMARK    2  A    between atoms: N_8  and  C_9
REMARK    3  A    between atoms: C_9  and  C_10
REMARK    4  A    between atoms: C_15  and  C_16
REMARK                            x       y       z     vdW  Elec       q    Type
REMARK                         _______ _______ _______ _____ _____    ______ ____
ROOT
ATOM      1  C   UNL     1      45.659   5.510  11.972  0.00  0.00    +0.000 A 
ATOM      2  C   UNL     1      46.386   6.491  11.298  0.00  0.00    +0.000 A 
ATOM      3  C   UNL     1      47.503   7.046  11.908  0.00  0.00    +0.000 A 
ATOM      4  F   UNL     1      48.202   7.987  11.260  0.00  0.00    +0.000 F 
ATOM      5  C   UNL     1      47.910   6.652  13.182  0.00  0.00    +0.000 A 
ATOM      6  C   UNL     1      47.212   5.658  13.887  0.00  0.00    +0.000 A 
ATOM      7  C   UNL     1      46.097   5.089  13.243  0.00  0.00    +0.000 A 
ENDROOT
BRANCH   6   8
ATOM      8  C   UNL     1      47.611   5.229  15.248  0.00  0.00    +0.000 A 
ATOM      9  C   UNL     1      48.566   5.937  15.989  0.00  0.00    +0.000 A 
ATOM     10  C   UNL     1      48.899   5.503  17.262  0.00  0.00    +0.000 A 
ATOM     11  N   UNL     1      48.366   4.413  17.847  0.00  0.00    +0.000 NA
ATOM     12  C   UNL     1      47.461   3.725  17.138  0.00  0.00    +0.000 A 
ATOM     13  N   UNL     1      46.895   2.617  17.765  0.00  0.00    +0.000 N 
ATOM     14  C   UNL     1      47.053   4.098  15.863  0.00  0.00    +0.000 A 
ATOM     15  H   UNL     1      47.381   2.505  18.652  0.00  0.00    +0.000 HD
ATOM     16  H   UNL     1      46.962   1.785  17.190  0.00  0.00    +0.000 HD
ENDBRANCH   6   8
BRANCH   1  17
ATOM     17  C   UNL     1      44.437   4.871  11.357  0.00  0.00    +0.000 C 
BRANCH  17  22
ATOM     18  C   UNL     1      46.504   2.428   7.606  0.00  0.00    +0.000 A 
ATOM     19  C   UNL     1      45.876   2.055   8.767  0.00  0.00    +0.000 A 
ATOM     20  N   UNL     1      45.205   2.915   9.557  0.00  0.00    +0.000 NA
ATOM     21  C   UNL     1      45.171   4.202   9.182  0.00  0.00    +0.000 A 
ATOM     22  N   UNL     1      44.449   5.112   9.928  0.00  0.00    +0.000 N 
ATOM     23  N   UNL     1      45.774   4.670   8.081  0.00  0.00    +0.000 NA
ATOM     24  C   UNL     1      46.438   3.770   7.313  0.00  0.00    +0.000 A 
ATOM     25  H   UNL     1      44.728   6.043   9.645  0.00  0.00    +0.000 HD
BRANCH  18  27
ATOM     26  N   UNL     1      48.202   2.008   5.930  0.00  0.00    +0.000 N 
ATOM     27  C   UNL     1      47.232   1.490   6.742  0.00  0.00    +0.000 C 
ATOM     28  O   UNL     1      46.994   0.292   6.771  0.00  0.00    +0.000 OA
ATOM     29  H   UNL     1      48.750   1.337   5.400  0.00  0.00    +0.000 HD
ATOM     30  H   UNL     1      48.599   2.930   6.044  0.00  0.00    +0.000 HD
ENDBRANCH  18  27
ENDBRANCH  17  22
ENDBRANCH   1  17
TORSDOF 4
ENDMDL
MODEL 3
REMARK VINA RESULT:    -8.880      2.815      3.933
REMARK INTER + INTRA:         -11.633
REMARK INTER:                 -10.905
REMARK INTRA:                  -0.728
REMARK UNBOUND:                -0.677
REMARK  Name = 
REMARK  4 active torsions:
REMARK  status: ('A' for Active; 'I' for Inactive)
REMARK    1  A    between atoms: C_2  and  C_4
REMARK    2  A    between atoms: N_8  and  C_9
REMARK    3  A    between atoms: C_9  and  C_10
REMARK    4  A    between atoms: C_15  and  C_16
REMARK                            x       y       z     vdW  Elec       q    Type
REMARK                         _______ _______ _______ _____ _____    ______ ____
ROOT
ATOM      1  C   UNL     1      44.714   5.516  11.796  0.00  0.00    +0.000 A 
ATOM      2  C   UNL     1      44.930   6.848  11.447  0.00  0.00    +0.000 A 
ATOM      3  C   UNL     1      45.887   7.582  12.134  0.00  0.00    +0.000 A 
ATOM      4  F   UNL     1      46.095   8.862  11.797  0.00  0.00    +0.000 F 
ATOM      5  C   UNL     1      46.632   7.021  13.171  0.00  0.00    +0.000 A 
ATOM      6  C   UNL     1      46.453   5.679  13.542  0.00  0.00    +0.000 A 
ATOM      7  C   UNL     1      45.496   4.943  12.819  0.00  0.00    +0.000 A 
ENDROOT
BRANCH   6   8
ATOM      8  C   UNL     1      47.219   5.059  14.649  0.00  0.00    +0.000 A 
ATOM      9  C   UNL     1      47.133   3.687  14.922  0.00  0.00    +0.000 A 
ATOM     10  C   UNL     1      47.877   3.151  15.960  0.00  0.00    +0.000 A 
ATOM     11  N   UNL     1      48.686   3.876  16.756  0.00  0.00    +0.000 NA
ATOM     12  C   UNL     1      48.764   5.191  16.508  0.00  0.00    +0.000 A 
ATOM     13  N   UNL     1      49.627   5.924  17.318  0.00  0.00    +0.000 N 
ATOM     14  C   UNL     1      48.069   5.810  15.475  0.00  0.00    +0.000 A 
ATOM     15  H   UNL     1      49.974   5.284  18.029  0.00  0.00    +0.000 HD
ATOM     16  H   UNL     1      49.165   6.729  17.727  0.00  0.00    +0.000 HD
ENDBRANCH   6   8
BRANCH   1  17
ATOM     17  C   UNL     1      43.687   4.669  11.083  0.00  0.00    +0.000 C 
BRANCH  17  22
ATOM     18  C   UNL     1      46.408   2.282   7.735  0.00  0.00    +0.000 A 
ATOM     19  C   UNL     1      45.687   1.899   8.838  0.00  0.00    +0.000 A 
ATOM     20  N   UNL     1      44.847   2.722   9.496  0.00  0.00    +0.000 NA
ATOM     21  C   UNL     1      44.733   3.980   9.047  0.00  0.00    +0.000 A 
ATOM     22  N   UNL     1      43.844   4.844   9.653  0.00  0.00    +0.000 N 
ATOM     23  N   UNL     1      45.414   4.456   7.996  0.00  0.00    +0.000 NA
ATOM     24  C   UNL     1      46.248   3.595   7.361  0.00  0.00    +0.000 A 
ATOM     25  H   UNL     1      44.063   5.785   9.351  0.00  0.00    +0.000 HD
BRANCH  18  27
ATOM     26  N   UNL     1      48.426   1.945   6.438  0.00  0.00    +0.000 N 
ATOM     27  C   UNL     1      47.321   1.384   7.014  0.00  0.00    +0.000 C 
ATOM     28  O   UNL     1      47.108   0.183   6.957  0.00  0.00    +0.000 OA
ATOM     29  H   UNL     1      49.087   1.301   6.013  0.00  0.00    +0.000 HD
ATOM     30  H   UNL     1      48.770   2.869   6.659  0.00  0.00    +0.000 HD
ENDBRANCH  18  27
ENDBRANCH  17  22
ENDBRANCH   1  17
TORSDOF 4
ENDMDL
MODEL 4
REMARK VINA RESULT:    -8.266      3.060      3.983
REMARK INTER + INTRA:         -10.876
REMARK INTER:                 -10.455
REMARK INTRA:                  -0.420
REMARK UNBOUND:                -0.677
REMARK  Name = 
REMARK  4 active torsions:
REMARK  status: ('A' for Active; 'I' for Inactive)
REMARK    1  A    between atoms: C_2  and  C_4
REMARK    2  A    between atoms: N_8  and  C_9
REMARK    3  A    between atoms: C_9  and  C_10
REMARK    4  A    between atoms: C_15  and  C_16
REMARK                            x       y       z     vdW  Elec       q    Type
REMARK                         _______ _______ _______ _____ _____    ______ ____
ROOT
ATOM      1  C   UNL     1      44.269   4.961  11.412  0.00  0.00    +0.000 A 
ATOM      2  C   UNL     1      44.004   6.270  11.012  0.00  0.00    +0.000 A 
ATOM      3  C   UNL     1      44.666   7.317  11.639  0.00  0.00    +0.000 A 
ATOM      4  F   UNL     1      44.412   8.575  11.253  0.00  0.00    +0.000 F 
ATOM      5  C   UNL     1      45.583   7.092  12.664  0.00  0.00    +0.000 A 
ATOM      6  C   UNL     1      45.887   5.787  13.085  0.00  0.00    +0.000 A 
ATOM      7  C   UNL     1      45.225   4.737  12.422  0.00  0.00    +0.000 A 
ENDROOT
BRANCH   6   8
ATOM      8  C   UNL     1      46.846   5.516  14.182  0.00  0.00    +0.000 A 
ATOM      9  C   UNL     1      47.894   6.399  14.474  0.00  0.00    +0.000 A 
ATOM     10  C   UNL     1      48.758   6.108  15.517  0.00  0.00    +0.000 A 
ATOM     11  N   UNL     1      48.670   5.001  16.280  0.00  0.00    +0.000 NA
ATOM     12  C   UNL     1      47.677   4.147  15.997  0.00  0.00    +0.000 A 
ATOM     13  N   UNL     1      47.577   3.021  16.811  0.00  0.00    +0.000 N 
ATOM     14  C   UNL     1      46.752   4.368  14.983  0.00  0.00    +0.000 A 
ATOM     15  H   UNL     1      48.382   3.040  17.434  0.00  0.00    +0.000 HD
ATOM     16  H   UNL     1      47.541   2.167  16.267  0.00  0.00    +0.000 HD
ENDBRANCH   6   8
BRANCH   1  17
ATOM     17  C   UNL     1      43.580   3.783  10.766  0.00  0.00    +0.000 C 
BRANCH  17  22
ATOM     18  C   UNL     1      46.737   2.464   7.216  0.00  0.00    +0.000 A 
ATOM     19  C   UNL     1      46.327   3.663   7.741  0.00  0.00    +0.000 A 
ATOM     20  N   UNL     1      45.588   3.768   8.862  0.00  0.00    +0.000 NA
ATOM     21  C   UNL     1      45.231   2.630   9.477  0.00  0.00    +0.000 A 
ATOM     22  N   UNL     1      44.522   2.687  10.660  0.00  0.00    +0.000 N 
ATOM     23  N   UNL     1      45.559   1.411   9.030  0.00  0.00    +0.000 NA
ATOM     24  C   UNL     1      46.305   1.351   7.898  0.00  0.00    +0.000 A 
ATOM     25  H   UNL     1      44.142   1.766  10.844  0.00  0.00    +0.000 HD
BRANCH  18  27
ATOM     26  N   UNL     1      47.349   3.288   5.022  0.00  0.00    +0.000 N 
ATOM     27  C   UNL     1      47.547   2.350   5.996  0.00  0.00    +0.000 C 
ATOM     28  O   UNL     1      48.380   1.465   5.873  0.00  0.00    +0.000 OA
ATOM     29  H   UNL     1      47.972   3.242   4.221  0.00  0.00    +0.000 HD
ATOM     30  H   UNL     1      46.863   4.161   5.170  0.00  0.00    +0.000 HD
ENDBRANCH  18  27
ENDBRANCH  17  22
ENDBRANCH   1  17
TORSDOF 4
ENDMDL
MODEL 5
REMARK VINA RESULT:    -8.067      1.495      2.118
REMARK INTER + INTRA:         -10.629
REMARK INTER:                 -10.040
REMARK INTRA:                  -0.590
REMARK UNBOUND:                -0.677
REMARK  Name = 
REMARK  4 active torsions:
REMARK  status: ('A' for Active; 'I' for Inactive)
REMARK    1  A    between atoms: C_2  and  C_4
REMARK    2  A    between atoms: N_8  and  C_9
REMARK    3  A    between atoms: C_9  and  C_10
REMARK    4  A    between atoms: C_15  and  C_16
REMARK                            x       y       z     vdW  Elec       q    Type
REMARK                         _______ _______ _______ _____ _____    ______ ____
ROOT
ATOM      1  C   UNL     1      45.354   5.083  12.295  0.00  0.00    +0.000 A 
ATOM      2  C   UNL     1      45.546   4.417  13.505  0.00  0.00    +0.000 A 
ATOM      3  C   UNL     1      46.627   4.763  14.305  0.00  0.00    +0.000 A 
ATOM      4  F   UNL     1      46.810   4.124  15.468  0.00  0.00    +0.000 F 
ATOM      5  C   UNL     1      47.529   5.755  13.923  0.00  0.00    +0.000 A 
ATOM      6  C   UNL     1      47.361   6.458  12.719  0.00  0.00    +0.000 A 
ATOM      7  C   UNL     1      46.247   6.111  11.933  0.00  0.00    +0.000 A 
ENDROOT
BRANCH   6   8
ATOM      8  C   UNL     1      48.311   7.507  12.279  0.00  0.00    +0.000 A 
ATOM      9  C   UNL     1      47.881   8.805  11.975  0.00  0.00    +0.000 A 
ATOM     10  C   UNL     1      48.809   9.754  11.579  0.00  0.00    +0.000 A 
ATOM     11  N   UNL     1      50.126   9.509  11.448  0.00  0.00    +0.000 NA
ATOM     12  C   UNL     1      50.543   8.265  11.726  0.00  0.00    +0.000 A 
ATOM     13  N   UNL     1      51.911   8.031  11.617  0.00  0.00    +0.000 N 
ATOM     14  C   UNL     1      49.686   7.255  12.150  0.00  0.00    +0.000 A 
ATOM     15  H   UNL     1      52.323   8.882  11.241  0.00  0.00    +0.000 HD
ATOM     16  H   UNL     1      52.108   7.226  11.033  0.00  0.00    +0.000 HD
ENDBRANCH   6   8
BRANCH   1  17
ATOM     17  C   UNL     1      44.195   4.749  11.386  0.00  0.00    +0.000 C 
BRANCH  17  22
ATOM     18  C   UNL     1      46.521   2.921   7.441  0.00  0.00    +0.000 A 
ATOM     19  C   UNL     1      45.680   2.397   8.390  0.00  0.00    +0.000 A 
ATOM     20  N   UNL     1      45.000   3.151   9.275  0.00  0.00    +0.000 NA
ATOM     21  C   UNL     1      45.175   4.479   9.221  0.00  0.00    +0.000 A 
ATOM     22  N   UNL     1      44.458   5.298  10.070  0.00  0.00    +0.000 N 
ATOM     23  N   UNL     1      45.993   5.085   8.350  0.00  0.00    +0.000 NA
ATOM     24  C   UNL     1      46.659   4.289   7.476  0.00  0.00    +0.000 A 
ATOM     25  H   UNL     1      44.885   6.216  10.058  0.00  0.00    +0.000 HD
BRANCH  18  27
ATOM     26  N   UNL     1      47.009   2.317   5.147  0.00  0.00    +0.000 N 
ATOM     27  C   UNL     1      47.259   2.100   6.473  0.00  0.00    +0.000 C 
ATOM     28  O   UNL     1      48.082   1.276   6.843  0.00  0.00    +0.000 OA
ATOM     29  H   UNL     1      47.585   1.799   4.490  0.00  0.00    +0.000 HD
ATOM     30  H   UNL     1      46.535   3.134   4.789  0.00  0.00    +0.000 HD
ENDBRANCH  18  27
ENDBRANCH  17  22
ENDBRANCH   1  17
TORSDOF 4
ENDMDL
MODEL 6
REMARK VINA RESULT:    -7.968      1.757      2.367
REMARK INTER + INTRA:         -10.507
REMARK INTER:                 -10.061
REMARK INTRA:                  -0.446
REMARK UNBOUND:                -0.677
REMARK  Name = 
REMARK  4 active torsions:
REMARK  status: ('A' for Active; 'I' for Inactive)
REMARK    1  A    between atoms: C_2  and  C_4
REMARK    2  A    between atoms: N_8  and  C_9
REMARK    3  A    between atoms: C_9  and  C_10
REMARK    4  A    between atoms: C_15  and  C_16
REMARK                            x       y       z     vdW  Elec       q    Type
REMARK                         _______ _______ _______ _____ _____    ______ ____
ROOT
ATOM      1  C   UNL     1      44.385   4.888  11.584  0.00  0.00    +0.000 A 
ATOM      2  C   UNL     1      45.256   4.548  12.618  0.00  0.00    +0.000 A 
ATOM      3  C   UNL     1      45.919   5.555  13.305  0.00  0.00    +0.000 A 
ATOM      4  F   UNL     1      46.755   5.227  14.300  0.00  0.00    +0.000 F 
ATOM      5  C   UNL     1      45.741   6.899  12.981  0.00  0.00    +0.000 A 
ATOM      6  C   UNL     1      44.863   7.283  11.955  0.00  0.00    +0.000 A 
ATOM      7  C   UNL     1      44.180   6.250  11.285  0.00  0.00    +0.000 A 
ENDROOT
BRANCH   6   8
ATOM      8  C   UNL     1      44.664   8.702  11.577  0.00  0.00    +0.000 A 
ATOM      9  C   UNL     1      45.466   9.721  12.107  0.00  0.00    +0.000 A 
ATOM     10  C   UNL     1      45.249  11.032  11.715  0.00  0.00    +0.000 A 
ATOM     11  N   UNL     1      44.289  11.408  10.849  0.00  0.00    +0.000 NA
ATOM     12  C   UNL     1      43.510  10.438  10.348  0.00  0.00    +0.000 A 
ATOM     13  N   UNL     1      42.540  10.835   9.431  0.00  0.00    +0.000 N 
ATOM     14  C   UNL     1      43.668   9.096  10.670  0.00  0.00    +0.000 A 
ATOM     15  H   UNL     1      42.570  11.852   9.397  0.00  0.00    +0.000 HD
ATOM     16  H   UNL     1      41.620  10.493   9.686  0.00  0.00    +0.000 HD
ENDBRANCH   6   8
BRANCH   1  17
ATOM     17  C   UNL     1      43.637   3.835  10.803  0.00  0.00    +0.000 C 
BRANCH  17  22
ATOM     18  C   UNL     1      46.723   2.451   7.215  0.00  0.00    +0.000 A 
ATOM     19  C   UNL     1      46.405   3.651   7.800  0.00  0.00    +0.000 A 
ATOM     20  N   UNL     1      45.662   3.756   8.919  0.00  0.00    +0.000 NA
ATOM     21  C   UNL     1      45.206   2.620   9.468  0.00  0.00    +0.000 A 
ATOM     22  N   UNL     1      44.488   2.672  10.646  0.00  0.00    +0.000 N 
ATOM     23  N   UNL     1      45.439   1.404   8.958  0.00  0.00    +0.000 NA
ATOM     24  C   UNL     1      46.192   1.343   7.831  0.00  0.00    +0.000 A 
ATOM     25  H   UNL     1      44.031   1.777  10.776  0.00  0.00    +0.000 HD
BRANCH  18  27
ATOM     26  N   UNL     1      47.323   3.257   5.011  0.00  0.00    +0.000 N 
ATOM     27  C   UNL     1      47.537   2.336   5.998  0.00  0.00    +0.000 C 
ATOM     28  O   UNL     1      48.386   1.465   5.888  0.00  0.00    +0.000 OA
ATOM     29  H   UNL     1      47.948   3.213   4.212  0.00  0.00    +0.000 HD
ATOM     30  H   UNL     1      46.821   4.123   5.147  0.00  0.00    +0.000 HD
ENDBRANCH  18  27
ENDBRANCH  17  22
ENDBRANCH   1  17
TORSDOF 4
ENDMDL
MODEL 7
REMARK VINA RESULT:    -7.840      2.577      3.332
REMARK INTER + INTRA:         -10.350
REMARK INTER:                  -9.787
REMARK INTRA:                  -0.563
REMARK UNBOUND:                -0.677
REMARK  Name = 
REMARK  4 active torsions:
REMARK  status: ('A' for Active; 'I' for Inactive)
REMARK    1  A    between atoms: C_2  and  C_4
REMARK    2  A    between atoms: N_8  and  C_9
REMARK    3  A    between atoms: C_9  and  C_10
REMARK    4  A    between atoms: C_15  and  C_16
REMARK                            x       y       z     vdW  Elec       q    Type
REMARK                         _______ _______ _______ _____ _____    ______ ____
ROOT
ATOM      1  C   UNL     1      45.015   6.581  11.683  0.00  0.00    +0.000 A 
ATOM      2  C   UNL     1      44.371   7.810  11.554  0.00  0.00    +0.000 A 
ATOM      3  C   UNL     1      44.972   8.949  12.072  0.00  0.00    +0.000 A 
ATOM      4  F   UNL     1      44.353  10.130  11.946  0.00  0.00    +0.000 F 
ATOM      5  C   UNL     1      46.202   8.890  12.726  0.00  0.00    +0.000 A 
ATOM      6  C   UNL     1      46.888   7.674  12.864  0.00  0.00    +0.000 A 
ATOM      7  C   UNL     1      46.275   6.533  12.311  0.00  0.00    +0.000 A 
ENDROOT
BRANCH   6   8
ATOM      8  C   UNL     1      48.190   7.578  13.567  0.00  0.00    +0.000 A 
ATOM      9  C   UNL     1      48.281   7.088  14.876  0.00  0.00    +0.000 A 
ATOM     10  C   UNL     1      49.521   7.007  15.488  0.00  0.00    +0.000 A 
ATOM     11  N   UNL     1      50.673   7.388  14.904  0.00  0.00    +0.000 NA
ATOM     12  C   UNL     1      50.591   7.868  13.655  0.00  0.00    +0.000 A 
ATOM     13  N   UNL     1      51.792   8.230  13.050  0.00  0.00    +0.000 N 
ATOM     14  C   UNL     1      49.392   7.967  12.958  0.00  0.00    +0.000 A 
ATOM     15  H   UNL     1      52.516   8.130  13.758  0.00  0.00    +0.000 HD
ATOM     16  H   UNL     1      51.755   9.172  12.678  0.00  0.00    +0.000 HD
ENDBRANCH   6   8
BRANCH   1  17
ATOM     17  C   UNL     1      44.408   5.310  11.138  0.00  0.00    +0.000 C 
BRANCH  17  22
ATOM     18  C   UNL     1      46.380   2.163   7.894  0.00  0.00    +0.000 A 
ATOM     19  C   UNL     1      45.679   2.023   9.065  0.00  0.00    +0.000 A 
ATOM     20  N   UNL     1      45.060   3.047   9.685  0.00  0.00    +0.000 NA
ATOM     21  C   UNL     1      45.157   4.261   9.124  0.00  0.00    +0.000 A 
ATOM     22  N   UNL     1      44.494   5.330   9.691  0.00  0.00    +0.000 N 
ATOM     23  N   UNL     1      45.840   4.505   7.997  0.00  0.00    +0.000 NA
ATOM     24  C   UNL     1      46.447   3.446   7.404  0.00  0.00    +0.000 A 
ATOM     25  H   UNL     1      44.867   6.182   9.289  0.00  0.00    +0.000 HD
BRANCH  18  27
ATOM     26  N   UNL     1      46.699  -0.219   7.592  0.00  0.00    +0.000 N 
ATOM     27  C   UNL     1      47.051   1.047   7.215  0.00  0.00    +0.000 C 
ATOM     28  O   UNL     1      47.871   1.248   6.332  0.00  0.00    +0.000 OA
ATOM     29  H   UNL     1      47.111  -0.978   7.057  0.00  0.00    +0.000 HD
ATOM     30  H   UNL     1      45.870  -0.438   8.126  0.00  0.00    +0.000 HD
ENDBRANCH  18  27
ENDBRANCH  17  22
ENDBRANCH   1  17
TORSDOF 4
ENDMDL
MODEL 8
REMARK VINA RESULT:    -7.804      5.304      7.876
REMARK INTER + INTRA:         -10.306
REMARK INTER:                  -9.639
REMARK INTRA:                  -0.667
REMARK UNBOUND:                -0.677
REMARK  Name = 
REMARK  4 active torsions:
REMARK  status: ('A' for Active; 'I' for Inactive)
REMARK    1  A    between atoms: C_2  and  C_4
REMARK    2  A    between atoms: N_8  and  C_9
REMARK    3  A    between atoms: C_9  and  C_10
REMARK    4  A    between atoms: C_15  and  C_16
REMARK                            x       y       z     vdW  Elec       q    Type
REMARK                         _______ _______ _______ _____ _____    ______ ____
ROOT
ATOM      1  C   UNL     1      48.203   6.661  14.408  0.00  0.00    +0.000 A 
ATOM      2  C   UNL     1      48.950   7.461  13.545  0.00  0.00    +0.000 A 
ATOM      3  C   UNL     1      48.596   7.526  12.204  0.00  0.00    +0.000 A 
ATOM      4  F   UNL     1      49.314   8.295  11.375  0.00  0.00    +0.000 F 
ATOM      5  C   UNL     1      47.515   6.804  11.699  0.00  0.00    +0.000 A 
ATOM      6  C   UNL     1      46.730   5.999  12.540  0.00  0.00    +0.000 A 
ATOM      7  C   UNL     1      47.089   5.964  13.901  0.00  0.00    +0.000 A 
ENDROOT
BRANCH   6   8
ATOM      8  C   UNL     1      45.584   5.209  12.030  0.00  0.00    +0.000 A 
ATOM      9  C   UNL     1      44.743   4.497  12.894  0.00  0.00    +0.000 A 
ATOM     10  C   UNL     1      43.678   3.781  12.371  0.00  0.00    +0.000 A 
ATOM     11  N   UNL     1      43.396   3.708  11.057  0.00  0.00    +0.000 NA
ATOM     12  C   UNL     1      44.205   4.377  10.224  0.00  0.00    +0.000 A 
ATOM     13  N   UNL     1      43.885   4.319   8.869  0.00  0.00    +0.000 N 
ATOM     14  C   UNL     1      45.284   5.137  10.661  0.00  0.00    +0.000 A 
ATOM     15  H   UNL     1      43.107   3.669   8.782  0.00  0.00    +0.000 HD
ATOM     16  H   UNL     1      44.680   4.035   8.308  0.00  0.00    +0.000 HD
ENDBRANCH   6   8
BRANCH   1  17
ATOM     17  C   UNL     1      48.542   6.553  15.876  0.00  0.00    +0.000 C 
BRANCH  17  22
ATOM     18  C   UNL     1      50.928   2.506  17.372  0.00  0.00    +0.000 A 
ATOM     19  C   UNL     1      51.143   3.854  17.507  0.00  0.00    +0.000 A 
ATOM     20  N   UNL     1      50.230   4.788  17.175  0.00  0.00    +0.000 NA
ATOM     21  C   UNL     1      49.061   4.360  16.676  0.00  0.00    +0.000 A 
ATOM     22  N   UNL     1      48.073   5.275  16.374  0.00  0.00    +0.000 N 
ATOM     23  N   UNL     1      48.765   3.068  16.482  0.00  0.00    +0.000 NA
ATOM     24  C   UNL     1      49.712   2.161  16.829  0.00  0.00    +0.000 A 
ATOM     25  H   UNL     1      47.379   4.812  15.799  0.00  0.00    +0.000 HD
BRANCH  18  27
ATOM     26  N   UNL     1      51.453   0.253  18.089  0.00  0.00    +0.000 N 
ATOM     27  C   UNL     1      51.921   1.487  17.738  0.00  0.00    +0.000 C 
ATOM     28  O   UNL     1      53.117   1.733  17.702  0.00  0.00    +0.000 OA
ATOM     29  H   UNL     1      52.154  -0.462  18.261  0.00  0.00    +0.000 HD
ATOM     30  H   UNL     1      50.514  -0.069  17.902  0.00  0.00    +0.000 HD
ENDBRANCH  18  27
ENDBRANCH  17  22
ENDBRANCH   1  17
TORSDOF 4
ENDMDL
MODEL 9
REMARK VINA RESULT:    -7.737      4.839      8.044
REMARK INTER + INTRA:         -10.222
REMARK INTER:                  -9.745
REMARK INTRA:                  -0.477
REMARK UNBOUND:                -0.677
REMARK  Name = 
REMARK  4 active torsions:
REMARK  status: ('A' for Active; 'I' for Inactive)
REMARK    1  A    between atoms: C_2  and  C_4
REMARK    2  A    between atoms: N_8  and  C_9
REMARK    3  A    between atoms: C_9  and  C_10
REMARK    4  A    between atoms: C_15  and  C_16
REMARK                            x       y       z     vdW  Elec       q    Type
REMARK                         _______ _______ _______ _____ _____    ______ ____
ROOT
ATOM      1  C   UNL     1      45.288   5.172  12.642  0.00  0.00    +0.000 A 
ATOM      2  C   UNL     1      43.935   5.501  12.719  0.00  0.00    +0.000 A 
ATOM      3  C   UNL     1      43.101   5.195  11.653  0.00  0.00    +0.000 A 
ATOM      4  F   UNL     1      41.801   5.510  11.729  0.00  0.00    +0.000 F 
ATOM      5  C   UNL     1      43.586   4.574  10.502  0.00  0.00    +0.000 A 
ATOM      6  C   UNL     1      44.938   4.215  10.392  0.00  0.00    +0.000 A 
ATOM      7  C   UNL     1      45.764   4.511  11.493  0.00  0.00    +0.000 A 
ENDROOT
BRANCH   6   8
ATOM      8  C   UNL     1      45.486   3.568   9.176  0.00  0.00    +0.000 A 
ATOM      9  C   UNL     1      45.809   4.310   8.033  0.00  0.00    +0.000 A 
ATOM     10  C   UNL     1      46.329   3.662   6.925  0.00  0.00    +0.000 A 
ATOM     11  N   UNL     1      46.537   2.333   6.861  0.00  0.00    +0.000 NA
ATOM     12  C   UNL     1      46.219   1.615   7.947  0.00  0.00    +0.000 A 
ATOM     13  N   UNL     1      46.467   0.247   7.881  0.00  0.00    +0.000 N 
ATOM     14  C   UNL     1      45.711   2.184   9.110  0.00  0.00    +0.000 A 
ATOM     15  H   UNL     1      46.776   0.053   6.931  0.00  0.00    +0.000 HD
ATOM     16  H   UNL     1      45.647  -0.296   8.129  0.00  0.00    +0.000 HD
ENDBRANCH   6   8
BRANCH   1  17
ATOM     17  C   UNL     1      46.242   5.480  13.772  0.00  0.00    +0.000 C 
BRANCH  17  22
ATOM     18  C   UNL     1      49.305   4.039  17.356  0.00  0.00    +0.000 A 
ATOM     19  C   UNL     1      48.931   5.255  16.842  0.00  0.00    +0.000 A 
ATOM     20  N   UNL     1      47.908   5.412  15.979  0.00  0.00    +0.000 NA
ATOM     21  C   UNL     1      47.242   4.311  15.601  0.00  0.00    +0.000 A 
ATOM     22  N   UNL     1      46.152   4.426  14.763  0.00  0.00    +0.000 N 
ATOM     23  N   UNL     1      47.547   3.077  16.026  0.00  0.00    +0.000 NA
ATOM     24  C   UNL     1      48.583   2.964  16.895  0.00  0.00    +0.000 A 
ATOM     25  H   UNL     1      45.934   3.505  14.401  0.00  0.00    +0.000 HD
BRANCH  18  27
ATOM     26  N   UNL     1      51.273   2.827  18.079  0.00  0.00    +0.000 N 
ATOM     27  C   UNL     1      50.417   3.869  18.301  0.00  0.00    +0.000 C 
ATOM     28  O   UNL     1      50.579   4.645  19.230  0.00  0.00    +0.000 OA
ATOM     29  H   UNL     1      52.081   2.771  18.693  0.00  0.00    +0.000 HD
ATOM     30  H   UNL     1      51.328   2.317  17.209  0.00  0.00    +0.000 HD
ENDBRANCH  18  27
ENDBRANCH  17  22
ENDBRANCH   1  17
TORSDOF 4
ENDMDL
