MODEL 1
REMARK VINA RESULT:    -9.115      0.000      0.000
REMARK INTER + INTRA:         -13.485
REMARK INTER:                 -12.312
REMARK INTRA:                  -1.174
REMARK UNBOUND:                -1.174
REMARK  Name = 
REMARK  6 active torsions:
REMARK  status: ('A' for Active; 'I' for Inactive)
REMARK    1  A    between atoms: C_2  and  C_4
REMARK    2  A    between atoms: C_7  and  O_8
REMARK    3  A    between atoms: O_8  and  C_9
REMARK    4  A    between atoms: C_9  and  C_10
REMARK    5  A    between atoms: C_10  and  C_13
REMARK    6  A    between atoms: C_17  and  C_18
REMARK                            x       y       z     vdW  Elec       q    Type
REMARK                         _______ _______ _______ _____ _____    ______ ____
ROOT
ATOM      1  C   UNL     1      43.354   4.581  12.648  0.00  0.00    +0.000 C 
ATOM      2  F   UNL     1      42.363   5.504  12.473  0.00  0.00    +0.000 F 
ATOM      3  F   UNL     1      42.986   3.850  13.742  0.00  0.00    +0.000 F 
ENDROOT
BRANCH   1   4
ATOM      4  C   UNL     1      44.708   5.242  12.838  0.00  0.00    +0.000 A 
ATOM      5  C   UNL     1      45.829   4.478  13.178  0.00  0.00    +0.000 A 
ATOM      6  C   UNL     1      47.073   5.086  13.309  0.00  0.00    +0.000 A 
ATOM      7  C   UNL     1      47.209   6.459  13.085  0.00  0.00    +0.000 A 
ATOM      8  C   UNL     1      46.114   7.257  12.708  0.00  0.00    +0.000 A 
ATOM      9  C   UNL     1      44.861   6.623  12.614  0.00  0.00    +0.000 A 
BRANCH   8  10
ATOM     10  C   UNL     1      46.282   8.690  12.367  0.00  0.00    +0.000 A 
ATOM     11  C   UNL     1      47.560   9.246  12.191  0.00  0.00    +0.000 A 
ATOM     12  C   UNL     1      47.687  10.576  11.822  0.00  0.00    +0.000 A 
ATOM     13  N   UNL     1      46.642  11.398  11.608  0.00  0.00    +0.000 NA
ATOM     14  C   UNL     1      45.416  10.861  11.780  0.00  0.00    +0.000 A 
ATOM     15  C   UNL     1      45.191   9.544  12.158  0.00  0.00    +0.000 A 
ENDBRANCH   8  10
ENDBRANCH   1   4
BRANCH   1  16
ATOM     16  C   UNL     1      43.399   3.657  11.420  0.00  0.00    +0.000 C 
BRANCH  16  17
ATOM     17  O   UNL     1      43.710   4.403  10.237  0.00  0.00    +0.000 OA
BRANCH  17  21
ATOM     18  C   UNL     1      46.473   2.491   7.761  0.00  0.00    +0.000 A 
ATOM     19  C   UNL     1      46.368   3.885   7.692  0.00  0.00    +0.000 A 
ATOM     20  C   UNL     1      45.454   4.566   8.506  0.00  0.00    +0.000 A 
ATOM     21  C   UNL     1      44.638   3.860   9.392  0.00  0.00    +0.000 A 
ATOM     22  C   UNL     1      44.736   2.468   9.451  0.00  0.00    +0.000 A 
ATOM     23  C   UNL     1      45.643   1.783   8.637  0.00  0.00    +0.000 A 
BRANCH  18  25
ATOM     24  N   UNL     1      48.512   2.409   6.433  0.00  0.00    +0.000 N 
ATOM     25  C   UNL     1      47.422   1.733   6.906  0.00  0.00    +0.000 C 
ATOM     26  O   UNL     1      47.262   0.544   6.664  0.00  0.00    +0.000 OA
ATOM     27  H   UNL     1      49.205   1.850   5.949  0.00  0.00    +0.000 HD
ATOM     28  H   UNL     1      48.813   3.289   6.823  0.00  0.00    +0.000 HD
ENDBRANCH  18  25
ENDBRANCH  17  21
ENDBRANCH  16  17
ENDBRANCH   1  16
TORSDOF 6
ENDMDL
MODEL 2
REMARK VINA RESULT:    -9.114      2.626      3.921
REMARK INTER + INTRA:         -13.484
REMARK INTER:                 -12.281
REMARK INTRA:                  -1.203
REMARK UNBOUND:                -1.174
REMARK  Name = 
REMARK  6 active torsions:
REMARK  status: ('A' for Active; 'I' for Inactive)
REMARK    1  A    between atoms: C_2  and  C_4
REMARK    2  A    between atoms: C_7  and  O_8
REMARK    3  A    between atoms: O_8  and  C_9
REMARK    4  A    between atoms: C_9  and  C_10
REMARK    5  A    between atoms: C_10  and  C_13
REMARK    6  A    between atoms: C_17  and  C_18
REMARK                            x       y       z     vdW  Elec       q    Type
REMARK                         _______ _______ _______ _____ _____    ______ ____
ROOT
ATOM      1  C   UNL     1      43.708   4.655  12.487  0.00  0.00    +0.000 C 
ATOM      2  F   UNL     1      42.799   5.377  13.206  0.00  0.00    +0.000 F 
ATOM      3  F   UNL     1      43.533   3.356  12.873  0.00  0.00    +0.000 F 
ENDROOT
BRANCH   1   4
ATOM      4  C   UNL     1      45.128   5.133  12.735  0.00  0.00    +0.000 A 
ATOM      5  C   UNL     1      45.753   6.000  11.833  0.00  0.00    +0.000 A 
ATOM      6  C   UNL     1      47.038   6.466  12.090  0.00  0.00    +0.000 A 
ATOM      7  C   UNL     1      47.701   6.081  13.260  0.00  0.00    +0.000 A 
ATOM      8  C   UNL     1      47.095   5.239  14.209  0.00  0.00    +0.000 A 
ATOM      9  C   UNL     1      45.808   4.757  13.909  0.00  0.00    +0.000 A 
BRANCH   8  10
ATOM     10  C   UNL     1      47.758   4.922  15.497  0.00  0.00    +0.000 A 
ATOM     11  C   UNL     1      47.545   3.690  16.136  0.00  0.00    +0.000 A 
ATOM     12  C   UNL     1      48.216   3.400  17.313  0.00  0.00    +0.000 A 
ATOM     13  N   UNL     1      49.089   4.237  17.904  0.00  0.00    +0.000 NA
ATOM     14  C   UNL     1      49.291   5.421  17.289  0.00  0.00    +0.000 A 
ATOM     15  C   UNL     1      48.657   5.803  16.114  0.00  0.00    +0.000 A 
ENDBRANCH   8  10
ENDBRANCH   1   4
BRANCH   1  16
ATOM     16  C   UNL     1      43.376   4.782  10.991  0.00  0.00    +0.000 C 
BRANCH  16  17
ATOM     17  O   UNL     1      43.429   3.500  10.350  0.00  0.00    +0.000 OA
BRANCH  17  21
ATOM     18  C   UNL     1      46.449   2.657   7.596  0.00  0.00    +0.000 A 
ATOM     19  C   UNL     1      46.002   3.979   7.712  0.00  0.00    +0.000 A 
ATOM     20  C   UNL     1      44.991   4.304   8.625  0.00  0.00    +0.000 A 
ATOM     21  C   UNL     1      44.418   3.314   9.425  0.00  0.00    +0.000 A 
ATOM     22  C   UNL     1      44.858   1.994   9.299  0.00  0.00    +0.000 A 
ATOM     23  C   UNL     1      45.863   1.662   8.386  0.00  0.00    +0.000 A 
BRANCH  18  25
ATOM     24  N   UNL     1      47.587   2.985   5.468  0.00  0.00    +0.000 N 
ATOM     25  C   UNL     1      47.511   2.271   6.632  0.00  0.00    +0.000 C 
ATOM     26  O   UNL     1      48.312   1.379   6.879  0.00  0.00    +0.000 OA
ATOM     27  H   UNL     1      48.384   2.785   4.877  0.00  0.00    +0.000 HD
ATOM     28  H   UNL     1      47.132   3.878   5.352  0.00  0.00    +0.000 HD
ENDBRANCH  18  25
ENDBRANCH  17  21
ENDBRANCH  16  17
ENDBRANCH   1  16
TORSDOF 6
ENDMDL
MODEL 3
REMARK VINA RESULT:    -8.843      0.838      1.249
REMARK INTER + INTRA:         -13.119
REMARK INTER:                 -11.973
REMARK INTRA:                  -1.146
REMARK UNBOUND:                -1.174
REMARK  Name = 
REMARK  6 active torsions:
REMARK  status: ('A' for Active; 'I' for Inactive)
REMARK    1  A    between atoms: C_2  and  C_4
REMARK    2  A    between atoms: C_7  and  O_8
REMARK    3  A    between atoms: O_8  and  C_9
REMARK    4  A    between atoms: C_9  and  C_10
REMARK    5  A    between atoms: C_10  and  C_13
REMARK    6  A    between atoms: C_17  and  C_18
REMARK                            x       y       z     vdW  Elec       q    Type
REMARK                         _______ _______ _______ _____ _____    ______ ____
ROOT
ATOM      1  C   UNL     1      43.742   4.596  12.514  0.00  0.00    +0.000 C 
ATOM      2  F   UNL     1      42.725   5.118  13.260  0.00  0.00    +0.000 F 
ATOM      3  F   UNL     1      43.689   3.246  12.713  0.00  0.00    +0.000 F 
ENDROOT
BRANCH   1   4
ATOM      4  C   UNL     1      45.087   5.175  12.917  0.00  0.00    +0.000 A 
ATOM      5  C   UNL     1      45.996   4.412  13.657  0.00  0.00    +0.000 A 
ATOM      6  C   UNL     1      47.241   4.935  13.987  0.00  0.00    +0.000 A 
ATOM      7  C   UNL     1      47.595   6.220  13.563  0.00  0.00    +0.000 A 
ATOM      8  C   UNL     1      46.724   7.008  12.789  0.00  0.00    +0.000 A 
ATOM      9  C   UNL     1      45.459   6.467  12.497  0.00  0.00    +0.000 A 
BRANCH   8  10
ATOM     10  C   UNL     1      47.144   8.325  12.251  0.00  0.00    +0.000 A 
ATOM     11  C   UNL     1      46.233   9.389  12.153  0.00  0.00    +0.000 A 
ATOM     12  C   UNL     1      46.664  10.624  11.694  0.00  0.00    +0.000 A 
ATOM     13  N   UNL     1      47.934  10.886  11.330  0.00  0.00    +0.000 NA
ATOM     14  C   UNL     1      48.805   9.861  11.424  0.00  0.00    +0.000 A 
ATOM     15  C   UNL     1      48.464   8.589  11.861  0.00  0.00    +0.000 A 
ENDBRANCH   8  10
ENDBRANCH   1   4
BRANCH   1  16
ATOM     16  C   UNL     1      43.477   4.895  11.029  0.00  0.00    +0.000 C 
BRANCH  16  17
ATOM     17  O   UNL     1      43.384   3.678  10.277  0.00  0.00    +0.000 OA
BRANCH  17  21
ATOM     18  C   UNL     1      46.478   2.596   7.693  0.00  0.00    +0.000 A 
ATOM     19  C   UNL     1      46.107   3.944   7.763  0.00  0.00    +0.000 A 
ATOM     20  C   UNL     1      45.075   4.350   8.617  0.00  0.00    +0.000 A 
ATOM     21  C   UNL     1      44.405   3.413   9.406  0.00  0.00    +0.000 A 
ATOM     22  C   UNL     1      44.768   2.066   9.326  0.00  0.00    +0.000 A 
ATOM     23  C   UNL     1      45.794   1.655   8.471  0.00  0.00    +0.000 A 
BRANCH  18  25
ATOM     24  N   UNL     1      47.980   2.990   5.817  0.00  0.00    +0.000 N 
ATOM     25  C   UNL     1      47.560   2.126   6.790  0.00  0.00    +0.000 C 
ATOM     26  O   UNL     1      48.085   1.029   6.931  0.00  0.00    +0.000 OA
ATOM     27  H   UNL     1      48.792   2.699   5.287  0.00  0.00    +0.000 HD
ATOM     28  H   UNL     1      47.767   3.976   5.842  0.00  0.00    +0.000 HD
ENDBRANCH  18  25
ENDBRANCH  17  21
ENDBRANCH  16  17
ENDBRANCH   1  16
TORSDOF 6
ENDMDL
MODEL 4
REMARK VINA RESULT:    -8.316      1.342      2.108
REMARK INTER + INTRA:         -12.407
REMARK INTER:                 -11.508
REMARK INTRA:                  -0.899
REMARK UNBOUND:                -1.174
REMARK  Name = 
REMARK  6 active torsions:
REMARK  status: ('A' for Active; 'I' for Inactive)
REMARK    1  A    between atoms: C_2  and  C_4
REMARK    2  A    between atoms: C_7  and  O_8
REMARK    3  A    between atoms: O_8  and  C_9
REMARK    4  A    between atoms: C_9  and  C_10
REMARK    5  A    between atoms: C_10  and  C_13
REMARK    6  A    between atoms: C_17  and  C_18
REMARK                            x       y       z     vdW  Elec       q    Type
REMARK                         _______ _______ _______ _____ _____    ______ ____
ROOT
ATOM      1  C   UNL     1      44.171   4.169  12.472  0.00  0.00    +0.000 C 
ATOM      2  F   UNL     1      43.457   4.157  13.636  0.00  0.00    +0.000 F 
ATOM      3  F   UNL     1      44.954   3.050  12.510  0.00  0.00    +0.000 F 
ENDROOT
BRANCH   1   4
ATOM      4  C   UNL     1      44.998   5.435  12.334  0.00  0.00    +0.000 A 
ATOM      5  C   UNL     1      46.393   5.387  12.439  0.00  0.00    +0.000 A 
ATOM      6  C   UNL     1      47.145   6.544  12.271  0.00  0.00    +0.000 A 
ATOM      7  C   UNL     1      46.510   7.756  11.979  0.00  0.00    +0.000 A 
ATOM      8  C   UNL     1      45.114   7.841  11.832  0.00  0.00    +0.000 A 
ATOM      9  C   UNL     1      44.375   6.662  12.039  0.00  0.00    +0.000 A 
BRANCH   8  10
ATOM     10  C   UNL     1      44.456   9.103  11.416  0.00  0.00    +0.000 A 
ATOM     11  C   UNL     1      43.226   9.088  10.739  0.00  0.00    +0.000 A 
ATOM     12  C   UNL     1      42.608  10.283  10.407  0.00  0.00    +0.000 A 
ATOM     13  N   UNL     1      43.115  11.495  10.701  0.00  0.00    +0.000 NA
ATOM     14  C   UNL     1      44.298  11.506  11.349  0.00  0.00    +0.000 A 
ATOM     15  C   UNL     1      44.994  10.362  11.713  0.00  0.00    +0.000 A 
ENDBRANCH   8  10
ENDBRANCH   1   4
BRANCH   1  16
ATOM     16  C   UNL     1      43.197   4.059  11.287  0.00  0.00    +0.000 C 
BRANCH  16  17
ATOM     17  O   UNL     1      43.770   4.635  10.106  0.00  0.00    +0.000 OA
BRANCH  17  21
ATOM     18  C   UNL     1      46.444   2.439   7.774  0.00  0.00    +0.000 A 
ATOM     19  C   UNL     1      45.499   1.744   8.538  0.00  0.00    +0.000 A 
ATOM     20  C   UNL     1      44.583   2.443   9.333  0.00  0.00    +0.000 A 
ATOM     21  C   UNL     1      44.606   3.838   9.374  0.00  0.00    +0.000 A 
ATOM     22  C   UNL     1      45.558   4.529   8.620  0.00  0.00    +0.000 A 
ATOM     23  C   UNL     1      46.478   3.837   7.828  0.00  0.00    +0.000 A 
BRANCH  18  25
ATOM     24  N   UNL     1      48.343   2.505   6.250  0.00  0.00    +0.000 N 
ATOM     25  C   UNL     1      47.440   1.733   6.927  0.00  0.00    +0.000 C 
ATOM     26  O   UNL     1      47.481   0.511   6.865  0.00  0.00    +0.000 OA
ATOM     27  H   UNL     1      49.082   2.005   5.771  0.00  0.00    +0.000 HD
ATOM     28  H   UNL     1      48.509   3.472   6.484  0.00  0.00    +0.000 HD
ENDBRANCH  18  25
ENDBRANCH  17  21
ENDBRANCH  16  17
ENDBRANCH   1  16
TORSDOF 6
ENDMDL
MODEL 5
REMARK VINA RESULT:    -8.175      1.749      2.500
REMARK INTER + INTRA:         -12.216
REMARK INTER:                 -11.521
REMARK INTRA:                  -0.695
REMARK UNBOUND:                -1.174
REMARK  Name = 
REMARK  6 active torsions:
REMARK  status: ('A' for Active; 'I' for Inactive)
REMARK    1  A    between atoms: C_2  and  C_4
REMARK    2  A    between atoms: C_7  and  O_8
REMARK    3  A    between atoms: O_8  and  C_9
REMARK    4  A    between atoms: C_9  and  C_10
REMARK    5  A    between atoms: C_10  and  C_13
REMARK    6  A    between atoms: C_17  and  C_18
REMARK                            x       y       z     vdW  Elec       q    Type
REMARK                         _______ _______ _______ _____ _____    ______ ____
ROOT
ATOM      1  C   UNL     1      44.307   4.198  12.497  0.00  0.00    +0.000 C 
ATOM      2  F   UNL     1      43.591   4.169  13.658  0.00  0.00    +0.000 F 
ATOM      3  F   UNL     1      45.293   3.264  12.649  0.00  0.00    +0.000 F 
ENDROOT
BRANCH   1   4
ATOM      4  C   UNL     1      44.874   5.579  12.221  0.00  0.00    +0.000 A 
ATOM      5  C   UNL     1      44.033   6.628  11.833  0.00  0.00    +0.000 A 
ATOM      6  C   UNL     1      44.555   7.899  11.623  0.00  0.00    +0.000 A 
ATOM      7  C   UNL     1      45.919   8.137  11.817  0.00  0.00    +0.000 A 
ATOM      8  C   UNL     1      46.792   7.120  12.241  0.00  0.00    +0.000 A 
ATOM      9  C   UNL     1      46.245   5.836  12.414  0.00  0.00    +0.000 A 
BRANCH   8  10
ATOM     10  C   UNL     1      48.215   7.401  12.550  0.00  0.00    +0.000 A 
ATOM     11  C   UNL     1      49.117   7.764  11.536  0.00  0.00    +0.000 A 
ATOM     12  C   UNL     1      50.430   8.070  11.860  0.00  0.00    +0.000 A 
ATOM     13  N   UNL     1      50.916   8.051  13.115  0.00  0.00    +0.000 NA
ATOM     14  C   UNL     1      50.048   7.700  14.086  0.00  0.00    +0.000 A 
ATOM     15  C   UNL     1      48.720   7.367  13.857  0.00  0.00    +0.000 A 
ENDBRANCH   8  10
ENDBRANCH   1   4
BRANCH   1  16
ATOM     16  C   UNL     1      43.393   3.775  11.335  0.00  0.00    +0.000 C 
BRANCH  16  17
ATOM     17  O   UNL     1      43.752   4.466  10.132  0.00  0.00    +0.000 OA
BRANCH  17  21
ATOM     18  C   UNL     1      46.419   2.333   7.733  0.00  0.00    +0.000 A 
ATOM     19  C   UNL     1      46.426   3.730   7.659  0.00  0.00    +0.000 A 
ATOM     20  C   UNL     1      45.548   4.484   8.447  0.00  0.00    +0.000 A 
ATOM     21  C   UNL     1      44.656   3.848   9.312  0.00  0.00    +0.000 A 
ATOM     22  C   UNL     1      44.642   2.452   9.376  0.00  0.00    +0.000 A 
ATOM     23  C   UNL     1      45.512   1.695   8.587  0.00  0.00    +0.000 A 
BRANCH  18  25
ATOM     24  N   UNL     1      48.426   2.114   6.371  0.00  0.00    +0.000 N 
ATOM     25  C   UNL     1      47.327   1.499   6.904  0.00  0.00    +0.000 C 
ATOM     26  O   UNL     1      47.127   0.303   6.734  0.00  0.00    +0.000 OA
ATOM     27  H   UNL     1      49.091   1.507   5.907  0.00  0.00    +0.000 HD
ATOM     28  H   UNL     1      48.761   3.005   6.704  0.00  0.00    +0.000 HD
ENDBRANCH  18  25
ENDBRANCH  17  21
ENDBRANCH  16  17
ENDBRANCH   1  16
TORSDOF 6
ENDMDL
MODEL 6
REMARK VINA RESULT:    -7.649      1.986      2.692
REMARK INTER + INTRA:         -11.506
REMARK INTER:                 -10.457
REMARK INTRA:                  -1.049
REMARK UNBOUND:                -1.174
REMARK  Name = 
REMARK  6 active torsions:
REMARK  status: ('A' for Active; 'I' for Inactive)
REMARK    1  A    between atoms: C_2  and  C_4
REMARK    2  A    between atoms: C_7  and  O_8
REMARK    3  A    between atoms: O_8  and  C_9
REMARK    4  A    between atoms: C_9  and  C_10
REMARK    5  A    between atoms: C_10  and  C_13
REMARK    6  A    between atoms: C_17  and  C_18
REMARK                            x       y       z     vdW  Elec       q    Type
REMARK                         _______ _______ _______ _____ _____    ______ ____
ROOT
ATOM      1  C   UNL     1      44.676   6.458  11.552  0.00  0.00    +0.000 C 
ATOM      2  F   UNL     1      44.724   7.030  10.313  0.00  0.00    +0.000 F 
ATOM      3  F   UNL     1      43.732   7.163  12.245  0.00  0.00    +0.000 F 
ENDROOT
BRANCH   1   4
ATOM      4  C   UNL     1      46.029   6.496  12.240  0.00  0.00    +0.000 A 
ATOM      5  C   UNL     1      46.318   5.613  13.287  0.00  0.00    +0.000 A 
ATOM      6  C   UNL     1      47.574   5.627  13.884  0.00  0.00    +0.000 A 
ATOM      7  C   UNL     1      48.557   6.510  13.427  0.00  0.00    +0.000 A 
ATOM      8  C   UNL     1      48.319   7.389  12.355  0.00  0.00    +0.000 A 
ATOM      9  C   UNL     1      47.030   7.378  11.791  0.00  0.00    +0.000 A 
BRANCH   8  10
ATOM     10  C   UNL     1      49.396   8.247  11.804  0.00  0.00    +0.000 A 
ATOM     11  C   UNL     1      50.616   7.693  11.383  0.00  0.00    +0.000 A 
ATOM     12  C   UNL     1      51.586   8.511  10.825  0.00  0.00    +0.000 A 
ATOM     13  N   UNL     1      51.437   9.837  10.647  0.00  0.00    +0.000 NA
ATOM     14  C   UNL     1      50.265  10.365  11.055  0.00  0.00    +0.000 A 
ATOM     15  C   UNL     1      49.240   9.629  11.633  0.00  0.00    +0.000 A 
ENDBRANCH   8  10
ENDBRANCH   1   4
BRANCH   1  16
ATOM     16  C   UNL     1      44.209   5.000  11.412  0.00  0.00    +0.000 C 
BRANCH  16  17
ATOM     17  O   UNL     1      43.824   4.720  10.060  0.00  0.00    +0.000 OA
BRANCH  17  21
ATOM     18  C   UNL     1      46.363   2.302   7.795  0.00  0.00    +0.000 A 
ATOM     19  C   UNL     1      45.475   1.688   8.685  0.00  0.00    +0.000 A 
ATOM     20  C   UNL     1      44.605   2.462   9.463  0.00  0.00    +0.000 A 
ATOM     21  C   UNL     1      44.619   3.854   9.360  0.00  0.00    +0.000 A 
ATOM     22  C   UNL     1      45.515   4.466   8.479  0.00  0.00    +0.000 A 
ATOM     23  C   UNL     1      46.388   3.698   7.705  0.00  0.00    +0.000 A 
BRANCH  18  25
ATOM     24  N   UNL     1      48.420   2.163   6.499  0.00  0.00    +0.000 N 
ATOM     25  C   UNL     1      47.308   1.516   6.962  0.00  0.00    +0.000 C 
ATOM     26  O   UNL     1      47.126   0.328   6.729  0.00  0.00    +0.000 OA
ATOM     27  H   UNL     1      49.107   1.585   6.032  0.00  0.00    +0.000 HD
ATOM     28  H   UNL     1      48.734   3.041   6.885  0.00  0.00    +0.000 HD
ENDBRANCH  18  25
ENDBRANCH  17  21
ENDBRANCH  16  17
ENDBRANCH   1  16
TORSDOF 6
ENDMDL
MODEL 7
REMARK VINA RESULT:    -7.445      3.524      7.134
REMARK INTER + INTRA:         -11.230
REMARK INTER:                  -9.977
REMARK INTRA:                  -1.253
REMARK UNBOUND:                -1.174
REMARK  Name = 
REMARK  6 active torsions:
REMARK  status: ('A' for Active; 'I' for Inactive)
REMARK    1  A    between atoms: C_2  and  C_4
REMARK    2  A    between atoms: C_7  and  O_8
REMARK    3  A    between atoms: O_8  and  C_9
REMARK    4  A    between atoms: C_9  and  C_10
REMARK    5  A    between atoms: C_10  and  C_13
REMARK    6  A    between atoms: C_17  and  C_18
REMARK                            x       y       z     vdW  Elec       q    Type
REMARK                         _______ _______ _______ _____ _____    ______ ____
ROOT
ATOM      1  C   UNL     1      44.636   6.657  11.391  0.00  0.00    +0.000 C 
ATOM      2  F   UNL     1      43.463   7.346  11.282  0.00  0.00    +0.000 F 
ATOM      3  F   UNL     1      45.516   7.294  10.563  0.00  0.00    +0.000 F 
ENDROOT
BRANCH   1   4
ATOM      4  C   UNL     1      44.465   5.195  11.017  0.00  0.00    +0.000 A 
ATOM      5  C   UNL     1      43.490   4.411  11.644  0.00  0.00    +0.000 A 
ATOM      6  C   UNL     1      43.312   3.085  11.265  0.00  0.00    +0.000 A 
ATOM      7  C   UNL     1      44.096   2.536  10.246  0.00  0.00    +0.000 A 
ATOM      8  C   UNL     1      45.063   3.299   9.567  0.00  0.00    +0.000 A 
ATOM      9  C   UNL     1      45.245   4.628   9.991  0.00  0.00    +0.000 A 
BRANCH   8  10
ATOM     10  C   UNL     1      45.816   2.746   8.415  0.00  0.00    +0.000 A 
ATOM     11  C   UNL     1      46.150   1.383   8.357  0.00  0.00    +0.000 A 
ATOM     12  C   UNL     1      46.809   0.883   7.245  0.00  0.00    +0.000 A 
ATOM     13  N   UNL     1      47.159   1.631   6.182  0.00  0.00    +0.000 NA
ATOM     14  C   UNL     1      46.839   2.940   6.242  0.00  0.00    +0.000 A 
ATOM     15  C   UNL     1      46.189   3.532   7.316  0.00  0.00    +0.000 A 
ENDBRANCH   8  10
ENDBRANCH   1   4
BRANCH   1  16
ATOM     16  C   UNL     1      45.145   6.762  12.838  0.00  0.00    +0.000 C 
BRANCH  16  17
ATOM     17  O   UNL     1      46.564   6.561  12.892  0.00  0.00    +0.000 OA
BRANCH  17  21
ATOM     18  C   UNL     1      47.872   3.837  15.770  0.00  0.00    +0.000 A 
ATOM     19  C   UNL     1      48.209   5.186  15.926  0.00  0.00    +0.000 A 
ATOM     20  C   UNL     1      47.790   6.133  14.984  0.00  0.00    +0.000 A 
ATOM     21  C   UNL     1      47.033   5.739  13.879  0.00  0.00    +0.000 A 
ATOM     22  C   UNL     1      46.707   4.390  13.718  0.00  0.00    +0.000 A 
ATOM     23  C   UNL     1      47.128   3.440  14.653  0.00  0.00    +0.000 A 
BRANCH  18  25
ATOM     24  N   UNL     1      49.137   1.819  16.277  0.00  0.00    +0.000 N 
ATOM     25  C   UNL     1      48.308   2.802  16.742  0.00  0.00    +0.000 C 
ATOM     26  O   UNL     1      47.976   2.843  17.920  0.00  0.00    +0.000 OA
ATOM     27  H   UNL     1      49.515   1.190  16.976  0.00  0.00    +0.000 HD
ATOM     28  H   UNL     1      49.638   1.902  15.405  0.00  0.00    +0.000 HD
ENDBRANCH  18  25
ENDBRANCH  17  21
ENDBRANCH  16  17
ENDBRANCH   1  16
TORSDOF 6
ENDMDL
MODEL 8
REMARK VINA RESULT:    -7.234      3.009      7.165
REMARK INTER + INTRA:         -10.945
REMARK INTER:                  -9.937
REMARK INTRA:                  -1.007
REMARK UNBOUND:                -1.174
REMARK  Name = 
REMARK  6 active torsions:
REMARK  status: ('A' for Active; 'I' for Inactive)
REMARK    1  A    between atoms: C_2  and  C_4
REMARK    2  A    between atoms: C_7  and  O_8
REMARK    3  A    between atoms: O_8  and  C_9
REMARK    4  A    between atoms: C_9  and  C_10
REMARK    5  A    between atoms: C_10  and  C_13
REMARK    6  A    between atoms: C_17  and  C_18
REMARK                            x       y       z     vdW  Elec       q    Type
REMARK                         _______ _______ _______ _____ _____    ______ ____
ROOT
ATOM      1  C   UNL     1      44.435   6.519  11.419  0.00  0.00    +0.000 C 
ATOM      2  F   UNL     1      43.208   7.117  11.407  0.00  0.00    +0.000 F 
ATOM      3  F   UNL     1      45.192   7.216  10.521  0.00  0.00    +0.000 F 
ENDROOT
BRANCH   1   4
ATOM      4  C   UNL     1      44.345   5.046  11.061  0.00  0.00    +0.000 A 
ATOM      5  C   UNL     1      43.456   4.204  11.738  0.00  0.00    +0.000 A 
ATOM      6  C   UNL     1      43.350   2.865  11.376  0.00  0.00    +0.000 A 
ATOM      7  C   UNL     1      44.120   2.363  10.322  0.00  0.00    +0.000 A 
ATOM      8  C   UNL     1      45.000   3.183   9.593  0.00  0.00    +0.000 A 
ATOM      9  C   UNL     1      45.111   4.525  10.002  0.00  0.00    +0.000 A 
BRANCH   8  10
ATOM     10  C   UNL     1      45.732   2.672   8.409  0.00  0.00    +0.000 A 
ATOM     11  C   UNL     1      46.066   3.523   7.343  0.00  0.00    +0.000 A 
ATOM     12  C   UNL     1      46.795   3.031   6.272  0.00  0.00    +0.000 A 
ATOM     13  N   UNL     1      47.223   1.758   6.179  0.00  0.00    +0.000 NA
ATOM     14  C   UNL     1      46.898   0.943   7.203  0.00  0.00    +0.000 A 
ATOM     15  C   UNL     1      46.164   1.343   8.311  0.00  0.00    +0.000 A 
ENDBRANCH   8  10
ENDBRANCH   1   4
BRANCH   1  16
ATOM     16  C   UNL     1      45.052   6.672  12.819  0.00  0.00    +0.000 C 
BRANCH  16  17
ATOM     17  O   UNL     1      46.239   5.877  12.939  0.00  0.00    +0.000 OA
BRANCH  17  21
ATOM     18  C   UNL     1      49.896   7.868  13.223  0.00  0.00    +0.000 A 
ATOM     19  C   UNL     1      49.264   7.808  11.975  0.00  0.00    +0.000 A 
ATOM     20  C   UNL     1      48.036   7.151  11.837  0.00  0.00    +0.000 A 
ATOM     21  C   UNL     1      47.432   6.547  12.941  0.00  0.00    +0.000 A 
ATOM     22  C   UNL     1      48.070   6.597  14.183  0.00  0.00    +0.000 A 
ATOM     23  C   UNL     1      49.299   7.248  14.326  0.00  0.00    +0.000 A 
BRANCH  18  25
ATOM     24  N   UNL     1      52.218   7.809  13.957  0.00  0.00    +0.000 N 
ATOM     25  C   UNL     1      51.205   8.546  13.407  0.00  0.00    +0.000 C 
ATOM     26  O   UNL     1      51.388   9.701  13.047  0.00  0.00    +0.000 OA
ATOM     27  H   UNL     1      53.130   8.249  13.969  0.00  0.00    +0.000 HD
ATOM     28  H   UNL     1      52.185   6.802  14.012  0.00  0.00    +0.000 HD
ENDBRANCH  18  25
ENDBRANCH  17  21
ENDBRANCH  16  17
ENDBRANCH   1  16
TORSDOF 6
ENDMDL
