MODEL 1
REMARK VINA RESULT:    -9.058      0.000      0.000
REMARK INTER + INTRA:         -12.455
REMARK INTER:                 -11.706
REMARK INTRA:                  -0.749
REMARK UNBOUND:                -0.749
REMARK  Name = 
REMARK  5 active torsions:
REMARK  status: ('A' for Active; 'I' for Inactive)
REMARK    1  A    between atoms: C_2  and  C_4
REMARK    2  A    between atoms: C_7  and  O_8
REMARK    3  A    between atoms: O_8  and  C_9
REMARK    4  A    between atoms: C_9  and  C_10
REMARK    5  A    between atoms: C_12  and  C_13
REMARK                            x       y       z     vdW  Elec       q    Type
REMARK                         _______ _______ _______ _____ _____    ______ ____
ROOT
ATOM      1  C   UNL     1      43.781   3.137  11.632  0.00  0.00    +0.000 C 
ENDROOT
BRANCH   1   2
ATOM      2  C   UNL     1      44.938   3.881  12.257  0.00  0.00    +0.000 A 
ATOM      3  C   UNL     1      45.154   5.235  11.998  0.00  0.00    +0.000 A 
ATOM      4  C   UNL     1      46.253   5.899  12.566  0.00  0.00    +0.000 A 
ATOM      5  C   UNL     1      47.113   5.128  13.359  0.00  0.00    +0.000 A 
ATOM      6  C   UNL     1      46.848   3.781  13.546  0.00  0.00    +0.000 A 
ATOM      7  N   UNL     1      45.788   3.145  13.015  0.00  0.00    +0.000 NA
BRANCH   4   8
ATOM      8  C   UNL     1      46.485   7.347  12.354  0.00  0.00    +0.000 A 
ATOM      9  C   UNL     1      45.433   8.283  12.440  0.00  0.00    +0.000 A 
ATOM     10  C   UNL     1      45.653   9.657  12.282  0.00  0.00    +0.000 A 
ATOM     11  C   UNL     1      46.938  10.129  12.042  0.00  0.00    +0.000 A 
ATOM     12  C   UNL     1      47.983   9.224  11.944  0.00  0.00    +0.000 A 
ATOM     13  F   UNL     1      49.226   9.672  11.717  0.00  0.00    +0.000 F 
ATOM     14  C   UNL     1      47.768   7.854  12.084  0.00  0.00    +0.000 A 
ENDBRANCH   4   8
ENDBRANCH   1   2
BRANCH   1  15
ATOM     15  O   UNL     1      43.567   3.526  10.270  0.00  0.00    +0.000 OA
BRANCH  15  19
ATOM     16  C   UNL     1      46.469   2.543   7.437  0.00  0.00    +0.000 A 
ATOM     17  C   UNL     1      45.990   1.536   8.279  0.00  0.00    +0.000 A 
ATOM     18  C   UNL     1      45.016   1.828   9.240  0.00  0.00    +0.000 A 
ATOM     19  C   UNL     1      44.521   3.126   9.372  0.00  0.00    +0.000 A 
ATOM     20  C   UNL     1      45.017   4.136   8.541  0.00  0.00    +0.000 A 
ATOM     21  C   UNL     1      45.993   3.851   7.580  0.00  0.00    +0.000 A 
BRANCH  16  23
ATOM     22  N   UNL     1      47.461   3.029   5.270  0.00  0.00    +0.000 N 
ATOM     23  C   UNL     1      47.496   2.259   6.402  0.00  0.00    +0.000 C 
ATOM     24  O   UNL     1      48.355   1.405   6.561  0.00  0.00    +0.000 OA
ATOM     25  H   UNL     1      48.222   2.898   4.615  0.00  0.00    +0.000 HD
ATOM     26  H   UNL     1      46.943   3.893   5.217  0.00  0.00    +0.000 HD
ENDBRANCH  16  23
ENDBRANCH  15  19
ENDBRANCH   1  15
TORSDOF 5
ENDMDL
MODEL 2
REMARK VINA RESULT:    -9.019      0.925      1.346
REMARK INTER + INTRA:         -12.404
REMARK INTER:                 -11.641
REMARK INTRA:                  -0.764
REMARK UNBOUND:                -0.749
REMARK  Name = 
REMARK  5 active torsions:
REMARK  status: ('A' for Active; 'I' for Inactive)
REMARK    1  A    between atoms: C_2  and  C_4
REMARK    2  A    between atoms: C_7  and  O_8
REMARK    3  A    between atoms: O_8  and  C_9
REMARK    4  A    between atoms: C_9  and  C_10
REMARK    5  A    between atoms: C_12  and  C_13
REMARK                            x       y       z     vdW  Elec       q    Type
REMARK                         _______ _______ _______ _____ _____    ______ ____
ROOT
ATOM      1  C   UNL     1      43.684   3.368  11.680  0.00  0.00    +0.000 C 
ENDROOT
BRANCH   1   2
ATOM      2  C   UNL     1      44.866   4.049  12.331  0.00  0.00    +0.000 A 
ATOM      3  C   UNL     1      45.168   5.386  12.067  0.00  0.00    +0.000 A 
ATOM      4  C   UNL     1      46.288   5.989  12.660  0.00  0.00    +0.000 A 
ATOM      5  C   UNL     1      47.079   5.177  13.483  0.00  0.00    +0.000 A 
ATOM      6  C   UNL     1      46.730   3.850  13.674  0.00  0.00    +0.000 A 
ATOM      7  N   UNL     1      45.649   3.272  13.119  0.00  0.00    +0.000 NA
BRANCH   4   8
ATOM      8  C   UNL     1      46.610   7.419  12.443  0.00  0.00    +0.000 A 
ATOM      9  C   UNL     1      47.931   7.849  12.195  0.00  0.00    +0.000 A 
ATOM     10  C   UNL     1      48.235   9.194  11.948  0.00  0.00    +0.000 A 
ATOM     11  C   UNL     1      47.218  10.142  11.934  0.00  0.00    +0.000 A 
ATOM     12  C   UNL     1      45.915   9.740  12.184  0.00  0.00    +0.000 A 
ATOM     13  F   UNL     1      44.930  10.648  12.167  0.00  0.00    +0.000 F 
ATOM     14  C   UNL     1      45.609   8.407  12.447  0.00  0.00    +0.000 A 
ENDBRANCH   4   8
ENDBRANCH   1   2
BRANCH   1  15
ATOM     15  O   UNL     1      43.533   3.752  10.308  0.00  0.00    +0.000 OA
BRANCH  15  19
ATOM     16  C   UNL     1      46.448   2.560   7.571  0.00  0.00    +0.000 A 
ATOM     17  C   UNL     1      45.888   1.595   8.412  0.00  0.00    +0.000 A 
ATOM     18  C   UNL     1      44.907   1.958   9.341  0.00  0.00    +0.000 A 
ATOM     19  C   UNL     1      44.486   3.284   9.443  0.00  0.00    +0.000 A 
ATOM     20  C   UNL     1      45.063   4.252   8.613  0.00  0.00    +0.000 A 
ATOM     21  C   UNL     1      46.047   3.896   7.684  0.00  0.00    +0.000 A 
BRANCH  16  23
ATOM     22  N   UNL     1      47.467   2.893   5.388  0.00  0.00    +0.000 N 
ATOM     23  C   UNL     1      47.484   2.202   6.569  0.00  0.00    +0.000 C 
ATOM     24  O   UNL     1      48.336   1.354   6.795  0.00  0.00    +0.000 OA
ATOM     25  H   UNL     1      48.234   2.715   4.751  0.00  0.00    +0.000 HD
ATOM     26  H   UNL     1      46.956   3.755   5.271  0.00  0.00    +0.000 HD
ENDBRANCH  16  23
ENDBRANCH  15  19
ENDBRANCH   1  15
TORSDOF 5
ENDMDL
MODEL 3
REMARK VINA RESULT:    -8.903      0.671      1.188
REMARK INTER + INTRA:         -12.255
REMARK INTER:                 -11.574
REMARK INTRA:                  -0.681
REMARK UNBOUND:                -0.749
REMARK  Name = 
REMARK  5 active torsions:
REMARK  status: ('A' for Active; 'I' for Inactive)
REMARK    1  A    between atoms: C_2  and  C_4
REMARK    2  A    between atoms: C_7  and  O_8
REMARK    3  A    between atoms: O_8  and  C_9
REMARK    4  A    between atoms: C_9  and  C_10
REMARK    5  A    between atoms: C_12  and  C_13
REMARK                            x       y       z     vdW  Elec       q    Type
REMARK                         _______ _______ _______ _____ _____    ______ ____
ROOT
ATOM      1  C   UNL     1      43.679   3.693  11.655  0.00  0.00    +0.000 C 
ENDROOT
BRANCH   1   2
ATOM      2  C   UNL     1      44.910   4.307  12.283  0.00  0.00    +0.000 A 
ATOM      3  C   UNL     1      45.320   5.600  11.958  0.00  0.00    +0.000 A 
ATOM      4  C   UNL     1      46.483   6.139  12.530  0.00  0.00    +0.000 A 
ATOM      5  C   UNL     1      47.203   5.305  13.396  0.00  0.00    +0.000 A 
ATOM      6  C   UNL     1      46.748   4.021  13.646  0.00  0.00    +0.000 A 
ATOM      7  N   UNL     1      45.626   3.507  13.111  0.00  0.00    +0.000 NA
BRANCH   4   8
ATOM      8  C   UNL     1      46.920   7.527  12.249  0.00  0.00    +0.000 A 
ATOM      9  C   UNL     1      46.032   8.617  12.360  0.00  0.00    +0.000 A 
ATOM     10  C   UNL     1      46.450   9.935  12.135  0.00  0.00    +0.000 A 
ATOM     11  C   UNL     1      47.774  10.194  11.802  0.00  0.00    +0.000 A 
ATOM     12  C   UNL     1      48.660   9.134  11.679  0.00  0.00    +0.000 A 
ATOM     13  F   UNL     1      49.939   9.377  11.363  0.00  0.00    +0.000 F 
ATOM     14  C   UNL     1      48.247   7.820  11.885  0.00  0.00    +0.000 A 
ENDBRANCH   4   8
ENDBRANCH   1   2
BRANCH   1  15
ATOM     15  O   UNL     1      43.523   4.084  10.286  0.00  0.00    +0.000 OA
BRANCH  15  19
ATOM     16  C   UNL     1      46.370   2.414   7.733  0.00  0.00    +0.000 A 
ATOM     17  C   UNL     1      46.146   3.793   7.673  0.00  0.00    +0.000 A 
ATOM     18  C   UNL     1      45.200   4.387   8.515  0.00  0.00    +0.000 A 
ATOM     19  C   UNL     1      44.467   3.611   9.413  0.00  0.00    +0.000 A 
ATOM     20  C   UNL     1      44.679   2.229   9.457  0.00  0.00    +0.000 A 
ATOM     21  C   UNL     1      45.621   1.628   8.615  0.00  0.00    +0.000 A 
BRANCH  16  23
ATOM     22  N   UNL     1      48.457   2.510   6.488  0.00  0.00    +0.000 N 
ATOM     23  C   UNL     1      47.374   1.758   6.858  0.00  0.00    +0.000 C 
ATOM     24  O   UNL     1      47.264   0.592   6.508  0.00  0.00    +0.000 OA
ATOM     25  H   UNL     1      49.185   2.028   5.975  0.00  0.00    +0.000 HD
ATOM     26  H   UNL     1      48.706   3.369   6.955  0.00  0.00    +0.000 HD
ENDBRANCH  16  23
ENDBRANCH  15  19
ENDBRANCH   1  15
TORSDOF 5
ENDMDL
MODEL 4
REMARK VINA RESULT:    -8.544      2.656      3.933
REMARK INTER + INTRA:         -11.790
REMARK INTER:                 -11.088
REMARK INTRA:                  -0.702
REMARK UNBOUND:                -0.749
REMARK  Name = 
REMARK  5 active torsions:
REMARK  status: ('A' for Active; 'I' for Inactive)
REMARK    1  A    between atoms: C_2  and  C_4
REMARK    2  A    between atoms: C_7  and  O_8
REMARK    3  A    between atoms: O_8  and  C_9
REMARK    4  A    between atoms: C_9  and  C_10
REMARK    5  A    between atoms: C_12  and  C_13
REMARK                            x       y       z     vdW  Elec       q    Type
REMARK                         _______ _______ _______ _____ _____    ______ ____
ROOT
ATOM      1  C   UNL     1      43.754   4.427  11.402  0.00  0.00    +0.000 C 
ENDROOT
BRANCH   1   2
ATOM      2  C   UNL     1      44.847   5.295  11.982  0.00  0.00    +0.000 A 
ATOM      3  C   UNL     1      45.559   4.903  13.117  0.00  0.00    +0.000 A 
ATOM      4  C   UNL     1      46.549   5.738  13.656  0.00  0.00    +0.000 A 
ATOM      5  C   UNL     1      46.747   6.971  13.021  0.00  0.00    +0.000 A 
ATOM      6  C   UNL     1      45.980   7.303  11.916  0.00  0.00    +0.000 A 
ATOM      7  N   UNL     1      45.040   6.498  11.387  0.00  0.00    +0.000 NA
BRANCH   4   8
ATOM      8  C   UNL     1      47.359   5.332  14.829  0.00  0.00    +0.000 A 
ATOM      9  C   UNL     1      48.363   6.169  15.358  0.00  0.00    +0.000 A 
ATOM     10  C   UNL     1      49.103   5.808  16.490  0.00  0.00    +0.000 A 
ATOM     11  C   UNL     1      48.848   4.599  17.128  0.00  0.00    +0.000 A 
ATOM     12  C   UNL     1      47.871   3.758  16.617  0.00  0.00    +0.000 A 
ATOM     13  F   UNL     1      47.617   2.594  17.229  0.00  0.00    +0.000 F 
ATOM     14  C   UNL     1      47.143   4.105  15.481  0.00  0.00    +0.000 A 
ENDBRANCH   4   8
ENDBRANCH   1   2
BRANCH   1  15
ATOM     15  O   UNL     1      43.647   4.578   9.981  0.00  0.00    +0.000 OA
BRANCH  15  19
ATOM     16  C   UNL     1      46.368   2.268   7.818  0.00  0.00    +0.000 A 
ATOM     17  C   UNL     1      46.378   3.655   7.639  0.00  0.00    +0.000 A 
ATOM     18  C   UNL     1      45.481   4.460   8.348  0.00  0.00    +0.000 A 
ATOM     19  C   UNL     1      44.565   3.889   9.232  0.00  0.00    +0.000 A 
ATOM     20  C   UNL     1      44.543   2.500   9.394  0.00  0.00    +0.000 A 
ATOM     21  C   UNL     1      45.436   1.688   8.685  0.00  0.00    +0.000 A 
BRANCH  16  23
ATOM     22  N   UNL     1      48.426   1.986   6.554  0.00  0.00    +0.000 N 
ATOM     23  C   UNL     1      47.314   1.390   7.085  0.00  0.00    +0.000 C 
ATOM     24  O   UNL     1      47.135   0.184   6.987  0.00  0.00    +0.000 OA
ATOM     25  H   UNL     1      49.115   1.369   6.144  0.00  0.00    +0.000 HD
ATOM     26  H   UNL     1      48.732   2.907   6.830  0.00  0.00    +0.000 HD
ENDBRANCH  16  23
ENDBRANCH  15  19
ENDBRANCH   1  15
TORSDOF 5
ENDMDL
MODEL 5
REMARK VINA RESULT:    -8.385      1.675      2.430
REMARK INTER + INTRA:         -11.585
REMARK INTER:                 -10.774
REMARK INTRA:                  -0.811
REMARK UNBOUND:                -0.749
REMARK  Name = 
REMARK  5 active torsions:
REMARK  status: ('A' for Active; 'I' for Inactive)
REMARK    1  A    between atoms: C_2  and  C_4
REMARK    2  A    between atoms: C_7  and  O_8
REMARK    3  A    between atoms: O_8  and  C_9
REMARK    4  A    between atoms: C_9  and  C_10
REMARK    5  A    between atoms: C_12  and  C_13
REMARK                            x       y       z     vdW  Elec       q    Type
REMARK                         _______ _______ _______ _____ _____    ______ ____
ROOT
ATOM      1  C   UNL     1      44.257   5.728  10.844  0.00  0.00    +0.000 C 
ENDROOT
BRANCH   1   2
ATOM      2  C   UNL     1      45.304   5.596  11.926  0.00  0.00    +0.000 A 
ATOM      3  C   UNL     1      46.484   6.340  11.888  0.00  0.00    +0.000 A 
ATOM      4  C   UNL     1      47.456   6.178  12.888  0.00  0.00    +0.000 A 
ATOM      5  C   UNL     1      47.188   5.225  13.879  0.00  0.00    +0.000 A 
ATOM      6  C   UNL     1      46.006   4.503  13.832  0.00  0.00    +0.000 A 
ATOM      7  N   UNL     1      45.066   4.666  12.884  0.00  0.00    +0.000 NA
BRANCH   4   8
ATOM      8  C   UNL     1      48.697   6.988  12.907  0.00  0.00    +0.000 A 
ATOM      9  C   UNL     1      49.335   7.331  14.117  0.00  0.00    +0.000 A 
ATOM     10  C   UNL     1      50.531   8.061  14.140  0.00  0.00    +0.000 A 
ATOM     11  C   UNL     1      51.122   8.458  12.946  0.00  0.00    +0.000 A 
ATOM     12  C   UNL     1      50.504   8.139  11.747  0.00  0.00    +0.000 A 
ATOM     13  F   UNL     1      51.070   8.514  10.592  0.00  0.00    +0.000 F 
ATOM     14  C   UNL     1      49.306   7.427  11.718  0.00  0.00    +0.000 A 
ENDBRANCH   4   8
ENDBRANCH   1   2
BRANCH   1  15
ATOM     15  O   UNL     1      43.878   4.455  10.306  0.00  0.00    +0.000 OA
BRANCH  15  19
ATOM     16  C   UNL     1      46.505   2.518   7.705  0.00  0.00    +0.000 A 
ATOM     17  C   UNL     1      46.374   3.907   7.612  0.00  0.00    +0.000 A 
ATOM     18  C   UNL     1      45.504   4.590   8.468  0.00  0.00    +0.000 A 
ATOM     19  C   UNL     1      44.753   3.893   9.415  0.00  0.00    +0.000 A 
ATOM     20  C   UNL     1      44.870   2.501   9.493  0.00  0.00    +0.000 A 
ATOM     21  C   UNL     1      45.737   1.812   8.638  0.00  0.00    +0.000 A 
BRANCH  16  23
ATOM     22  N   UNL     1      48.543   2.433   6.382  0.00  0.00    +0.000 N 
ATOM     23  C   UNL     1      47.427   1.769   6.816  0.00  0.00    +0.000 C 
ATOM     24  O   UNL     1      47.225   0.603   6.508  0.00  0.00    +0.000 OA
ATOM     25  H   UNL     1      49.216   1.888   5.859  0.00  0.00    +0.000 HD
ATOM     26  H   UNL     1      48.868   3.286   6.812  0.00  0.00    +0.000 HD
ENDBRANCH  16  23
ENDBRANCH  15  19
ENDBRANCH   1  15
TORSDOF 5
ENDMDL
MODEL 6
REMARK VINA RESULT:    -8.370      1.770      2.406
REMARK INTER + INTRA:         -11.566
REMARK INTER:                 -10.849
REMARK INTRA:                  -0.717
REMARK UNBOUND:                -0.749
REMARK  Name = 
REMARK  5 active torsions:
REMARK  status: ('A' for Active; 'I' for Inactive)
REMARK    1  A    between atoms: C_2  and  C_4
REMARK    2  A    between atoms: C_7  and  O_8
REMARK    3  A    between atoms: O_8  and  C_9
REMARK    4  A    between atoms: C_9  and  C_10
REMARK    5  A    between atoms: C_12  and  C_13
REMARK                            x       y       z     vdW  Elec       q    Type
REMARK                         _______ _______ _______ _____ _____    ______ ____
ROOT
ATOM      1  C   UNL     1      43.873   3.515  11.786  0.00  0.00    +0.000 C 
ENDROOT
BRANCH   1   2
ATOM      2  C   UNL     1      44.764   4.680  12.153  0.00  0.00    +0.000 A 
ATOM      3  C   UNL     1      44.463   5.980  11.743  0.00  0.00    +0.000 A 
ATOM      4  C   UNL     1      45.320   7.042  12.069  0.00  0.00    +0.000 A 
ATOM      5  C   UNL     1      46.482   6.717  12.783  0.00  0.00    +0.000 A 
ATOM      6  C   UNL     1      46.726   5.398  13.128  0.00  0.00    +0.000 A 
ATOM      7  N   UNL     1      45.899   4.380  12.830  0.00  0.00    +0.000 NA
BRANCH   4   8
ATOM      8  C   UNL     1      45.006   8.441  11.695  0.00  0.00    +0.000 A 
ATOM      9  C   UNL     1      45.821   9.516  12.108  0.00  0.00    +0.000 A 
ATOM     10  C   UNL     1      45.552  10.835  11.723  0.00  0.00    +0.000 A 
ATOM     11  C   UNL     1      44.462  11.110  10.905  0.00  0.00    +0.000 A 
ATOM     12  C   UNL     1      43.644  10.067  10.498  0.00  0.00    +0.000 A 
ATOM     13  F   UNL     1      42.594  10.324   9.705  0.00  0.00    +0.000 F 
ATOM     14  C   UNL     1      43.896   8.755  10.890  0.00  0.00    +0.000 A 
ENDBRANCH   4   8
ENDBRANCH   1   2
BRANCH   1  15
ATOM     15  O   UNL     1      43.438   3.581  10.423  0.00  0.00    +0.000 OA
BRANCH  15  19
ATOM     16  C   UNL     1      46.358   2.591   7.611  0.00  0.00    +0.000 A 
ATOM     17  C   UNL     1      45.946   3.924   7.706  0.00  0.00    +0.000 A 
ATOM     18  C   UNL     1      44.970   4.293   8.637  0.00  0.00    +0.000 A 
ATOM     19  C   UNL     1      44.394   3.335   9.473  0.00  0.00    +0.000 A 
ATOM     20  C   UNL     1      44.793   1.999   9.362  0.00  0.00    +0.000 A 
ATOM     21  C   UNL     1      45.766   1.623   8.430  0.00  0.00    +0.000 A 
BRANCH  16  23
ATOM     22  N   UNL     1      47.487   2.898   5.479  0.00  0.00    +0.000 N 
ATOM     23  C   UNL     1      47.398   2.174   6.637  0.00  0.00    +0.000 C 
ATOM     24  O   UNL     1      48.165   1.250   6.866  0.00  0.00    +0.000 OA
ATOM     25  H   UNL     1      48.260   2.673   4.866  0.00  0.00    +0.000 HD
ATOM     26  H   UNL     1      47.055   3.804   5.371  0.00  0.00    +0.000 HD
ENDBRANCH  16  23
ENDBRANCH  15  19
ENDBRANCH   1  15
TORSDOF 5
ENDMDL
MODEL 7
REMARK VINA RESULT:    -8.280      1.508      1.879
REMARK INTER + INTRA:         -11.449
REMARK INTER:                 -10.754
REMARK INTRA:                  -0.696
REMARK UNBOUND:                -0.749
REMARK  Name = 
REMARK  5 active torsions:
REMARK  status: ('A' for Active; 'I' for Inactive)
REMARK    1  A    between atoms: C_2  and  C_4
REMARK    2  A    between atoms: C_7  and  O_8
REMARK    3  A    between atoms: O_8  and  C_9
REMARK    4  A    between atoms: C_9  and  C_10
REMARK    5  A    between atoms: C_12  and  C_13
REMARK                            x       y       z     vdW  Elec       q    Type
REMARK                         _______ _______ _______ _____ _____    ______ ____
ROOT
ATOM      1  C   UNL     1      43.893   5.289  10.746  0.00  0.00    +0.000 C 
ENDROOT
BRANCH   1   2
ATOM      2  C   UNL     1      44.997   5.281  11.779  0.00  0.00    +0.000 A 
ATOM      3  C   UNL     1      46.075   6.163  11.695  0.00  0.00    +0.000 A 
ATOM      4  C   UNL     1      47.104   6.117  12.648  0.00  0.00    +0.000 A 
ATOM      5  C   UNL     1      47.000   5.133  13.640  0.00  0.00    +0.000 A 
ATOM      6  C   UNL     1      45.913   4.273  13.640  0.00  0.00    +0.000 A 
ATOM      7  N   UNL     1      44.918   4.324  12.737  0.00  0.00    +0.000 NA
BRANCH   4   8
ATOM      8  C   UNL     1      48.237   7.072  12.620  0.00  0.00    +0.000 A 
ATOM      9  C   UNL     1      48.383   8.013  11.579  0.00  0.00    +0.000 A 
ATOM     10  C   UNL     1      49.428   8.945  11.569  0.00  0.00    +0.000 A 
ATOM     11  C   UNL     1      50.350   8.963  12.609  0.00  0.00    +0.000 A 
ATOM     12  C   UNL     1      50.228   8.040  13.636  0.00  0.00    +0.000 A 
ATOM     13  F   UNL     1      51.110   8.055  14.645  0.00  0.00    +0.000 F 
ATOM     14  C   UNL     1      49.200   7.100  13.644  0.00  0.00    +0.000 A 
ENDBRANCH   4   8
ENDBRANCH   1   2
BRANCH   1  15
ATOM     15  O   UNL     1      43.627   3.978  10.235  0.00  0.00    +0.000 OA
BRANCH  15  19
ATOM     16  C   UNL     1      46.477   2.653   7.490  0.00  0.00    +0.000 A 
ATOM     17  C   UNL     1      45.917   1.725   8.372  0.00  0.00    +0.000 A 
ATOM     18  C   UNL     1      44.958   2.132   9.305  0.00  0.00    +0.000 A 
ATOM     19  C   UNL     1      44.558   3.468   9.370  0.00  0.00    +0.000 A 
ATOM     20  C   UNL     1      45.135   4.399   8.500  0.00  0.00    +0.000 A 
ATOM     21  C   UNL     1      46.097   3.998   7.566  0.00  0.00    +0.000 A 
BRANCH  16  23
ATOM     22  N   UNL     1      47.489   2.926   5.295  0.00  0.00    +0.000 N 
ATOM     23  C   UNL     1      47.490   2.247   6.484  0.00  0.00    +0.000 C 
ATOM     24  O   UNL     1      48.313   1.371   6.711  0.00  0.00    +0.000 OA
ATOM     25  H   UNL     1      48.242   2.713   4.655  0.00  0.00    +0.000 HD
ATOM     26  H   UNL     1      47.008   3.805   5.174  0.00  0.00    +0.000 HD
ENDBRANCH  16  23
ENDBRANCH  15  19
ENDBRANCH   1  15
TORSDOF 5
ENDMDL
MODEL 8
REMARK VINA RESULT:    -8.180      3.664      6.853
REMARK INTER + INTRA:         -11.320
REMARK INTER:                 -10.483
REMARK INTRA:                  -0.837
REMARK UNBOUND:                -0.749
REMARK  Name = 
REMARK  5 active torsions:
REMARK  status: ('A' for Active; 'I' for Inactive)
REMARK    1  A    between atoms: C_2  and  C_4
REMARK    2  A    between atoms: C_7  and  O_8
REMARK    3  A    between atoms: O_8  and  C_9
REMARK    4  A    between atoms: C_9  and  C_10
REMARK    5  A    between atoms: C_12  and  C_13
REMARK                            x       y       z     vdW  Elec       q    Type
REMARK                         _______ _______ _______ _____ _____    ______ ____
ROOT
ATOM      1  C   UNL     1      44.142   6.587  11.705  0.00  0.00    +0.000 C 
ENDROOT
BRANCH   1   2
ATOM      2  C   UNL     1      44.132   5.136  11.281  0.00  0.00    +0.000 A 
ATOM      3  C   UNL     1      44.838   4.705  10.157  0.00  0.00    +0.000 A 
ATOM      4  C   UNL     1      44.789   3.359   9.764  0.00  0.00    +0.000 A 
ATOM      5  C   UNL     1      43.983   2.507  10.531  0.00  0.00    +0.000 A 
ATOM      6  C   UNL     1      43.288   3.016  11.616  0.00  0.00    +0.000 A 
ATOM      7  N   UNL     1      43.344   4.303  12.004  0.00  0.00    +0.000 NA
BRANCH   4   8
ATOM      8  C   UNL     1      45.567   2.855   8.607  0.00  0.00    +0.000 A 
ATOM      9  C   UNL     1      46.011   3.720   7.585  0.00  0.00    +0.000 A 
ATOM     10  C   UNL     1      46.782   3.257   6.511  0.00  0.00    +0.000 A 
ATOM     11  C   UNL     1      47.135   1.914   6.440  0.00  0.00    +0.000 A 
ATOM     12  C   UNL     1      46.699   1.048   7.430  0.00  0.00    +0.000 A 
ATOM     13  F   UNL     1      47.040  -0.247   7.371  0.00  0.00    +0.000 F 
ATOM     14  C   UNL     1      45.919   1.499   8.493  0.00  0.00    +0.000 A 
ENDBRANCH   4   8
ENDBRANCH   1   2
BRANCH   1  15
ATOM     15  O   UNL     1      44.928   6.796  12.885  0.00  0.00    +0.000 OA
BRANCH  15  19
ATOM     16  C   UNL     1      48.893   7.874  12.161  0.00  0.00    +0.000 A 
ATOM     17  C   UNL     1      48.633   6.618  12.718  0.00  0.00    +0.000 A 
ATOM     18  C   UNL     1      47.316   6.222  12.973  0.00  0.00    +0.000 A 
ATOM     19  C   UNL     1      46.253   7.078  12.684  0.00  0.00    +0.000 A 
ATOM     20  C   UNL     1      46.517   8.342  12.146  0.00  0.00    +0.000 A 
ATOM     21  C   UNL     1      47.832   8.745  11.891  0.00  0.00    +0.000 A 
BRANCH  16  23
ATOM     22  N   UNL     1      51.137   7.375  11.366  0.00  0.00    +0.000 N 
ATOM     23  C   UNL     1      50.281   8.316  11.871  0.00  0.00    +0.000 C 
ATOM     24  O   UNL     1      50.640   9.472  12.041  0.00  0.00    +0.000 OA
ATOM     25  H   UNL     1      52.049   7.705  11.078  0.00  0.00    +0.000 HD
ATOM     26  H   UNL     1      50.814   6.500  10.979  0.00  0.00    +0.000 HD
ENDBRANCH  16  23
ENDBRANCH  15  19
ENDBRANCH   1  15
TORSDOF 5
ENDMDL
MODEL 9
REMARK VINA RESULT:    -7.994      3.720      7.558
REMARK INTER + INTRA:         -11.079
REMARK INTER:                 -10.796
REMARK INTRA:                  -0.284
REMARK UNBOUND:                -0.749
REMARK  Name = 
REMARK  5 active torsions:
REMARK  status: ('A' for Active; 'I' for Inactive)
REMARK    1  A    between atoms: C_2  and  C_4
REMARK    2  A    between atoms: C_7  and  O_8
REMARK    3  A    between atoms: O_8  and  C_9
REMARK    4  A    between atoms: C_9  and  C_10
REMARK    5  A    between atoms: C_12  and  C_13
REMARK                            x       y       z     vdW  Elec       q    Type
REMARK                         _______ _______ _______ _____ _____    ______ ____
ROOT
ATOM      1  C   UNL     1      46.068   7.239  11.826  0.00  0.00    +0.000 C 
ENDROOT
BRANCH   1   2
ATOM      2  C   UNL     1      45.289   6.156  11.116  0.00  0.00    +0.000 A 
ATOM      3  C   UNL     1      45.883   5.363  10.133  0.00  0.00    +0.000 A 
ATOM      4  C   UNL     1      45.132   4.383   9.465  0.00  0.00    +0.000 A 
ATOM      5  C   UNL     1      43.779   4.279   9.815  0.00  0.00    +0.000 A 
ATOM      6  C   UNL     1      43.255   5.123  10.780  0.00  0.00    +0.000 A 
ATOM      7  N   UNL     1      43.975   6.053  11.433  0.00  0.00    +0.000 NA
BRANCH   4   8
ATOM      8  C   UNL     1      45.742   3.488   8.453  0.00  0.00    +0.000 A 
ATOM      9  C   UNL     1      46.323   3.997   7.273  0.00  0.00    +0.000 A 
ATOM     10  C   UNL     1      46.937   3.161   6.333  0.00  0.00    +0.000 A 
ATOM     11  C   UNL     1      46.993   1.790   6.558  0.00  0.00    +0.000 A 
ATOM     12  C   UNL     1      46.419   1.270   7.707  0.00  0.00    +0.000 A 
ATOM     13  F   UNL     1      46.473  -0.050   7.933  0.00  0.00    +0.000 F 
ATOM     14  C   UNL     1      45.792   2.095   8.639  0.00  0.00    +0.000 A 
ENDBRANCH   4   8
ENDBRANCH   1   2
BRANCH   1  15
ATOM     15  O   UNL     1      47.385   6.805  12.186  0.00  0.00    +0.000 OA
BRANCH  15  19
ATOM     16  C   UNL     1      47.569   4.715  15.793  0.00  0.00    +0.000 A 
ATOM     17  C   UNL     1      48.299   5.901  15.670  0.00  0.00    +0.000 A 
ATOM     18  C   UNL     1      48.260   6.629  14.477  0.00  0.00    +0.000 A 
ATOM     19  C   UNL     1      47.502   6.174  13.397  0.00  0.00    +0.000 A 
ATOM     20  C   UNL     1      46.790   4.977  13.515  0.00  0.00    +0.000 A 
ATOM     21  C   UNL     1      46.827   4.243  14.706  0.00  0.00    +0.000 A 
BRANCH  16  23
ATOM     22  N   UNL     1      48.621   4.164  17.916  0.00  0.00    +0.000 N 
ATOM     23  C   UNL     1      47.585   3.927  17.052  0.00  0.00    +0.000 C 
ATOM     24  O   UNL     1      46.701   3.129  17.326  0.00  0.00    +0.000 OA
ATOM     25  H   UNL     1      48.572   3.698  18.813  0.00  0.00    +0.000 HD
ATOM     26  H   UNL     1      49.211   4.978  17.844  0.00  0.00    +0.000 HD
ENDBRANCH  16  23
ENDBRANCH  15  19
ENDBRANCH   1  15
TORSDOF 5
ENDMDL
