MODEL 1
REMARK VINA RESULT:    -9.630      0.000      0.000
REMARK INTER + INTRA:         -12.543
REMARK INTER:                 -11.882
REMARK INTRA:                  -0.661
REMARK UNBOUND:                -0.661
REMARK  Name = 
REMARK  4 active torsions:
REMARK  status: ('A' for Active; 'I' for Inactive)
REMARK    1  A    between atoms: C_2  and  C_4
REMARK    2  A    between atoms: N_8  and  C_9
REMARK    3  A    between atoms: C_9  and  C_10
REMARK    4  A    between atoms: C_15  and  C_16
REMARK                            x       y       z     vdW  Elec       q    Type
REMARK                         _______ _______ _______ _____ _____    ______ ____
ROOT
ATOM      1  C   UNL     1      43.638   4.522  11.114  0.00  0.00    +0.000 C 
ENDROOT
BRANCH   1   6
ATOM      2  C   UNL     1      46.380   2.283   7.682  0.00  0.00    +0.000 A 
ATOM      3  C   UNL     1      45.589   1.839   8.711  0.00  0.00    +0.000 A 
ATOM      4  N   UNL     1      44.747   2.638   9.399  0.00  0.00    +0.000 NA
ATOM      5  C   UNL     1      44.706   3.936   9.056  0.00  0.00    +0.000 A 
ATOM      6  N   UNL     1      43.830   4.786   9.702  0.00  0.00    +0.000 N 
ATOM      7  N   UNL     1      45.450   4.468   8.080  0.00  0.00    +0.000 NA
ATOM      8  C   UNL     1      46.283   3.629   7.413  0.00  0.00    +0.000 A 
ATOM      9  H   UNL     1      44.092   5.738   9.473  0.00  0.00    +0.000 HD
BRANCH   2  11
ATOM     10  N   UNL     1      48.458   1.990   6.456  0.00  0.00    +0.000 N 
ATOM     11  C   UNL     1      47.311   1.423   6.942  0.00  0.00    +0.000 C 
ATOM     12  O   UNL     1      47.078   0.231   6.784  0.00  0.00    +0.000 OA
ATOM     13  H   UNL     1      49.118   1.360   6.017  0.00  0.00    +0.000 HD
ATOM     14  H   UNL     1      48.813   2.885   6.761  0.00  0.00    +0.000 HD
ENDBRANCH   2  11
ENDBRANCH   1   6
BRANCH   1  15
ATOM     15  C   UNL     1      44.918   4.825  11.856  0.00  0.00    +0.000 A 
ATOM     16  C   UNL     1      45.466   3.920  12.767  0.00  0.00    +0.000 A 
ATOM     17  C   UNL     1      46.616   4.267  13.462  0.00  0.00    +0.000 A 
ATOM     18  F   UNL     1      47.134   3.403  14.346  0.00  0.00    +0.000 F 
ATOM     19  C   UNL     1      47.244   5.495  13.264  0.00  0.00    +0.000 A 
ATOM     20  C   UNL     1      46.725   6.435  12.359  0.00  0.00    +0.000 A 
ATOM     21  C   UNL     1      45.548   6.074  11.675  0.00  0.00    +0.000 A 
BRANCH  20  22
ATOM     22  C   UNL     1      47.381   7.744  12.131  0.00  0.00    +0.000 A 
ATOM     23  C   UNL     1      48.755   7.838  11.827  0.00  0.00    +0.000 A 
ATOM     24  C   UNL     1      49.378   9.072  11.608  0.00  0.00    +0.000 A 
ATOM     25  C   UNL     1      48.641  10.247  11.699  0.00  0.00    +0.000 A 
ATOM     26  C   UNL     1      47.291  10.175  12.004  0.00  0.00    +0.000 A 
ATOM     27  F   UNL     1      46.575  11.302  12.101  0.00  0.00    +0.000 F 
ATOM     28  C   UNL     1      46.661   8.949  12.212  0.00  0.00    +0.000 A 
ENDBRANCH  20  22
ENDBRANCH   1  15
TORSDOF 4
ENDMDL
MODEL 2
REMARK VINA RESULT:    -9.239      2.135      4.231
REMARK INTER + INTRA:         -12.060
REMARK INTER:                 -11.478
REMARK INTRA:                  -0.581
REMARK UNBOUND:                -0.661
REMARK  Name = 
REMARK  4 active torsions:
REMARK  status: ('A' for Active; 'I' for Inactive)
REMARK    1  A    between atoms: C_2  and  C_4
REMARK    2  A    between atoms: N_8  and  C_9
REMARK    3  A    between atoms: C_9  and  C_10
REMARK    4  A    between atoms: C_15  and  C_16
REMARK                            x       y       z     vdW  Elec       q    Type
REMARK                         _______ _______ _______ _____ _____    ______ ____
ROOT
ATOM      1  C   UNL     1      44.440   4.821  11.406  0.00  0.00    +0.000 C 
ENDROOT
BRANCH   1   6
ATOM      2  C   UNL     1      46.497   2.414   7.627  0.00  0.00    +0.000 A 
ATOM      3  C   UNL     1      45.810   2.022   8.748  0.00  0.00    +0.000 A 
ATOM      4  N   UNL     1      45.141   2.879   9.547  0.00  0.00    +0.000 NA
ATOM      5  C   UNL     1      45.173   4.182   9.221  0.00  0.00    +0.000 A 
ATOM      6  N   UNL     1      44.469   5.094   9.983  0.00  0.00    +0.000 N 
ATOM      7  N   UNL     1      45.829   4.665   8.160  0.00  0.00    +0.000 NA
ATOM      8  C   UNL     1      46.488   3.768   7.384  0.00  0.00    +0.000 A 
ATOM      9  H   UNL     1      44.784   6.023   9.728  0.00  0.00    +0.000 HD
BRANCH   2  11
ATOM     10  N   UNL     1      48.239   2.006   5.982  0.00  0.00    +0.000 N 
ATOM     11  C   UNL     1      47.243   1.489   6.765  0.00  0.00    +0.000 C 
ATOM     12  O   UNL     1      46.994   0.290   6.764  0.00  0.00    +0.000 OA
ATOM     13  H   UNL     1      48.787   1.336   5.455  0.00  0.00    +0.000 HD
ATOM     14  H   UNL     1      48.643   2.921   6.122  0.00  0.00    +0.000 HD
ENDBRANCH   2  11
ENDBRANCH   1   6
BRANCH   1  15
ATOM     15  C   UNL     1      45.650   5.446  12.059  0.00  0.00    +0.000 A 
ATOM     16  C   UNL     1      46.419   6.408  11.403  0.00  0.00    +0.000 A 
ATOM     17  C   UNL     1      47.550   6.915  12.026  0.00  0.00    +0.000 A 
ATOM     18  F   UNL     1      48.296   7.829  11.390  0.00  0.00    +0.000 F 
ATOM     19  C   UNL     1      47.932   6.493  13.299  0.00  0.00    +0.000 A 
ATOM     20  C   UNL     1      47.187   5.527  13.993  0.00  0.00    +0.000 A 
ATOM     21  C   UNL     1      46.052   5.010  13.339  0.00  0.00    +0.000 A 
BRANCH  20  22
ATOM     22  C   UNL     1      47.573   5.069  15.348  0.00  0.00    +0.000 A 
ATOM     23  C   UNL     1      48.513   5.776  16.126  0.00  0.00    +0.000 A 
ATOM     24  C   UNL     1      48.879   5.349  17.409  0.00  0.00    +0.000 A 
ATOM     25  C   UNL     1      48.318   4.194  17.940  0.00  0.00    +0.000 A 
ATOM     26  C   UNL     1      47.396   3.482  17.188  0.00  0.00    +0.000 A 
ATOM     27  F   UNL     1      46.858   2.364  17.691  0.00  0.00    +0.000 F 
ATOM     28  C   UNL     1      47.020   3.907  15.916  0.00  0.00    +0.000 A 
ENDBRANCH  20  22
ENDBRANCH   1  15
TORSDOF 4
ENDMDL
MODEL 3
REMARK VINA RESULT:    -8.256      5.093      7.976
REMARK INTER + INTRA:         -10.847
REMARK INTER:                 -10.312
REMARK INTRA:                  -0.535
REMARK UNBOUND:                -0.661
REMARK  Name = 
REMARK  4 active torsions:
REMARK  status: ('A' for Active; 'I' for Inactive)
REMARK    1  A    between atoms: C_2  and  C_4
REMARK    2  A    between atoms: N_8  and  C_9
REMARK    3  A    between atoms: C_9  and  C_10
REMARK    4  A    between atoms: C_15  and  C_16
REMARK                            x       y       z     vdW  Elec       q    Type
REMARK                         _______ _______ _______ _____ _____    ______ ____
ROOT
ATOM      1  C   UNL     1      46.229   5.386  13.866  0.00  0.00    +0.000 C 
ENDROOT
BRANCH   1   6
ATOM      2  C   UNL     1      49.400   3.891  17.333  0.00  0.00    +0.000 A 
ATOM      3  C   UNL     1      48.816   5.094  17.029  0.00  0.00    +0.000 A 
ATOM      4  N   UNL     1      47.796   5.226  16.155  0.00  0.00    +0.000 NA
ATOM      5  C   UNL     1      47.353   4.111  15.549  0.00  0.00    +0.000 A 
ATOM      6  N   UNL     1      46.283   4.187  14.678  0.00  0.00    +0.000 N 
ATOM      7  N   UNL     1      47.867   2.896  15.765  0.00  0.00    +0.000 NA
ATOM      8  C   UNL     1      48.892   2.810  16.652  0.00  0.00    +0.000 A 
ATOM      9  H   UNL     1      46.237   3.315  14.164  0.00  0.00    +0.000 HD
BRANCH   2  11
ATOM     10  N   UNL     1      51.306   2.628  18.158  0.00  0.00    +0.000 N 
ATOM     11  C   UNL     1      50.522   3.744  18.268  0.00  0.00    +0.000 C 
ATOM     12  O   UNL     1      50.761   4.605  19.105  0.00  0.00    +0.000 OA
ATOM     13  H   UNL     1      52.117   2.589  18.763  0.00  0.00    +0.000 HD
ATOM     14  H   UNL     1      51.308   2.023  17.349  0.00  0.00    +0.000 HD
ENDBRANCH   2  11
ENDBRANCH   1   6
BRANCH   1  15
ATOM     15  C   UNL     1      45.293   5.159  12.703  0.00  0.00    +0.000 A 
ATOM     16  C   UNL     1      43.951   5.541  12.760  0.00  0.00    +0.000 A 
ATOM     17  C   UNL     1      43.120   5.265  11.684  0.00  0.00    +0.000 A 
ATOM     18  F   UNL     1      41.829   5.620  11.744  0.00  0.00    +0.000 F 
ATOM     19  C   UNL     1      43.596   4.623  10.541  0.00  0.00    +0.000 A 
ATOM     20  C   UNL     1      44.937   4.221  10.444  0.00  0.00    +0.000 A 
ATOM     21  C   UNL     1      45.763   4.493  11.552  0.00  0.00    +0.000 A 
BRANCH  20  22
ATOM     22  C   UNL     1      45.463   3.542   9.237  0.00  0.00    +0.000 A 
ATOM     23  C   UNL     1      45.875   4.270   8.101  0.00  0.00    +0.000 A 
ATOM     24  C   UNL     1      46.375   3.633   6.959  0.00  0.00    +0.000 A 
ATOM     25  C   UNL     1      46.466   2.247   6.922  0.00  0.00    +0.000 A 
ATOM     26  C   UNL     1      46.060   1.514   8.027  0.00  0.00    +0.000 A 
ATOM     27  F   UNL     1      46.137   0.178   7.996  0.00  0.00    +0.000 F 
ATOM     28  C   UNL     1      45.571   2.142   9.171  0.00  0.00    +0.000 A 
ENDBRANCH  20  22
ENDBRANCH   1  15
TORSDOF 4
ENDMDL
MODEL 4
REMARK VINA RESULT:    -8.073      4.180      7.304
REMARK INTER + INTRA:         -10.621
REMARK INTER:                 -10.085
REMARK INTRA:                  -0.536
REMARK UNBOUND:                -0.661
REMARK  Name = 
REMARK  4 active torsions:
REMARK  status: ('A' for Active; 'I' for Inactive)
REMARK    1  A    between atoms: C_2  and  C_4
REMARK    2  A    between atoms: N_8  and  C_9
REMARK    3  A    between atoms: C_9  and  C_10
REMARK    4  A    between atoms: C_15  and  C_16
REMARK                            x       y       z     vdW  Elec       q    Type
REMARK                         _______ _______ _______ _____ _____    ______ ____
ROOT
ATOM      1  C   UNL     1      44.868   6.515  11.366  0.00  0.00    +0.000 C 
ENDROOT
BRANCH   1   6
ATOM      2  C   UNL     1      48.272   6.317  14.927  0.00  0.00    +0.000 A 
ATOM      3  C   UNL     1      47.204   5.529  14.583  0.00  0.00    +0.000 A 
ATOM      4  N   UNL     1      46.528   5.657  13.422  0.00  0.00    +0.000 NA
ATOM      5  C   UNL     1      46.927   6.623  12.578  0.00  0.00    +0.000 A 
ATOM      6  N   UNL     1      46.294   6.768  11.358  0.00  0.00    +0.000 N 
ATOM      7  N   UNL     1      47.945   7.453  12.829  0.00  0.00    +0.000 NA
ATOM      8  C   UNL     1      48.597   7.289  14.008  0.00  0.00    +0.000 A 
ATOM      9  H   UNL     1      46.573   7.660  10.966  0.00  0.00    +0.000 HD
BRANCH   2  11
ATOM     10  N   UNL     1      48.315   6.451  17.353  0.00  0.00    +0.000 N 
ATOM     11  C   UNL     1      48.999   6.194  16.196  0.00  0.00    +0.000 C 
ATOM     12  O   UNL     1      50.174   5.852  16.218  0.00  0.00    +0.000 OA
ATOM     13  H   UNL     1      48.818   6.284  18.217  0.00  0.00    +0.000 HD
ATOM     14  H   UNL     1      47.307   6.494  17.410  0.00  0.00    +0.000 HD
ENDBRANCH   2  11
ENDBRANCH   1   6
BRANCH   1  15
ATOM     15  C   UNL     1      44.609   5.096  10.919  0.00  0.00    +0.000 A 
ATOM     16  C   UNL     1      43.728   4.262  11.609  0.00  0.00    +0.000 A 
ATOM     17  C   UNL     1      43.563   2.950  11.188  0.00  0.00    +0.000 A 
ATOM     18  F   UNL     1      42.726   2.146  11.859  0.00  0.00    +0.000 F 
ATOM     19  C   UNL     1      44.251   2.447  10.085  0.00  0.00    +0.000 A 
ATOM     20  C   UNL     1      45.148   3.251   9.365  0.00  0.00    +0.000 A 
ATOM     21  C   UNL     1      45.317   4.575   9.815  0.00  0.00    +0.000 A 
BRANCH  20  22
ATOM     22  C   UNL     1      45.885   2.736   8.187  0.00  0.00    +0.000 A 
ATOM     23  C   UNL     1      46.409   1.428   8.159  0.00  0.00    +0.000 A 
ATOM     24  C   UNL     1      47.104   0.936   7.047  0.00  0.00    +0.000 A 
ATOM     25  C   UNL     1      47.299   1.749   5.936  0.00  0.00    +0.000 A 
ATOM     26  C   UNL     1      46.796   3.040   5.948  0.00  0.00    +0.000 A 
ATOM     27  F   UNL     1      46.987   3.832   4.885  0.00  0.00    +0.000 F 
ATOM     28  C   UNL     1      46.095   3.533   7.047  0.00  0.00    +0.000 A 
ENDBRANCH  20  22
ENDBRANCH   1  15
TORSDOF 4
ENDMDL
MODEL 5
REMARK VINA RESULT:    -8.060      4.172      7.139
REMARK INTER + INTRA:         -10.606
REMARK INTER:                  -9.844
REMARK INTRA:                  -0.762
REMARK UNBOUND:                -0.661
REMARK  Name = 
REMARK  4 active torsions:
REMARK  status: ('A' for Active; 'I' for Inactive)
REMARK    1  A    between atoms: C_2  and  C_4
REMARK    2  A    between atoms: N_8  and  C_9
REMARK    3  A    between atoms: C_9  and  C_10
REMARK    4  A    between atoms: C_15  and  C_16
REMARK                            x       y       z     vdW  Elec       q    Type
REMARK                         _______ _______ _______ _____ _____    ______ ____
ROOT
ATOM      1  C   UNL     1      44.501   6.839  11.481  0.00  0.00    +0.000 C 
ENDROOT
BRANCH   1   6
ATOM      2  C   UNL     1      49.141   7.793  12.847  0.00  0.00    +0.000 A 
ATOM      3  C   UNL     1      48.319   8.273  11.859  0.00  0.00    +0.000 A 
ATOM      4  N   UNL     1      46.995   8.020  11.805  0.00  0.00    +0.000 NA
ATOM      5  C   UNL     1      46.474   7.243  12.770  0.00  0.00    +0.000 A 
ATOM      6  N   UNL     1      45.116   6.989  12.784  0.00  0.00    +0.000 N 
ATOM      7  N   UNL     1      47.194   6.714  13.765  0.00  0.00    +0.000 NA
ATOM      8  C   UNL     1      48.522   6.994  13.780  0.00  0.00    +0.000 A 
ATOM      9  H   UNL     1      44.947   6.227  13.431  0.00  0.00    +0.000 HD
BRANCH   2  11
ATOM     10  N   UNL     1      51.343   7.668  11.827  0.00  0.00    +0.000 N 
ATOM     11  C   UNL     1      50.586   8.050  12.900  0.00  0.00    +0.000 C 
ATOM     12  O   UNL     1      51.091   8.608  13.866  0.00  0.00    +0.000 OA
ATOM     13  H   UNL     1      52.323   7.926  11.855  0.00  0.00    +0.000 HD
ATOM     14  H   UNL     1      50.957   7.436  10.922  0.00  0.00    +0.000 HD
ENDBRANCH   2  11
ENDBRANCH   1   6
BRANCH   1  15
ATOM     15  C   UNL     1      44.389   5.370  11.147  0.00  0.00    +0.000 A 
ATOM     16  C   UNL     1      43.670   4.490  11.957  0.00  0.00    +0.000 A 
ATOM     17  C   UNL     1      43.639   3.140  11.635  0.00  0.00    +0.000 A 
ATOM     18  F   UNL     1      42.960   2.294  12.421  0.00  0.00    +0.000 F 
ATOM     19  C   UNL     1      44.303   2.644  10.515  0.00  0.00    +0.000 A 
ATOM     20  C   UNL     1      45.039   3.494   9.675  0.00  0.00    +0.000 A 
ATOM     21  C   UNL     1      45.074   4.858  10.026  0.00  0.00    +0.000 A 
BRANCH  20  22
ATOM     22  C   UNL     1      45.747   2.986   8.477  0.00  0.00    +0.000 A 
ATOM     23  C   UNL     1      46.120   3.844   7.421  0.00  0.00    +0.000 A 
ATOM     24  C   UNL     1      46.792   3.369   6.288  0.00  0.00    +0.000 A 
ATOM     25  C   UNL     1      47.099   2.018   6.180  0.00  0.00    +0.000 A 
ATOM     26  C   UNL     1      46.735   1.158   7.205  0.00  0.00    +0.000 A 
ATOM     27  F   UNL     1      47.020  -0.146   7.104  0.00  0.00    +0.000 F 
ATOM     28  C   UNL     1      46.076   1.626   8.340  0.00  0.00    +0.000 A 
ENDBRANCH  20  22
ENDBRANCH   1  15
TORSDOF 4
ENDMDL
MODEL 6
REMARK VINA RESULT:    -7.971      4.178      7.371
REMARK INTER + INTRA:         -10.495
REMARK INTER:                 -10.341
REMARK INTRA:                  -0.155
REMARK UNBOUND:                -0.661
REMARK  Name = 
REMARK  4 active torsions:
REMARK  status: ('A' for Active; 'I' for Inactive)
REMARK    1  A    between atoms: C_2  and  C_4
REMARK    2  A    between atoms: N_8  and  C_9
REMARK    3  A    between atoms: C_9  and  C_10
REMARK    4  A    between atoms: C_15  and  C_16
REMARK                            x       y       z     vdW  Elec       q    Type
REMARK                         _______ _______ _______ _____ _____    ______ ____
ROOT
ATOM      1  C   UNL     1      44.922   6.712  11.507  0.00  0.00    +0.000 C 
ENDROOT
BRANCH   1   6
ATOM      2  C   UNL     1      47.870   5.561  15.288  0.00  0.00    +0.000 A 
ATOM      3  C   UNL     1      46.815   4.934  14.675  0.00  0.00    +0.000 A 
ATOM      4  N   UNL     1      46.288   5.342  13.502  0.00  0.00    +0.000 NA
ATOM      5  C   UNL     1      46.827   6.430  12.926  0.00  0.00    +0.000 A 
ATOM      6  N   UNL     1      46.350   6.862  11.703  0.00  0.00    +0.000 N 
ATOM      7  N   UNL     1      47.845   7.119  13.452  0.00  0.00    +0.000 NA
ATOM      8  C   UNL     1      48.345   6.674  14.633  0.00  0.00    +0.000 A 
ATOM      9  H   UNL     1      46.712   7.794  11.539  0.00  0.00    +0.000 HD
BRANCH   2  11
ATOM     10  N   UNL     1      47.768   5.482  17.715  0.00  0.00    +0.000 N 
ATOM     11  C   UNL     1      48.437   5.134  16.573  0.00  0.00    +0.000 C 
ATOM     12  O   UNL     1      49.463   4.467  16.619  0.00  0.00    +0.000 OA
ATOM     13  H   UNL     1      48.137   5.110  18.582  0.00  0.00    +0.000 HD
ATOM     14  H   UNL     1      46.811   5.808  17.726  0.00  0.00    +0.000 HD
ENDBRANCH   2  11
ENDBRANCH   1   6
BRANCH   1  15
ATOM     15  C   UNL     1      44.627   5.304  11.046  0.00  0.00    +0.000 A 
ATOM     16  C   UNL     1      43.716   4.490  11.722  0.00  0.00    +0.000 A 
ATOM     17  C   UNL     1      43.518   3.187  11.289  0.00  0.00    +0.000 A 
ATOM     18  F   UNL     1      42.653   2.402  11.946  0.00  0.00    +0.000 F 
ATOM     19  C   UNL     1      44.200   2.674  10.187  0.00  0.00    +0.000 A 
ATOM     20  C   UNL     1      45.125   3.458   9.480  0.00  0.00    +0.000 A 
ATOM     21  C   UNL     1      45.328   4.773   9.944  0.00  0.00    +0.000 A 
BRANCH  20  22
ATOM     22  C   UNL     1      45.856   2.932   8.304  0.00  0.00    +0.000 A 
ATOM     23  C   UNL     1      46.288   3.781   7.264  0.00  0.00    +0.000 A 
ATOM     24  C   UNL     1      46.982   3.289   6.151  0.00  0.00    +0.000 A 
ATOM     25  C   UNL     1      47.252   1.930   6.048  0.00  0.00    +0.000 A 
ATOM     26  C   UNL     1      46.830   1.079   7.058  0.00  0.00    +0.000 A 
ATOM     27  F   UNL     1      47.079  -0.233   6.962  0.00  0.00    +0.000 F 
ATOM     28  C   UNL     1      46.148   1.563   8.173  0.00  0.00    +0.000 A 
ENDBRANCH  20  22
ENDBRANCH   1  15
TORSDOF 4
ENDMDL
MODEL 7
REMARK VINA RESULT:    -7.959      1.860      3.253
REMARK INTER + INTRA:         -10.481
REMARK INTER:                  -9.852
REMARK INTRA:                  -0.629
REMARK UNBOUND:                -0.661
REMARK  Name = 
REMARK  4 active torsions:
REMARK  status: ('A' for Active; 'I' for Inactive)
REMARK    1  A    between atoms: C_2  and  C_4
REMARK    2  A    between atoms: N_8  and  C_9
REMARK    3  A    between atoms: C_9  and  C_10
REMARK    4  A    between atoms: C_15  and  C_16
REMARK                            x       y       z     vdW  Elec       q    Type
REMARK                         _______ _______ _______ _____ _____    ______ ____
ROOT
ATOM      1  C   UNL     1      44.310   5.251  11.143  0.00  0.00    +0.000 C 
ENDROOT
BRANCH   1   6
ATOM      2  C   UNL     1      46.334   2.116   7.921  0.00  0.00    +0.000 A 
ATOM      3  C   UNL     1      45.647   1.964   9.099  0.00  0.00    +0.000 A 
ATOM      4  N   UNL     1      44.988   2.969   9.711  0.00  0.00    +0.000 NA
ATOM      5  C   UNL     1      45.030   4.180   9.130  0.00  0.00    +0.000 A 
ATOM      6  N   UNL     1      44.336   5.233   9.695  0.00  0.00    +0.000 N 
ATOM      7  N   UNL     1      45.686   4.434   7.993  0.00  0.00    +0.000 NA
ATOM      8  C   UNL     1      46.335   3.394   7.411  0.00  0.00    +0.000 A 
ATOM      9  H   UNL     1      44.658   6.089   9.258  0.00  0.00    +0.000 HD
BRANCH   2  11
ATOM     10  N   UNL     1      46.775  -0.256   7.626  0.00  0.00    +0.000 N 
ATOM     11  C   UNL     1      47.068   1.030   7.261  0.00  0.00    +0.000 C 
ATOM     12  O   UNL     1      47.900   1.269   6.395  0.00  0.00    +0.000 OA
ATOM     13  H   UNL     1      47.239  -0.987   7.101  0.00  0.00    +0.000 HD
ATOM     14  H   UNL     1      45.945  -0.516   8.139  0.00  0.00    +0.000 HD
ENDBRANCH   2  11
ENDBRANCH   1   6
BRANCH   1  15
ATOM     15  C   UNL     1      44.930   6.537  11.638  0.00  0.00    +0.000 A 
ATOM     16  C   UNL     1      44.328   7.774  11.407  0.00  0.00    +0.000 A 
ATOM     17  C   UNL     1      44.962   8.931  11.837  0.00  0.00    +0.000 A 
ATOM     18  F   UNL     1      44.390  10.120  11.603  0.00  0.00    +0.000 F 
ATOM     19  C   UNL     1      46.185   8.885  12.506  0.00  0.00    +0.000 A 
ATOM     20  C   UNL     1      46.825   7.661  12.757  0.00  0.00    +0.000 A 
ATOM     21  C   UNL     1      46.176   6.498  12.298  0.00  0.00    +0.000 A 
BRANCH  20  22
ATOM     22  C   UNL     1      48.122   7.591  13.470  0.00  0.00    +0.000 A 
ATOM     23  C   UNL     1      49.277   8.223  12.965  0.00  0.00    +0.000 A 
ATOM     24  C   UNL     1      50.504   8.162  13.637  0.00  0.00    +0.000 A 
ATOM     25  C   UNL     1      50.607   7.455  14.829  0.00  0.00    +0.000 A 
ATOM     26  C   UNL     1      49.484   6.822  15.338  0.00  0.00    +0.000 A 
ATOM     27  F   UNL     1      49.578   6.132  16.481  0.00  0.00    +0.000 F 
ATOM     28  C   UNL     1      48.257   6.887  14.680  0.00  0.00    +0.000 A 
ENDBRANCH  20  22
ENDBRANCH   1  15
TORSDOF 4
ENDMDL
MODEL 8
REMARK VINA RESULT:    -7.894      2.204      2.809
REMARK INTER + INTRA:         -10.401
REMARK INTER:                  -9.943
REMARK INTRA:                  -0.458
REMARK UNBOUND:                -0.661
REMARK  Name = 
REMARK  4 active torsions:
REMARK  status: ('A' for Active; 'I' for Inactive)
REMARK    1  A    between atoms: C_2  and  C_4
REMARK    2  A    between atoms: N_8  and  C_9
REMARK    3  A    between atoms: C_9  and  C_10
REMARK    4  A    between atoms: C_15  and  C_16
REMARK                            x       y       z     vdW  Elec       q    Type
REMARK                         _______ _______ _______ _____ _____    ______ ____
ROOT
ATOM      1  C   UNL     1      43.642   3.815  10.848  0.00  0.00    +0.000 C 
ENDROOT
BRANCH   1   6
ATOM      2  C   UNL     1      46.705   2.471   7.226  0.00  0.00    +0.000 A 
ATOM      3  C   UNL     1      46.403   3.667   7.826  0.00  0.00    +0.000 A 
ATOM      4  N   UNL     1      45.681   3.768   8.961  0.00  0.00    +0.000 NA
ATOM      5  C   UNL     1      45.230   2.627   9.511  0.00  0.00    +0.000 A 
ATOM      6  N   UNL     1      44.522   2.674  10.697  0.00  0.00    +0.000 N 
ATOM      7  N   UNL     1      45.456   1.415   8.993  0.00  0.00    +0.000 NA
ATOM      8  C   UNL     1      46.186   1.360   7.851  0.00  0.00    +0.000 A 
ATOM      9  H   UNL     1      44.086   1.770  10.835  0.00  0.00    +0.000 HD
BRANCH   2  11
ATOM     10  N   UNL     1      47.245   3.282   4.999  0.00  0.00    +0.000 N 
ATOM     11  C   UNL     1      47.473   2.356   5.980  0.00  0.00    +0.000 C 
ATOM     12  O   UNL     1      48.308   1.472   5.835  0.00  0.00    +0.000 OA
ATOM     13  H   UNL     1      47.842   3.226   4.183  0.00  0.00    +0.000 HD
ATOM     14  H   UNL     1      46.762   4.156   5.156  0.00  0.00    +0.000 HD
ENDBRANCH   2  11
ENDBRANCH   1   6
BRANCH   1  15
ATOM     15  C   UNL     1      44.380   4.926  11.556  0.00  0.00    +0.000 A 
ATOM     16  C   UNL     1      45.273   4.663  12.595  0.00  0.00    +0.000 A 
ATOM     17  C   UNL     1      45.888   5.722  13.248  0.00  0.00    +0.000 A 
ATOM     18  F   UNL     1      46.736   5.469  14.255  0.00  0.00    +0.000 F 
ATOM     19  C   UNL     1      45.642   7.045  12.882  0.00  0.00    +0.000 A 
ATOM     20  C   UNL     1      44.749   7.353  11.843  0.00  0.00    +0.000 A 
ATOM     21  C   UNL     1      44.121   6.267  11.204  0.00  0.00    +0.000 A 
BRANCH  20  22
ATOM     22  C   UNL     1      44.478   8.751  11.437  0.00  0.00    +0.000 A 
ATOM     23  C   UNL     1      45.344   9.805  11.796  0.00  0.00    +0.000 A 
ATOM     24  C   UNL     1      45.093  11.128  11.411  0.00  0.00    +0.000 A 
ATOM     25  C   UNL     1      43.961  11.430  10.664  0.00  0.00    +0.000 A 
ATOM     26  C   UNL     1      43.095  10.408  10.307  0.00  0.00    +0.000 A 
ATOM     27  F   UNL     1      41.998  10.693   9.594  0.00  0.00    +0.000 F 
ATOM     28  C   UNL     1      43.344   9.088  10.677  0.00  0.00    +0.000 A 
ENDBRANCH  20  22
ENDBRANCH   1  15
TORSDOF 4
ENDMDL
MODEL 9
REMARK VINA RESULT:    -7.714      5.503      7.903
REMARK INTER + INTRA:         -10.178
REMARK INTER:                  -9.460
REMARK INTRA:                  -0.719
REMARK UNBOUND:                -0.661
REMARK  Name = 
REMARK  4 active torsions:
REMARK  status: ('A' for Active; 'I' for Inactive)
REMARK    1  A    between atoms: C_2  and  C_4
REMARK    2  A    between atoms: N_8  and  C_9
REMARK    3  A    between atoms: C_9  and  C_10
REMARK    4  A    between atoms: C_15  and  C_16
REMARK                            x       y       z     vdW  Elec       q    Type
REMARK                         _______ _______ _______ _____ _____    ______ ____
ROOT
ATOM      1  C   UNL     1      48.656   6.613  15.803  0.00  0.00    +0.000 C 
ENDROOT
BRANCH   1   6
ATOM      2  C   UNL     1      50.946   2.534  17.360  0.00  0.00    +0.000 A 
ATOM      3  C   UNL     1      51.200   3.877  17.480  0.00  0.00    +0.000 A 
ATOM      4  N   UNL     1      50.308   4.835  17.154  0.00  0.00    +0.000 NA
ATOM      5  C   UNL     1      49.119   4.435  16.674  0.00  0.00    +0.000 A 
ATOM      6  N   UNL     1      48.155   5.376  16.367  0.00  0.00    +0.000 N 
ATOM      7  N   UNL     1      48.782   3.152  16.504  0.00  0.00    +0.000 NA
ATOM      8  C   UNL     1      49.710   2.221  16.844  0.00  0.00    +0.000 A 
ATOM      9  H   UNL     1      47.432   4.917  15.825  0.00  0.00    +0.000 HD
BRANCH   2  11
ATOM     10  N   UNL     1      51.439   0.279  18.120  0.00  0.00    +0.000 N 
ATOM     11  C   UNL     1      51.920   1.488  17.695  0.00  0.00    +0.000 C 
ATOM     12  O   UNL     1      53.122   1.685  17.576  0.00  0.00    +0.000 OA
ATOM     13  H   UNL     1      52.127  -0.449  18.270  0.00  0.00    +0.000 HD
ATOM     14  H   UNL     1      50.480  -0.015  18.002  0.00  0.00    +0.000 HD
ENDBRANCH   2  11
ENDBRANCH   1   6
BRANCH   1  15
ATOM     15  C   UNL     1      48.257   6.697  14.349  0.00  0.00    +0.000 A 
ATOM     16  C   UNL     1      48.903   7.561  13.463  0.00  0.00    +0.000 A 
ATOM     17  C   UNL     1      48.465   7.638  12.148  0.00  0.00    +0.000 A 
ATOM     18  F   UNL     1      49.077   8.478  11.301  0.00  0.00    +0.000 F 
ATOM     19  C   UNL     1      47.401   6.865  11.688  0.00  0.00    +0.000 A 
ATOM     20  C   UNL     1      46.723   5.985  12.546  0.00  0.00    +0.000 A 
ATOM     21  C   UNL     1      47.168   5.932  13.881  0.00  0.00    +0.000 A 
BRANCH  20  22
ATOM     22  C   UNL     1      45.593   5.151  12.075  0.00  0.00    +0.000 A 
ATOM     23  C   UNL     1      44.847   4.348  12.963  0.00  0.00    +0.000 A 
ATOM     24  C   UNL     1      43.777   3.560  12.523  0.00  0.00    +0.000 A 
ATOM     25  C   UNL     1      43.432   3.549  11.176  0.00  0.00    +0.000 A 
ATOM     26  C   UNL     1      44.158   4.327  10.287  0.00  0.00    +0.000 A 
ATOM     27  F   UNL     1      43.837   4.315   8.987  0.00  0.00    +0.000 F 
ATOM     28  C   UNL     1      45.218   5.121  10.720  0.00  0.00    +0.000 A 
ENDBRANCH  20  22
ENDBRANCH   1  15
TORSDOF 4
ENDMDL
