MODEL 1
REMARK VINA RESULT:    -9.213      0.000      0.000
REMARK INTER + INTRA:         -12.069
REMARK INTER:                 -11.367
REMARK INTRA:                  -0.703
REMARK UNBOUND:                -0.703
REMARK  Name = 
REMARK  4 active torsions:
REMARK  status: ('A' for Active; 'I' for Inactive)
REMARK    1  A    between atoms: C_2  and  C_4
REMARK    2  A    between atoms: N_8  and  C_9
REMARK    3  A    between atoms: C_9  and  C_10
REMARK    4  A    between atoms: C_14  and  C_15
REMARK                            x       y       z     vdW  Elec       q    Type
REMARK                         _______ _______ _______ _____ _____    ______ ____
ROOT
ATOM      1  C   UNL     1      44.081   4.924  11.438  0.00  0.00    +0.000 C 
ATOM      2  C   UNL     1      42.842   4.887  12.316  0.00  0.00    +0.000 C 
ATOM      3  C   UNL     1      42.921   5.874  11.202  0.00  0.00    +0.000 C 
ENDROOT
BRANCH   1   8
ATOM      4  C   UNL     1      46.603   2.764   7.398  0.00  0.00    +0.000 A 
ATOM      5  C   UNL     1      46.413   4.112   7.700  0.00  0.00    +0.000 A 
ATOM      6  C   UNL     1      45.654   4.461   8.821  0.00  0.00    +0.000 A 
ATOM      7  C   UNL     1      45.116   3.457   9.617  0.00  0.00    +0.000 A 
ATOM      8  N   UNL     1      44.267   3.683  10.690  0.00  0.00    +0.000 N 
ATOM      9  N   UNL     1      45.316   2.149   9.346  0.00  0.00    +0.000 NA
ATOM     10  C   UNL     1      46.032   1.828   8.241  0.00  0.00    +0.000 A 
ATOM     11  H   UNL     1      44.145   2.798  11.175  0.00  0.00    +0.000 HD
BRANCH   4  13
ATOM     12  N   UNL     1      47.124   2.926   5.031  0.00  0.00    +0.000 N 
ATOM     13  C   UNL     1      47.346   2.286   6.216  0.00  0.00    +0.000 C 
ATOM     14  O   UNL     1      48.161   1.376   6.301  0.00  0.00    +0.000 OA
ATOM     15  H   UNL     1      47.723   2.659   4.259  0.00  0.00    +0.000 HD
ATOM     16  H   UNL     1      46.677   3.831   4.984  0.00  0.00    +0.000 HD
ENDBRANCH   4  13
ENDBRANCH   1   8
BRANCH   1  17
ATOM     17  C   UNL     1      45.397   5.533  11.908  0.00  0.00    +0.000 A 
ATOM     18  C   UNL     1      45.895   6.720  11.352  0.00  0.00    +0.000 A 
ATOM     19  C   UNL     1      46.940   7.414  11.960  0.00  0.00    +0.000 A 
ATOM     20  C   UNL     1      47.515   6.928  13.136  0.00  0.00    +0.000 A 
ATOM     21  C   UNL     1      47.086   5.722  13.710  0.00  0.00    +0.000 A 
ATOM     22  C   UNL     1      46.049   5.032  13.055  0.00  0.00    +0.000 A 
BRANCH  21  23
ATOM     23  C   UNL     1      47.621   5.241  15.006  0.00  0.00    +0.000 A 
ATOM     24  C   UNL     1      48.681   5.879  15.663  0.00  0.00    +0.000 A 
ATOM     25  N   UNL     1      49.257   5.445  16.815  0.00  0.00    +0.000 NA
ATOM     26  C   UNL     1      48.745   4.317  17.354  0.00  0.00    +0.000 A 
ATOM     27  C   UNL     1      47.694   3.618  16.792  0.00  0.00    +0.000 A 
ATOM     28  F   UNL     1      47.239   2.497  17.359  0.00  0.00    +0.000 F 
ATOM     29  C   UNL     1      47.134   4.076  15.603  0.00  0.00    +0.000 A 
ENDBRANCH  21  23
ENDBRANCH   1  17
TORSDOF 4
ENDMDL
MODEL 2
REMARK VINA RESULT:    -9.195      2.673      3.791
REMARK INTER + INTRA:         -12.048
REMARK INTER:                 -10.880
REMARK INTRA:                  -1.168
REMARK UNBOUND:                -0.703
REMARK  Name = 
REMARK  4 active torsions:
REMARK  status: ('A' for Active; 'I' for Inactive)
REMARK    1  A    between atoms: C_2  and  C_4
REMARK    2  A    between atoms: N_8  and  C_9
REMARK    3  A    between atoms: C_9  and  C_10
REMARK    4  A    between atoms: C_14  and  C_15
REMARK                            x       y       z     vdW  Elec       q    Type
REMARK                         _______ _______ _______ _____ _____    ______ ____
ROOT
ATOM      1  C   UNL     1      43.874   4.986  11.505  0.00  0.00    +0.000 C 
ATOM      2  C   UNL     1      42.445   5.174  11.987  0.00  0.00    +0.000 C 
ATOM      3  C   UNL     1      43.026   6.147  11.018  0.00  0.00    +0.000 C 
ENDROOT
BRANCH   1   8
ATOM      4  C   UNL     1      46.466   2.778   7.536  0.00  0.00    +0.000 A 
ATOM      5  C   UNL     1      46.310   4.129   7.844  0.00  0.00    +0.000 A 
ATOM      6  C   UNL     1      45.523   4.493   8.941  0.00  0.00    +0.000 A 
ATOM      7  C   UNL     1      44.925   3.501   9.708  0.00  0.00    +0.000 A 
ATOM      8  N   UNL     1      44.046   3.746  10.753  0.00  0.00    +0.000 N 
ATOM      9  N   UNL     1      45.092   2.190   9.432  0.00  0.00    +0.000 NA
ATOM     10  C   UNL     1      45.835   1.854   8.350  0.00  0.00    +0.000 A 
ATOM     11  H   UNL     1      43.878   2.862  11.225  0.00  0.00    +0.000 HD
BRANCH   4  13
ATOM     12  N   UNL     1      47.192   3.026   5.231  0.00  0.00    +0.000 N 
ATOM     13  C   UNL     1      47.235   2.285   6.377  0.00  0.00    +0.000 C 
ATOM     14  O   UNL     1      47.918   1.272   6.449  0.00  0.00    +0.000 OA
ATOM     15  H   UNL     1      47.811   2.734   4.485  0.00  0.00    +0.000 HD
ATOM     16  H   UNL     1      46.868   3.984   5.222  0.00  0.00    +0.000 HD
ENDBRANCH   4  13
ENDBRANCH   1   8
BRANCH   1  17
ATOM     17  C   UNL     1      45.080   5.321  12.375  0.00  0.00    +0.000 A 
ATOM     18  C   UNL     1      45.601   4.397  13.292  0.00  0.00    +0.000 A 
ATOM     19  C   UNL     1      46.850   4.595  13.880  0.00  0.00    +0.000 A 
ATOM     20  C   UNL     1      47.602   5.729  13.566  0.00  0.00    +0.000 A 
ATOM     21  C   UNL     1      47.109   6.707  12.689  0.00  0.00    +0.000 A 
ATOM     22  C   UNL     1      45.833   6.490  12.137  0.00  0.00    +0.000 A 
BRANCH  21  23
ATOM     23  C   UNL     1      47.932   7.868  12.275  0.00  0.00    +0.000 A 
ATOM     24  C   UNL     1      47.419   9.170  12.220  0.00  0.00    +0.000 A 
ATOM     25  N   UNL     1      48.105  10.260  11.782  0.00  0.00    +0.000 NA
ATOM     26  C   UNL     1      49.379  10.047  11.389  0.00  0.00    +0.000 A 
ATOM     27  C   UNL     1      49.984   8.806  11.414  0.00  0.00    +0.000 A 
ATOM     28  F   UNL     1      51.244   8.651  10.995  0.00  0.00    +0.000 F 
ATOM     29  C   UNL     1      49.253   7.705  11.850  0.00  0.00    +0.000 A 
ENDBRANCH  21  23
ENDBRANCH   1  17
TORSDOF 4
ENDMDL
MODEL 3
REMARK VINA RESULT:    -7.571      3.519      7.775
REMARK INTER + INTRA:         -10.044
REMARK INTER:                 -10.061
REMARK INTRA:                   0.017
REMARK UNBOUND:                -0.703
REMARK  Name = 
REMARK  4 active torsions:
REMARK  status: ('A' for Active; 'I' for Inactive)
REMARK    1  A    between atoms: C_2  and  C_4
REMARK    2  A    between atoms: N_8  and  C_9
REMARK    3  A    between atoms: C_9  and  C_10
REMARK    4  A    between atoms: C_14  and  C_15
REMARK                            x       y       z     vdW  Elec       q    Type
REMARK                         _______ _______ _______ _____ _____    ______ ____
ROOT
ATOM      1  C   UNL     1      48.578   7.726  12.844  0.00  0.00    +0.000 C 
ATOM      2  C   UNL     1      49.698   7.280  11.919  0.00  0.00    +0.000 C 
ATOM      3  C   UNL     1      49.349   8.728  12.004  0.00  0.00    +0.000 C 
ENDROOT
BRANCH   1   8
ATOM      4  C   UNL     1      47.886   4.290  16.725  0.00  0.00    +0.000 A 
ATOM      5  C   UNL     1      47.202   4.403  15.515  0.00  0.00    +0.000 A 
ATOM      6  C   UNL     1      47.530   5.443  14.640  0.00  0.00    +0.000 A 
ATOM      7  C   UNL     1      48.538   6.332  14.988  0.00  0.00    +0.000 A 
ATOM      8  N   UNL     1      48.878   7.455  14.248  0.00  0.00    +0.000 N 
ATOM      9  N   UNL     1      49.223   6.215  16.146  0.00  0.00    +0.000 NA
ATOM     10  C   UNL     1      48.876   5.218  16.995  0.00  0.00    +0.000 A 
ATOM     11  H   UNL     1      49.730   7.838  14.647  0.00  0.00    +0.000 HD
BRANCH   4  13
ATOM     12  N   UNL     1      48.392   3.217  18.845  0.00  0.00    +0.000 N 
ATOM     13  C   UNL     1      47.591   3.261  17.741  0.00  0.00    +0.000 C 
ATOM     14  O   UNL     1      46.639   2.500  17.619  0.00  0.00    +0.000 OA
ATOM     15  H   UNL     1      48.107   2.581  19.580  0.00  0.00    +0.000 HD
ATOM     16  H   UNL     1      48.999   3.984  19.100  0.00  0.00    +0.000 HD
ENDBRANCH   4  13
ENDBRANCH   1   8
BRANCH   1  17
ATOM     17  C   UNL     1      47.107   7.519  12.505  0.00  0.00    +0.000 A 
ATOM     18  C   UNL     1      46.165   8.544  12.669  0.00  0.00    +0.000 A 
ATOM     19  C   UNL     1      44.891   8.446  12.110  0.00  0.00    +0.000 A 
ATOM     20  C   UNL     1      44.531   7.313  11.378  0.00  0.00    +0.000 A 
ATOM     21  C   UNL     1      45.419   6.238  11.220  0.00  0.00    +0.000 A 
ATOM     22  C   UNL     1      46.685   6.357  11.822  0.00  0.00    +0.000 A 
BRANCH  21  23
ATOM     23  C   UNL     1      45.086   5.070  10.370  0.00  0.00    +0.000 A 
ATOM     24  C   UNL     1      44.261   4.029  10.814  0.00  0.00    +0.000 A 
ATOM     25  N   UNL     1      43.978   2.904  10.107  0.00  0.00    +0.000 NA
ATOM     26  C   UNL     1      44.536   2.810   8.880  0.00  0.00    +0.000 A 
ATOM     27  C   UNL     1      45.355   3.784   8.344  0.00  0.00    +0.000 A 
ATOM     28  F   UNL     1      45.896   3.631   7.131  0.00  0.00    +0.000 F 
ATOM     29  C   UNL     1      45.642   4.919   9.097  0.00  0.00    +0.000 A 
ENDBRANCH  21  23
ENDBRANCH   1  17
TORSDOF 4
ENDMDL
MODEL 4
REMARK VINA RESULT:    -7.388      2.559      3.415
REMARK INTER + INTRA:          -9.819
REMARK INTER:                  -9.658
REMARK INTRA:                  -0.161
REMARK UNBOUND:                -0.703
REMARK  Name = 
REMARK  4 active torsions:
REMARK  status: ('A' for Active; 'I' for Inactive)
REMARK    1  A    between atoms: C_2  and  C_4
REMARK    2  A    between atoms: N_8  and  C_9
REMARK    3  A    between atoms: C_9  and  C_10
REMARK    4  A    between atoms: C_14  and  C_15
REMARK                            x       y       z     vdW  Elec       q    Type
REMARK                         _______ _______ _______ _____ _____    ______ ____
ROOT
ATOM      1  C   UNL     1      44.364   5.535  11.097  0.00  0.00    +0.000 C 
ATOM      2  C   UNL     1      43.078   4.731  10.999  0.00  0.00    +0.000 C 
ATOM      3  C   UNL     1      43.008   6.200  11.246  0.00  0.00    +0.000 C 
ENDROOT
BRANCH   1   8
ATOM      4  C   UNL     1      46.588   2.425   7.529  0.00  0.00    +0.000 A 
ATOM      5  C   UNL     1      46.162   2.120   8.822  0.00  0.00    +0.000 A 
ATOM      6  C   UNL     1      45.634   3.136   9.625  0.00  0.00    +0.000 A 
ATOM      7  C   UNL     1      45.532   4.423   9.112  0.00  0.00    +0.000 A 
ATOM      8  N   UNL     1      45.120   5.525   9.847  0.00  0.00    +0.000 N 
ATOM      9  N   UNL     1      45.918   4.721   7.853  0.00  0.00    +0.000 NA
ATOM     10  C   UNL     1      46.452   3.732   7.097  0.00  0.00    +0.000 A 
ATOM     11  H   UNL     1      45.000   6.298   9.198  0.00  0.00    +0.000 HD
BRANCH   4  13
ATOM     12  N   UNL     1      48.161   1.894   5.756  0.00  0.00    +0.000 N 
ATOM     13  C   UNL     1      47.201   1.442   6.616  0.00  0.00    +0.000 C 
ATOM     14  O   UNL     1      46.892   0.257   6.652  0.00  0.00    +0.000 OA
ATOM     15  H   UNL     1      48.648   1.188   5.217  0.00  0.00    +0.000 HD
ATOM     16  H   UNL     1      48.621   2.784   5.884  0.00  0.00    +0.000 HD
ENDBRANCH   4  13
ENDBRANCH   1   8
BRANCH   1  17
ATOM     17  C   UNL     1      45.260   5.495  12.329  0.00  0.00    +0.000 A 
ATOM     18  C   UNL     1      45.108   4.508  13.314  0.00  0.00    +0.000 A 
ATOM     19  C   UNL     1      46.088   4.308  14.287  0.00  0.00    +0.000 A 
ATOM     20  C   UNL     1      47.239   5.099  14.297  0.00  0.00    +0.000 A 
ATOM     21  C   UNL     1      47.420   6.129  13.363  0.00  0.00    +0.000 A 
ATOM     22  C   UNL     1      46.400   6.323  12.414  0.00  0.00    +0.000 A 
BRANCH  21  23
ATOM     23  C   UNL     1      48.676   6.915  13.303  0.00  0.00    +0.000 A 
ATOM     24  C   UNL     1      49.383   7.289  14.453  0.00  0.00    +0.000 A 
ATOM     25  N   UNL     1      50.498   8.066  14.463  0.00  0.00    +0.000 NA
ATOM     26  C   UNL     1      50.947   8.486  13.261  0.00  0.00    +0.000 A 
ATOM     27  C   UNL     1      50.332   8.165  12.067  0.00  0.00    +0.000 A 
ATOM     28  F   UNL     1      50.809   8.624  10.906  0.00  0.00    +0.000 F 
ATOM     29  C   UNL     1      49.181   7.382  12.087  0.00  0.00    +0.000 A 
ENDBRANCH  21  23
ENDBRANCH   1  17
TORSDOF 4
ENDMDL
MODEL 5
REMARK VINA RESULT:    -7.300      4.018      7.438
REMARK INTER + INTRA:          -9.710
REMARK INTER:                  -8.661
REMARK INTRA:                  -1.048
REMARK UNBOUND:                -0.703
REMARK  Name = 
REMARK  4 active torsions:
REMARK  status: ('A' for Active; 'I' for Inactive)
REMARK    1  A    between atoms: C_2  and  C_4
REMARK    2  A    between atoms: N_8  and  C_9
REMARK    3  A    between atoms: C_9  and  C_10
REMARK    4  A    between atoms: C_14  and  C_15
REMARK                            x       y       z     vdW  Elec       q    Type
REMARK                         _______ _______ _______ _____ _____    ______ ____
ROOT
ATOM      1  C   UNL     1      46.106   5.024  13.435  0.00  0.00    +0.000 C 
ATOM      2  C   UNL     1      46.110   4.252  14.742  0.00  0.00    +0.000 C 
ATOM      3  C   UNL     1      47.206   4.031  13.757  0.00  0.00    +0.000 C 
ENDROOT
BRANCH   1   8
ATOM      4  C   UNL     1      48.561   9.325  11.756  0.00  0.00    +0.000 A 
ATOM      5  C   UNL     1      48.876   7.986  11.530  0.00  0.00    +0.000 A 
ATOM      6  C   UNL     1      48.096   6.991  12.127  0.00  0.00    +0.000 A 
ATOM      7  C   UNL     1      47.017   7.359  12.921  0.00  0.00    +0.000 A 
ATOM      8  N   UNL     1      46.238   6.464  13.641  0.00  0.00    +0.000 N 
ATOM      9  N   UNL     1      46.690   8.653  13.124  0.00  0.00    +0.000 NA
ATOM     10  C   UNL     1      47.471   9.605  12.560  0.00  0.00    +0.000 A 
ATOM     11  H   UNL     1      45.443   6.979  14.010  0.00  0.00    +0.000 HD
BRANCH   4  13
ATOM     12  N   UNL     1      50.686  10.468  11.465  0.00  0.00    +0.000 N 
ATOM     13  C   UNL     1      49.343  10.453  11.214  0.00  0.00    +0.000 C 
ATOM     14  O   UNL     1      48.819  11.324  10.530  0.00  0.00    +0.000 OA
ATOM     15  H   UNL     1      51.221  11.186  10.993  0.00  0.00    +0.000 HD
ATOM     16  H   UNL     1      51.182   9.647  11.783  0.00  0.00    +0.000 HD
ENDBRANCH   4  13
ENDBRANCH   1   8
BRANCH   1  17
ATOM     17  C   UNL     1      45.168   4.678  12.284  0.00  0.00    +0.000 A 
ATOM     18  C   UNL     1      43.924   5.307  12.138  0.00  0.00    +0.000 A 
ATOM     19  C   UNL     1      43.196   5.193  10.953  0.00  0.00    +0.000 A 
ATOM     20  C   UNL     1      43.699   4.439   9.890  0.00  0.00    +0.000 A 
ATOM     21  C   UNL     1      44.917   3.752  10.000  0.00  0.00    +0.000 A 
ATOM     22  C   UNL     1      45.611   3.864  11.219  0.00  0.00    +0.000 A 
BRANCH  21  23
ATOM     23  C   UNL     1      45.507   3.025   8.851  0.00  0.00    +0.000 A 
ATOM     24  C   UNL     1      45.769   1.649   8.888  0.00  0.00    +0.000 A 
ATOM     25  N   UNL     1      46.371   0.944   7.894  0.00  0.00    +0.000 NA
ATOM     26  C   UNL     1      46.722   1.641   6.792  0.00  0.00    +0.000 A 
ATOM     27  C   UNL     1      46.500   2.997   6.650  0.00  0.00    +0.000 A 
ATOM     28  F   UNL     1      46.887   3.641   5.544  0.00  0.00    +0.000 F 
ATOM     29  C   UNL     1      45.898   3.698   7.691  0.00  0.00    +0.000 A 
ENDBRANCH  21  23
ENDBRANCH   1  17
TORSDOF 4
ENDMDL
MODEL 6
REMARK VINA RESULT:    -7.235      4.181      8.581
REMARK INTER + INTRA:          -9.629
REMARK INTER:                  -8.697
REMARK INTRA:                  -0.932
REMARK UNBOUND:                -0.703
REMARK  Name = 
REMARK  4 active torsions:
REMARK  status: ('A' for Active; 'I' for Inactive)
REMARK    1  A    between atoms: C_2  and  C_4
REMARK    2  A    between atoms: N_8  and  C_9
REMARK    3  A    between atoms: C_9  and  C_10
REMARK    4  A    between atoms: C_14  and  C_15
REMARK                            x       y       z     vdW  Elec       q    Type
REMARK                         _______ _______ _______ _____ _____    ______ ____
ROOT
ATOM      1  C   UNL     1      48.924   7.761  12.536  0.00  0.00    +0.000 C 
ATOM      2  C   UNL     1      49.921   7.800  11.390  0.00  0.00    +0.000 C 
ATOM      3  C   UNL     1      49.562   9.065  12.093  0.00  0.00    +0.000 C 
ENDROOT
BRANCH   1   8
ATOM      4  C   UNL     1      48.871   7.378  17.751  0.00  0.00    +0.000 A 
ATOM      5  C   UNL     1      48.524   8.461  16.943  0.00  0.00    +0.000 A 
ATOM      6  C   UNL     1      48.665   8.351  15.556  0.00  0.00    +0.000 A 
ATOM      7  C   UNL     1      49.136   7.161  15.013  0.00  0.00    +0.000 A 
ATOM      8  N   UNL     1      49.410   6.974  13.666  0.00  0.00    +0.000 N 
ATOM      9  N   UNL     1      49.449   6.100  15.787  0.00  0.00    +0.000 NA
ATOM     10  C   UNL     1      49.332   6.232  17.130  0.00  0.00    +0.000 A 
ATOM     11  H   UNL     1      49.596   5.985  13.528  0.00  0.00    +0.000 HD
BRANCH   4  13
ATOM     12  N   UNL     1      47.566   7.412  19.801  0.00  0.00    +0.000 N 
ATOM     13  C   UNL     1      48.805   7.402  19.225  0.00  0.00    +0.000 C 
ATOM     14  O   UNL     1      49.819   7.374  19.910  0.00  0.00    +0.000 OA
ATOM     15  H   UNL     1      47.540   7.316  20.808  0.00  0.00    +0.000 HD
ATOM     16  H   UNL     1      46.732   7.166  19.285  0.00  0.00    +0.000 HD
ENDBRANCH   4  13
ENDBRANCH   1   8
BRANCH   1  17
ATOM     17  C   UNL     1      47.425   7.605  12.309  0.00  0.00    +0.000 A 
ATOM     18  C   UNL     1      46.540   8.677  12.496  0.00  0.00    +0.000 A 
ATOM     19  C   UNL     1      45.227   8.614  12.031  0.00  0.00    +0.000 A 
ATOM     20  C   UNL     1      44.769   7.469  11.375  0.00  0.00    +0.000 A 
ATOM     21  C   UNL     1      45.599   6.351  11.201  0.00  0.00    +0.000 A 
ATOM     22  C   UNL     1      46.908   6.438  11.708  0.00  0.00    +0.000 A 
BRANCH  21  23
ATOM     23  C   UNL     1      45.158   5.167  10.427  0.00  0.00    +0.000 A 
ATOM     24  C   UNL     1      44.326   4.180  10.972  0.00  0.00    +0.000 A 
ATOM     25  N   UNL     1      43.947   3.041  10.334  0.00  0.00    +0.000 NA
ATOM     26  C   UNL     1      44.409   2.877   9.076  0.00  0.00    +0.000 A 
ATOM     27  C   UNL     1      45.225   3.793   8.442  0.00  0.00    +0.000 A 
ATOM     28  F   UNL     1      45.669   3.569   7.201  0.00  0.00    +0.000 F 
ATOM     29  C   UNL     1      45.612   4.942   9.125  0.00  0.00    +0.000 A 
ENDBRANCH  21  23
ENDBRANCH   1  17
TORSDOF 4
ENDMDL
MODEL 7
REMARK VINA RESULT:    -6.976      3.595      5.187
REMARK INTER + INTRA:          -9.310
REMARK INTER:                  -8.175
REMARK INTRA:                  -1.135
REMARK UNBOUND:                -0.703
REMARK  Name = 
REMARK  4 active torsions:
REMARK  status: ('A' for Active; 'I' for Inactive)
REMARK    1  A    between atoms: C_2  and  C_4
REMARK    2  A    between atoms: N_8  and  C_9
REMARK    3  A    between atoms: C_9  and  C_10
REMARK    4  A    between atoms: C_14  and  C_15
REMARK                            x       y       z     vdW  Elec       q    Type
REMARK                         _______ _______ _______ _____ _____    ______ ____
ROOT
ATOM      1  C   UNL     1      48.882   8.305  12.576  0.00  0.00    +0.000 C 
ATOM      2  C   UNL     1      49.919   9.026  11.733  0.00  0.00    +0.000 C 
ATOM      3  C   UNL     1      49.945   7.538  11.812  0.00  0.00    +0.000 C 
ENDROOT
BRANCH   1   8
ATOM      4  C   UNL     1      44.313   5.926  11.677  0.00  0.00    +0.000 A 
ATOM      5  C   UNL     1      45.568   5.364  11.908  0.00  0.00    +0.000 A 
ATOM      6  C   UNL     1      46.672   6.206  12.077  0.00  0.00    +0.000 A 
ATOM      7  C   UNL     1      46.491   7.583  12.024  0.00  0.00    +0.000 A 
ATOM      8  N   UNL     1      47.524   8.508  12.078  0.00  0.00    +0.000 N 
ATOM      9  N   UNL     1      45.275   8.134  11.826  0.00  0.00    +0.000 NA
ATOM     10  C   UNL     1      44.220   7.305  11.638  0.00  0.00    +0.000 A 
ATOM     11  H   UNL     1      47.105   9.429  12.165  0.00  0.00    +0.000 HD
BRANCH   4  13
ATOM     12  N   UNL     1      41.896   5.700  11.773  0.00  0.00    +0.000 N 
ATOM     13  C   UNL     1      43.092   5.132  11.439  0.00  0.00    +0.000 C 
ATOM     14  O   UNL     1      43.143   4.021  10.926  0.00  0.00    +0.000 OA
ATOM     15  H   UNL     1      41.065   5.188  11.500  0.00  0.00    +0.000 HD
ATOM     16  H   UNL     1      41.800   6.692  11.939  0.00  0.00    +0.000 HD
ENDBRANCH   4  13
ENDBRANCH   1   8
BRANCH   1  17
ATOM     17  C   UNL     1      48.952   8.264  14.098  0.00  0.00    +0.000 A 
ATOM     18  C   UNL     1      48.623   9.383  14.877  0.00  0.00    +0.000 A 
ATOM     19  C   UNL     1      48.423   9.267  16.252  0.00  0.00    +0.000 A 
ATOM     20  C   UNL     1      48.556   8.026  16.879  0.00  0.00    +0.000 A 
ATOM     21  C   UNL     1      48.927   6.883  16.155  0.00  0.00    +0.000 A 
ATOM     22  C   UNL     1      49.150   7.041  14.775  0.00  0.00    +0.000 A 
BRANCH  21  23
ATOM     23  C   UNL     1      48.982   5.544  16.787  0.00  0.00    +0.000 A 
ATOM     24  C   UNL     1      50.175   4.987  17.265  0.00  0.00    +0.000 A 
ATOM     25  N   UNL     1      50.297   3.739  17.790  0.00  0.00    +0.000 NA
ATOM     26  C   UNL     1      49.166   3.004  17.856  0.00  0.00    +0.000 A 
ATOM     27  C   UNL     1      47.937   3.461  17.423  0.00  0.00    +0.000 A 
ATOM     28  F   UNL     1      46.853   2.682  17.496  0.00  0.00    +0.000 F 
ATOM     29  C   UNL     1      47.844   4.737  16.874  0.00  0.00    +0.000 A 
ENDBRANCH  21  23
ENDBRANCH   1  17
TORSDOF 4
ENDMDL
MODEL 8
REMARK VINA RESULT:    -6.935      3.844      8.375
REMARK INTER + INTRA:          -9.260
REMARK INTER:                  -8.574
REMARK INTRA:                  -0.686
REMARK UNBOUND:                -0.703
REMARK  Name = 
REMARK  4 active torsions:
REMARK  status: ('A' for Active; 'I' for Inactive)
REMARK    1  A    between atoms: C_2  and  C_4
REMARK    2  A    between atoms: N_8  and  C_9
REMARK    3  A    between atoms: C_9  and  C_10
REMARK    4  A    between atoms: C_14  and  C_15
REMARK                            x       y       z     vdW  Elec       q    Type
REMARK                         _______ _______ _______ _____ _____    ______ ____
ROOT
ATOM      1  C   UNL     1      48.219   4.844  17.171  0.00  0.00    +0.000 C 
ATOM      2  C   UNL     1      47.165   4.973  18.257  0.00  0.00    +0.000 C 
ATOM      3  C   UNL     1      47.164   3.773  17.373  0.00  0.00    +0.000 C 
ENDROOT
BRANCH   1   8
ATOM      4  C   UNL     1      52.365   1.699  17.688  0.00  0.00    +0.000 A 
ATOM      5  C   UNL     1      51.054   1.379  17.340  0.00  0.00    +0.000 A 
ATOM      6  C   UNL     1      50.088   2.390  17.311  0.00  0.00    +0.000 A 
ATOM      7  C   UNL     1      50.459   3.693  17.617  0.00  0.00    +0.000 A 
ATOM      8  N   UNL     1      49.571   4.754  17.718  0.00  0.00    +0.000 N 
ATOM      9  N   UNL     1      51.732   4.016  17.930  0.00  0.00    +0.000 NA
ATOM     10  C   UNL     1      52.650   3.021  17.979  0.00  0.00    +0.000 A 
ATOM     11  H   UNL     1      50.119   5.604  17.806  0.00  0.00    +0.000 HD
BRANCH   4  13
ATOM     12  N   UNL     1      53.152  -0.495  18.373  0.00  0.00    +0.000 N 
ATOM     13  C   UNL     1      53.451   0.706  17.794  0.00  0.00    +0.000 C 
ATOM     14  O   UNL     1      54.568   0.930  17.345  0.00  0.00    +0.000 OA
ATOM     15  H   UNL     1      53.876  -1.202  18.336  0.00  0.00    +0.000 HD
ATOM     16  H   UNL     1      52.200  -0.807  18.502  0.00  0.00    +0.000 HD
ENDBRANCH   4  13
ENDBRANCH   1   8
BRANCH   1  17
ATOM     17  C   UNL     1      48.159   5.646  15.876  0.00  0.00    +0.000 A 
ATOM     18  C   UNL     1      49.153   6.579  15.545  0.00  0.00    +0.000 A 
ATOM     19  C   UNL     1      49.245   7.104  14.256  0.00  0.00    +0.000 A 
ATOM     20  C   UNL     1      48.337   6.709  13.272  0.00  0.00    +0.000 A 
ATOM     21  C   UNL     1      47.296   5.813  13.560  0.00  0.00    +0.000 A 
ATOM     22  C   UNL     1      47.215   5.326  14.877  0.00  0.00    +0.000 A 
BRANCH  21  23
ATOM     23  C   UNL     1      46.382   5.315  12.505  0.00  0.00    +0.000 A 
ATOM     24  C   UNL     1      46.203   5.986  11.288  0.00  0.00    +0.000 A 
ATOM     25  N   UNL     1      45.329   5.614  10.315  0.00  0.00    +0.000 NA
ATOM     26  C   UNL     1      44.599   4.504  10.558  0.00  0.00    +0.000 A 
ATOM     27  C   UNL     1      44.706   3.764  11.719  0.00  0.00    +0.000 A 
ATOM     28  F   UNL     1      43.944   2.683  11.913  0.00  0.00    +0.000 F 
ATOM     29  C   UNL     1      45.597   4.177  12.706  0.00  0.00    +0.000 A 
ENDBRANCH  21  23
ENDBRANCH   1  17
TORSDOF 4
ENDMDL
MODEL 9
REMARK VINA RESULT:    -6.415      2.942      4.648
REMARK INTER + INTRA:          -8.618
REMARK INTER:                  -8.262
REMARK INTRA:                  -0.357
REMARK UNBOUND:                -0.703
REMARK  Name = 
REMARK  4 active torsions:
REMARK  status: ('A' for Active; 'I' for Inactive)
REMARK    1  A    between atoms: C_2  and  C_4
REMARK    2  A    between atoms: N_8  and  C_9
REMARK    3  A    between atoms: C_9  and  C_10
REMARK    4  A    between atoms: C_14  and  C_15
REMARK                            x       y       z     vdW  Elec       q    Type
REMARK                         _______ _______ _______ _____ _____    ______ ____
ROOT
ATOM      1  C   UNL     1      47.285   8.582  13.175  0.00  0.00    +0.000 C 
ATOM      2  C   UNL     1      47.156   9.924  12.477  0.00  0.00    +0.000 C 
ATOM      3  C   UNL     1      47.977   8.849  11.851  0.00  0.00    +0.000 C 
ENDROOT
BRANCH   1   8
ATOM      4  C   UNL     1      44.495   4.544  11.368  0.00  0.00    +0.000 A 
ATOM      5  C   UNL     1      45.638   5.136  10.832  0.00  0.00    +0.000 A 
ATOM      6  C   UNL     1      46.193   6.250  11.469  0.00  0.00    +0.000 A 
ATOM      7  C   UNL     1      45.601   6.735  12.629  0.00  0.00    +0.000 A 
ATOM      8  N   UNL     1      46.004   7.889  13.286  0.00  0.00    +0.000 N 
ATOM      9  N   UNL     1      44.509   6.153  13.168  0.00  0.00    +0.000 NA
ATOM     10  C   UNL     1      43.968   5.090  12.525  0.00  0.00    +0.000 A 
ATOM     11  H   UNL     1      45.503   7.927  14.169  0.00  0.00    +0.000 HD
BRANCH   4  13
ATOM     12  N   UNL     1      44.123   3.082   9.464  0.00  0.00    +0.000 N 
ATOM     13  C   UNL     1      43.802   3.396  10.754  0.00  0.00    +0.000 C 
ATOM     14  O   UNL     1      42.998   2.722  11.386  0.00  0.00    +0.000 OA
ATOM     15  H   UNL     1      43.722   2.227   9.098  0.00  0.00    +0.000 HD
ATOM     16  H   UNL     1      44.957   3.436   9.017  0.00  0.00    +0.000 HD
ENDBRANCH   4  13
ENDBRANCH   1   8
BRANCH   1  17
ATOM     17  C   UNL     1      48.173   8.378  14.397  0.00  0.00    +0.000 A 
ATOM     18  C   UNL     1      48.556   9.454  15.212  0.00  0.00    +0.000 A 
ATOM     19  C   UNL     1      49.129   9.237  16.465  0.00  0.00    +0.000 A 
ATOM     20  C   UNL     1      49.338   7.935  16.926  0.00  0.00    +0.000 A 
ATOM     21  C   UNL     1      49.015   6.824  16.133  0.00  0.00    +0.000 A 
ATOM     22  C   UNL     1      48.466   7.079  14.863  0.00  0.00    +0.000 A 
BRANCH  21  23
ATOM     23  C   UNL     1      49.145   5.439  16.643  0.00  0.00    +0.000 A 
ATOM     24  C   UNL     1      48.076   4.533  16.637  0.00  0.00    +0.000 A 
ATOM     25  N   UNL     1      48.117   3.276  17.155  0.00  0.00    +0.000 NA
ATOM     26  C   UNL     1      49.291   2.890  17.698  0.00  0.00    +0.000 A 
ATOM     27  C   UNL     1      50.408   3.700  17.745  0.00  0.00    +0.000 A 
ATOM     28  F   UNL     1      51.541   3.272  18.312  0.00  0.00    +0.000 F 
ATOM     29  C   UNL     1      50.333   4.989  17.224  0.00  0.00    +0.000 A 
ENDBRANCH  21  23
ENDBRANCH   1  17
TORSDOF 4
ENDMDL
