MODEL 1
REMARK VINA RESULT:    -9.095      0.000      0.000
REMARK INTER + INTRA:         -13.431
REMARK INTER:                 -12.285
REMARK INTRA:                  -1.146
REMARK UNBOUND:                -1.146
REMARK  Name = 
REMARK  6 active torsions:
REMARK  status: ('A' for Active; 'I' for Inactive)
REMARK    1  A    between atoms: C_2  and  C_4
REMARK    2  A    between atoms: C_7  and  N_8
REMARK    3  A    between atoms: N_8  and  C_9
REMARK    4  A    between atoms: C_9  and  C_10
REMARK    5  A    between atoms: C_10  and  C_13
REMARK    6  A    between atoms: C_17  and  C_18
REMARK                            x       y       z     vdW  Elec       q    Type
REMARK                         _______ _______ _______ _____ _____    ______ ____
ROOT
ATOM      1  C   UNL     1      43.285   5.140  12.470  0.00  0.00    +0.000 C 
ATOM      2  F   UNL     1      42.613   6.282  12.140  0.00  0.00    +0.000 F 
ATOM      3  F   UNL     1      42.618   4.625  13.549  0.00  0.00    +0.000 F 
ENDROOT
BRANCH   1   4
ATOM      4  C   UNL     1      44.747   5.407  12.766  0.00  0.00    +0.000 A 
ATOM      5  C   UNL     1      45.572   4.393  13.266  0.00  0.00    +0.000 A 
ATOM      6  C   UNL     1      46.928   4.634  13.464  0.00  0.00    +0.000 A 
ATOM      7  C   UNL     1      47.474   5.881  13.148  0.00  0.00    +0.000 A 
ATOM      8  C   UNL     1      46.683   6.919  12.622  0.00  0.00    +0.000 A 
ATOM      9  C   UNL     1      45.310   6.661  12.462  0.00  0.00    +0.000 A 
BRANCH   8  10
ATOM     10  C   UNL     1      47.275   8.208  12.205  0.00  0.00    +0.000 A 
ATOM     11  C   UNL     1      48.619   8.339  11.830  0.00  0.00    +0.000 A 
ATOM     12  C   UNL     1      49.145   9.586  11.485  0.00  0.00    +0.000 A 
ATOM     13  C   UNL     1      48.303  10.686  11.510  0.00  0.00    +0.000 A 
ATOM     14  N   UNL     1      47.008  10.618  11.859  0.00  0.00    +0.000 NA
ATOM     15  C   UNL     1      46.532   9.394  12.199  0.00  0.00    +0.000 A 
ENDBRANCH   8  10
ENDBRANCH   1   4
BRANCH   1  16
ATOM     16  C   UNL     1      43.174   4.126  11.302  0.00  0.00    +0.000 C 
BRANCH  16  17
ATOM     17  N   UNL     1      43.706   4.635  10.029  0.00  0.00    +0.000 N 
ATOM     18  H   UNL     1      43.022   5.109   9.442  0.00  0.00    +0.000 HD
BRANCH  17  22
ATOM     19  C   UNL     1      46.443   2.356   7.775  0.00  0.00    +0.000 A 
ATOM     20  C   UNL     1      46.412   3.743   7.617  0.00  0.00    +0.000 A 
ATOM     21  C   UNL     1      45.524   4.513   8.376  0.00  0.00    +0.000 A 
ATOM     22  C   UNL     1      44.674   3.928   9.324  0.00  0.00    +0.000 A 
ATOM     23  C   UNL     1      44.710   2.533   9.457  0.00  0.00    +0.000 A 
ATOM     24  C   UNL     1      45.580   1.750   8.689  0.00  0.00    +0.000 A 
BRANCH  19  26
ATOM     25  N   UNL     1      48.486   2.077   6.480  0.00  0.00    +0.000 N 
ATOM     26  C   UNL     1      47.340   1.503   6.956  0.00  0.00    +0.000 C 
ATOM     27  O   UNL     1      47.088   0.324   6.739  0.00  0.00    +0.000 OA
ATOM     28  H   UNL     1      49.134   1.458   6.010  0.00  0.00    +0.000 HD
ATOM     29  H   UNL     1      48.846   2.948   6.843  0.00  0.00    +0.000 HD
ENDBRANCH  19  26
ENDBRANCH  17  22
ENDBRANCH  16  17
ENDBRANCH   1  16
TORSDOF 6
ENDMDL
MODEL 2
REMARK VINA RESULT:    -8.899      2.400      3.725
REMARK INTER + INTRA:         -13.166
REMARK INTER:                 -12.002
REMARK INTRA:                  -1.164
REMARK UNBOUND:                -1.146
REMARK  Name = 
REMARK  6 active torsions:
REMARK  status: ('A' for Active; 'I' for Inactive)
REMARK    1  A    between atoms: C_2  and  C_4
REMARK    2  A    between atoms: C_7  and  N_8
REMARK    3  A    between atoms: N_8  and  C_9
REMARK    4  A    between atoms: C_9  and  C_10
REMARK    5  A    between atoms: C_10  and  C_13
REMARK    6  A    between atoms: C_17  and  C_18
REMARK                            x       y       z     vdW  Elec       q    Type
REMARK                         _______ _______ _______ _____ _____    ______ ____
ROOT
ATOM      1  C   UNL     1      43.827   4.704  12.455  0.00  0.00    +0.000 C 
ATOM      2  F   UNL     1      42.909   5.307  13.266  0.00  0.00    +0.000 F 
ATOM      3  F   UNL     1      43.657   3.360  12.650  0.00  0.00    +0.000 F 
ENDROOT
BRANCH   1   4
ATOM      4  C   UNL     1      45.241   5.159  12.762  0.00  0.00    +0.000 A 
ATOM      5  C   UNL     1      45.904   6.053  11.913  0.00  0.00    +0.000 A 
ATOM      6  C   UNL     1      47.172   6.517  12.247  0.00  0.00    +0.000 A 
ATOM      7  C   UNL     1      47.780   6.108  13.437  0.00  0.00    +0.000 A 
ATOM      8  C   UNL     1      47.138   5.230  14.328  0.00  0.00    +0.000 A 
ATOM      9  C   UNL     1      45.870   4.749  13.952  0.00  0.00    +0.000 A 
BRANCH   8  10
ATOM     10  C   UNL     1      47.741   4.867  15.628  0.00  0.00    +0.000 A 
ATOM     11  C   UNL     1      47.451   3.667  16.290  0.00  0.00    +0.000 A 
ATOM     12  C   UNL     1      48.012   3.387  17.538  0.00  0.00    +0.000 A 
ATOM     13  C   UNL     1      48.872   4.318  18.097  0.00  0.00    +0.000 A 
ATOM     14  N   UNL     1      49.187   5.483  17.506  0.00  0.00    +0.000 NA
ATOM     15  C   UNL     1      48.616   5.728  16.301  0.00  0.00    +0.000 A 
ENDBRANCH   8  10
ENDBRANCH   1   4
BRANCH   1  16
ATOM     16  C   UNL     1      43.493   5.026  10.976  0.00  0.00    +0.000 C 
BRANCH  16  17
ATOM     17  N   UNL     1      43.460   3.838  10.109  0.00  0.00    +0.000 N 
ATOM     18  H   UNL     1      42.964   3.040  10.502  0.00  0.00    +0.000 HD
BRANCH  17  22
ATOM     19  C   UNL     1      46.600   2.658   7.557  0.00  0.00    +0.000 A 
ATOM     20  C   UNL     1      46.242   4.005   7.626  0.00  0.00    +0.000 A 
ATOM     21  C   UNL     1      45.217   4.414   8.486  0.00  0.00    +0.000 A 
ATOM     22  C   UNL     1      44.549   3.501   9.313  0.00  0.00    +0.000 A 
ATOM     23  C   UNL     1      44.912   2.150   9.219  0.00  0.00    +0.000 A 
ATOM     24  C   UNL     1      45.923   1.727   8.347  0.00  0.00    +0.000 A 
BRANCH  19  26
ATOM     25  N   UNL     1      47.903   2.951   5.521  0.00  0.00    +0.000 N 
ATOM     26  C   UNL     1      47.652   2.182   6.624  0.00  0.00    +0.000 C 
ATOM     27  O   UNL     1      48.295   1.163   6.844  0.00  0.00    +0.000 OA
ATOM     28  H   UNL     1      48.689   2.667   4.950  0.00  0.00    +0.000 HD
ATOM     29  H   UNL     1      47.582   3.904   5.442  0.00  0.00    +0.000 HD
ENDBRANCH  19  26
ENDBRANCH  17  22
ENDBRANCH  16  17
ENDBRANCH   1  16
TORSDOF 6
ENDMDL
MODEL 3
REMARK VINA RESULT:    -8.256      1.843      2.691
REMARK INTER + INTRA:         -12.299
REMARK INTER:                 -11.475
REMARK INTRA:                  -0.824
REMARK UNBOUND:                -1.146
REMARK  Name = 
REMARK  6 active torsions:
REMARK  status: ('A' for Active; 'I' for Inactive)
REMARK    1  A    between atoms: C_2  and  C_4
REMARK    2  A    between atoms: C_7  and  N_8
REMARK    3  A    between atoms: N_8  and  C_9
REMARK    4  A    between atoms: C_9  and  C_10
REMARK    5  A    between atoms: C_10  and  C_13
REMARK    6  A    between atoms: C_17  and  C_18
REMARK                            x       y       z     vdW  Elec       q    Type
REMARK                         _______ _______ _______ _____ _____    ______ ____
ROOT
ATOM      1  C   UNL     1      44.592   4.110  12.417  0.00  0.00    +0.000 C 
ATOM      2  F   UNL     1      44.050   3.898  13.652  0.00  0.00    +0.000 F 
ATOM      3  F   UNL     1      45.408   3.035  12.190  0.00  0.00    +0.000 F 
ENDROOT
BRANCH   1   4
ATOM      4  C   UNL     1      45.337   5.428  12.343  0.00  0.00    +0.000 A 
ATOM      5  C   UNL     1      46.733   5.467  12.437  0.00  0.00    +0.000 A 
ATOM      6  C   UNL     1      47.407   6.675  12.295  0.00  0.00    +0.000 A 
ATOM      7  C   UNL     1      46.695   7.851  12.039  0.00  0.00    +0.000 A 
ATOM      8  C   UNL     1      45.294   7.851  11.914  0.00  0.00    +0.000 A 
ATOM      9  C   UNL     1      44.634   6.622  12.095  0.00  0.00    +0.000 A 
BRANCH   8  10
ATOM     10  C   UNL     1      44.549   9.077  11.556  0.00  0.00    +0.000 A 
ATOM     11  C   UNL     1      43.407   9.060  10.744  0.00  0.00    +0.000 A 
ATOM     12  C   UNL     1      42.761  10.248  10.397  0.00  0.00    +0.000 A 
ATOM     13  C   UNL     1      43.269  11.441  10.884  0.00  0.00    +0.000 A 
ATOM     14  N   UNL     1      44.359  11.516  11.667  0.00  0.00    +0.000 NA
ATOM     15  C   UNL     1      44.968  10.345  11.976  0.00  0.00    +0.000 A 
ENDBRANCH   8  10
ENDBRANCH   1   4
BRANCH   1  16
ATOM     16  C   UNL     1      43.464   4.097  11.354  0.00  0.00    +0.000 C 
BRANCH  16  17
ATOM     17  N   UNL     1      43.861   4.692  10.069  0.00  0.00    +0.000 N 
ATOM     18  H   UNL     1      43.137   5.248   9.617  0.00  0.00    +0.000 HD
BRANCH  17  22
ATOM     19  C   UNL     1      46.581   2.710   7.531  0.00  0.00    +0.000 A 
ATOM     20  C   UNL     1      45.670   1.962   8.278  0.00  0.00    +0.000 A 
ATOM     21  C   UNL     1      44.746   2.608   9.106  0.00  0.00    +0.000 A 
ATOM     22  C   UNL     1      44.689   4.005   9.188  0.00  0.00    +0.000 A 
ATOM     23  C   UNL     1      45.623   4.740   8.442  0.00  0.00    +0.000 A 
ATOM     24  C   UNL     1      46.565   4.103   7.624  0.00  0.00    +0.000 A 
BRANCH  19  26
ATOM     25  N   UNL     1      48.079   2.775   5.613  0.00  0.00    +0.000 N 
ATOM     26  C   UNL     1      47.604   2.058   6.676  0.00  0.00    +0.000 C 
ATOM     27  O   UNL     1      48.032   0.937   6.924  0.00  0.00    +0.000 OA
ATOM     28  H   UNL     1      48.845   2.357   5.100  0.00  0.00    +0.000 HD
ATOM     29  H   UNL     1      47.943   3.771   5.528  0.00  0.00    +0.000 HD
ENDBRANCH  19  26
ENDBRANCH  17  22
ENDBRANCH  16  17
ENDBRANCH   1  16
TORSDOF 6
ENDMDL
MODEL 4
REMARK VINA RESULT:    -8.233      2.028      2.685
REMARK INTER + INTRA:         -12.267
REMARK INTER:                 -11.261
REMARK INTRA:                  -1.006
REMARK UNBOUND:                -1.146
REMARK  Name = 
REMARK  6 active torsions:
REMARK  status: ('A' for Active; 'I' for Inactive)
REMARK    1  A    between atoms: C_2  and  C_4
REMARK    2  A    between atoms: C_7  and  N_8
REMARK    3  A    between atoms: N_8  and  C_9
REMARK    4  A    between atoms: C_9  and  C_10
REMARK    5  A    between atoms: C_10  and  C_13
REMARK    6  A    between atoms: C_17  and  C_18
REMARK                            x       y       z     vdW  Elec       q    Type
REMARK                         _______ _______ _______ _____ _____    ______ ____
ROOT
ATOM      1  C   UNL     1      44.023   5.217  12.439  0.00  0.00    +0.000 C 
ATOM      2  F   UNL     1      43.011   5.436  13.330  0.00  0.00    +0.000 F 
ATOM      3  F   UNL     1      44.599   4.038  12.828  0.00  0.00    +0.000 F 
ENDROOT
BRANCH   1   4
ATOM      4  C   UNL     1      45.014   6.364  12.412  0.00  0.00    +0.000 A 
ATOM      5  C   UNL     1      44.713   7.553  11.738  0.00  0.00    +0.000 A 
ATOM      6  C   UNL     1      45.600   8.623  11.783  0.00  0.00    +0.000 A 
ATOM      7  C   UNL     1      46.786   8.521  12.517  0.00  0.00    +0.000 A 
ATOM      8  C   UNL     1      47.115   7.353  13.227  0.00  0.00    +0.000 A 
ATOM      9  C   UNL     1      46.216   6.274  13.139  0.00  0.00    +0.000 A 
BRANCH   8  10
ATOM     10  C   UNL     1      48.324   7.276  14.075  0.00  0.00    +0.000 A 
ATOM     11  C   UNL     1      49.449   8.085  13.866  0.00  0.00    +0.000 A 
ATOM     12  C   UNL     1      50.585   7.947  14.665  0.00  0.00    +0.000 A 
ATOM     13  C   UNL     1      50.567   7.000  15.677  0.00  0.00    +0.000 A 
ATOM     14  N   UNL     1      49.517   6.200  15.923  0.00  0.00    +0.000 NA
ATOM     15  C   UNL     1      48.434   6.353  15.122  0.00  0.00    +0.000 A 
ENDBRANCH   8  10
ENDBRANCH   1   4
BRANCH   1  16
ATOM     16  C   UNL     1      43.424   5.021  11.023  0.00  0.00    +0.000 C 
BRANCH  16  17
ATOM     17  N   UNL     1      43.620   3.666  10.485  0.00  0.00    +0.000 N 
ATOM     18  H   UNL     1      43.454   2.916  11.153  0.00  0.00    +0.000 HD
BRANCH  17  22
ATOM     19  C   UNL     1      46.500   2.704   7.561  0.00  0.00    +0.000 A 
ATOM     20  C   UNL     1      46.117   4.035   7.735  0.00  0.00    +0.000 A 
ATOM     21  C   UNL     1      45.180   4.371   8.717  0.00  0.00    +0.000 A 
ATOM     22  C   UNL     1      44.627   3.400   9.563  0.00  0.00    +0.000 A 
ATOM     23  C   UNL     1      45.012   2.067   9.363  0.00  0.00    +0.000 A 
ATOM     24  C   UNL     1      45.935   1.717   8.370  0.00  0.00    +0.000 A 
BRANCH  19  26
ATOM     25  N   UNL     1      47.472   3.055   5.356  0.00  0.00    +0.000 N 
ATOM     26  C   UNL     1      47.458   2.305   6.500  0.00  0.00    +0.000 C 
ATOM     27  O   UNL     1      48.231   1.366   6.650  0.00  0.00    +0.000 OA
ATOM     28  H   UNL     1      48.197   2.833   4.687  0.00  0.00    +0.000 HD
ATOM     29  H   UNL     1      47.044   3.967   5.302  0.00  0.00    +0.000 HD
ENDBRANCH  19  26
ENDBRANCH  17  22
ENDBRANCH  16  17
ENDBRANCH   1  16
TORSDOF 6
ENDMDL
MODEL 5
REMARK VINA RESULT:    -8.101      1.608      2.566
REMARK INTER + INTRA:         -12.089
REMARK INTER:                 -10.913
REMARK INTRA:                  -1.176
REMARK UNBOUND:                -1.146
REMARK  Name = 
REMARK  6 active torsions:
REMARK  status: ('A' for Active; 'I' for Inactive)
REMARK    1  A    between atoms: C_2  and  C_4
REMARK    2  A    between atoms: C_7  and  N_8
REMARK    3  A    between atoms: N_8  and  C_9
REMARK    4  A    between atoms: C_9  and  C_10
REMARK    5  A    between atoms: C_10  and  C_13
REMARK    6  A    between atoms: C_17  and  C_18
REMARK                            x       y       z     vdW  Elec       q    Type
REMARK                         _______ _______ _______ _____ _____    ______ ____
ROOT
ATOM      1  C   UNL     1      45.272   4.959  12.425  0.00  0.00    +0.000 C 
ATOM      2  F   UNL     1      45.008   4.610  13.718  0.00  0.00    +0.000 F 
ATOM      3  F   UNL     1      46.251   4.098  12.009  0.00  0.00    +0.000 F 
ENDROOT
BRANCH   1   4
ATOM      4  C   UNL     1      45.688   6.412  12.303  0.00  0.00    +0.000 A 
ATOM      5  C   UNL     1      44.798   7.440  12.628  0.00  0.00    +0.000 A 
ATOM      6  C   UNL     1      45.218   8.766  12.581  0.00  0.00    +0.000 A 
ATOM      7  C   UNL     1      46.535   9.073  12.228  0.00  0.00    +0.000 A 
ATOM      8  C   UNL     1      47.468   8.068  11.917  0.00  0.00    +0.000 A 
ATOM      9  C   UNL     1      47.009   6.738  11.940  0.00  0.00    +0.000 A 
BRANCH   8  10
ATOM     10  C   UNL     1      48.882   8.386  11.630  0.00  0.00    +0.000 A 
ATOM     11  C   UNL     1      49.360   9.700  11.535  0.00  0.00    +0.000 A 
ATOM     12  C   UNL     1      50.697   9.952  11.220  0.00  0.00    +0.000 A 
ATOM     13  C   UNL     1      51.540   8.872  11.016  0.00  0.00    +0.000 A 
ATOM     14  N   UNL     1      51.137   7.593  11.096  0.00  0.00    +0.000 NA
ATOM     15  C   UNL     1      49.831   7.384  11.394  0.00  0.00    +0.000 A 
ENDBRANCH   8  10
ENDBRANCH   1   4
BRANCH   1  16
ATOM     16  C   UNL     1      44.009   4.712  11.560  0.00  0.00    +0.000 C 
BRANCH  16  17
ATOM     17  N   UNL     1      44.197   5.039  10.138  0.00  0.00    +0.000 N 
ATOM     18  H   UNL     1      43.407   5.513   9.703  0.00  0.00    +0.000 HD
BRANCH  17  22
ATOM     19  C   UNL     1      46.513   2.530   7.667  0.00  0.00    +0.000 A 
ATOM     20  C   UNL     1      45.640   1.962   8.596  0.00  0.00    +0.000 A 
ATOM     21  C   UNL     1      44.849   2.783   9.406  0.00  0.00    +0.000 A 
ATOM     22  C   UNL     1      44.886   4.178   9.291  0.00  0.00    +0.000 A 
ATOM     23  C   UNL     1      45.780   4.731   8.363  0.00  0.00    +0.000 A 
ATOM     24  C   UNL     1      46.592   3.919   7.560  0.00  0.00    +0.000 A 
BRANCH  19  26
ATOM     25  N   UNL     1      48.522   2.284   6.313  0.00  0.00    +0.000 N 
ATOM     26  C   UNL     1      47.399   1.691   6.822  0.00  0.00    +0.000 C 
ATOM     27  O   UNL     1      47.159   0.508   6.612  0.00  0.00    +0.000 OA
ATOM     28  H   UNL     1      49.165   1.676   5.824  0.00  0.00    +0.000 HD
ATOM     29  H   UNL     1      48.878   3.160   6.666  0.00  0.00    +0.000 HD
ENDBRANCH  19  26
ENDBRANCH  17  22
ENDBRANCH  16  17
ENDBRANCH   1  16
TORSDOF 6
ENDMDL
MODEL 6
REMARK VINA RESULT:    -8.061      2.149      2.539
REMARK INTER + INTRA:         -12.035
REMARK INTER:                 -11.124
REMARK INTRA:                  -0.911
REMARK UNBOUND:                -1.146
REMARK  Name = 
REMARK  6 active torsions:
REMARK  status: ('A' for Active; 'I' for Inactive)
REMARK    1  A    between atoms: C_2  and  C_4
REMARK    2  A    between atoms: C_7  and  N_8
REMARK    3  A    between atoms: N_8  and  C_9
REMARK    4  A    between atoms: C_9  and  C_10
REMARK    5  A    between atoms: C_10  and  C_13
REMARK    6  A    between atoms: C_17  and  C_18
REMARK                            x       y       z     vdW  Elec       q    Type
REMARK                         _______ _______ _______ _____ _____    ______ ____
ROOT
ATOM      1  C   UNL     1      44.884   6.439  11.455  0.00  0.00    +0.000 C 
ATOM      2  F   UNL     1      45.594   6.699  10.318  0.00  0.00    +0.000 F 
ATOM      3  F   UNL     1      44.202   7.593  11.728  0.00  0.00    +0.000 F 
ENDROOT
BRANCH   1   4
ATOM      4  C   UNL     1      45.783   6.012  12.600  0.00  0.00    +0.000 A 
ATOM      5  C   UNL     1      45.521   4.838  13.314  0.00  0.00    +0.000 A 
ATOM      6  C   UNL     1      46.395   4.422  14.313  0.00  0.00    +0.000 A 
ATOM      7  C   UNL     1      47.545   5.164  14.594  0.00  0.00    +0.000 A 
ATOM      8  C   UNL     1      47.857   6.337  13.884  0.00  0.00    +0.000 A 
ATOM      9  C   UNL     1      46.940   6.754  12.900  0.00  0.00    +0.000 A 
BRANCH   8  10
ATOM     10  C   UNL     1      49.117   7.073  14.119  0.00  0.00    +0.000 A 
ATOM     11  C   UNL     1      49.822   7.716  13.093  0.00  0.00    +0.000 A 
ATOM     12  C   UNL     1      51.032   8.363  13.356  0.00  0.00    +0.000 A 
ATOM     13  C   UNL     1      51.509   8.364  14.656  0.00  0.00    +0.000 A 
ATOM     14  N   UNL     1      50.874   7.766  15.678  0.00  0.00    +0.000 NA
ATOM     15  C   UNL     1      49.708   7.138  15.386  0.00  0.00    +0.000 A 
ENDBRANCH   8  10
ENDBRANCH   1   4
BRANCH   1  16
ATOM     16  C   UNL     1      43.851   5.320  11.168  0.00  0.00    +0.000 C 
BRANCH  16  17
ATOM     17  N   UNL     1      43.769   4.945   9.748  0.00  0.00    +0.000 N 
ATOM     18  H   UNL     1      42.821   4.886   9.379  0.00  0.00    +0.000 HD
BRANCH  17  22
ATOM     19  C   UNL     1      46.250   2.034   7.977  0.00  0.00    +0.000 A 
ATOM     20  C   UNL     1      46.395   3.374   7.612  0.00  0.00    +0.000 A 
ATOM     21  C   UNL     1      45.594   4.353   8.209  0.00  0.00    +0.000 A 
ATOM     22  C   UNL     1      44.657   4.027   9.198  0.00  0.00    +0.000 A 
ATOM     23  C   UNL     1      44.514   2.675   9.540  0.00  0.00    +0.000 A 
ATOM     24  C   UNL     1      45.297   1.684   8.935  0.00  0.00    +0.000 A 
BRANCH  19  26
ATOM     25  N   UNL     1      46.784  -0.325   7.703  0.00  0.00    +0.000 N 
ATOM     26  C   UNL     1      47.051   0.964   7.333  0.00  0.00    +0.000 C 
ATOM     27  O   UNL     1      47.895   1.214   6.481  0.00  0.00    +0.000 OA
ATOM     28  H   UNL     1      47.267  -1.048   7.185  0.00  0.00    +0.000 HD
ATOM     29  H   UNL     1      45.943  -0.583   8.198  0.00  0.00    +0.000 HD
ENDBRANCH  19  26
ENDBRANCH  17  22
ENDBRANCH  16  17
ENDBRANCH   1  16
TORSDOF 6
ENDMDL
MODEL 7
REMARK VINA RESULT:    -7.703      3.434      7.004
REMARK INTER + INTRA:         -11.551
REMARK INTER:                 -10.551
REMARK INTRA:                  -1.000
REMARK UNBOUND:                -1.146
REMARK  Name = 
REMARK  6 active torsions:
REMARK  status: ('A' for Active; 'I' for Inactive)
REMARK    1  A    between atoms: C_2  and  C_4
REMARK    2  A    between atoms: C_7  and  N_8
REMARK    3  A    between atoms: N_8  and  C_9
REMARK    4  A    between atoms: C_9  and  C_10
REMARK    5  A    between atoms: C_10  and  C_13
REMARK    6  A    between atoms: C_17  and  C_18
REMARK                            x       y       z     vdW  Elec       q    Type
REMARK                         _______ _______ _______ _____ _____    ______ ____
ROOT
ATOM      1  C   UNL     1      45.574   7.631  11.946  0.00  0.00    +0.000 C 
ATOM      2  F   UNL     1      45.259   7.947  13.237  0.00  0.00    +0.000 F 
ATOM      3  F   UNL     1      45.226   8.730  11.208  0.00  0.00    +0.000 F 
ENDROOT
BRANCH   1   4
ATOM      4  C   UNL     1      44.865   6.373  11.482  0.00  0.00    +0.000 A 
ATOM      5  C   UNL     1      43.545   6.114  11.865  0.00  0.00    +0.000 A 
ATOM      6  C   UNL     1      42.884   4.993  11.372  0.00  0.00    +0.000 A 
ATOM      7  C   UNL     1      43.529   4.134  10.478  0.00  0.00    +0.000 A 
ATOM      8  C   UNL     1      44.848   4.372  10.049  0.00  0.00    +0.000 A 
ATOM      9  C   UNL     1      45.505   5.494  10.588  0.00  0.00    +0.000 A 
BRANCH   8  10
ATOM     10  C   UNL     1      45.499   3.515   9.037  0.00  0.00    +0.000 A 
ATOM     11  C   UNL     1      46.097   4.030   7.879  0.00  0.00    +0.000 A 
ATOM     12  C   UNL     1      46.663   3.177   6.928  0.00  0.00    +0.000 A 
ATOM     13  C   UNL     1      46.629   1.812   7.165  0.00  0.00    +0.000 A 
ATOM     14  N   UNL     1      46.071   1.265   8.257  0.00  0.00    +0.000 NA
ATOM     15  C   UNL     1      45.522   2.120   9.155  0.00  0.00    +0.000 A 
ENDBRANCH   8  10
ENDBRANCH   1   4
BRANCH   1  16
ATOM     16  C   UNL     1      47.106   7.431  11.827  0.00  0.00    +0.000 C 
BRANCH  16  17
ATOM     17  N   UNL     1      47.809   7.487  13.118  0.00  0.00    +0.000 N 
ATOM     18  H   UNL     1      48.677   8.020  13.106  0.00  0.00    +0.000 HD
BRANCH  17  22
ATOM     19  C   UNL     1      47.704   4.317  15.894  0.00  0.00    +0.000 A 
ATOM     20  C   UNL     1      47.117   4.150  14.639  0.00  0.00    +0.000 A 
ATOM     21  C   UNL     1      47.165   5.185  13.700  0.00  0.00    +0.000 A 
ATOM     22  C   UNL     1      47.819   6.393  13.976  0.00  0.00    +0.000 A 
ATOM     23  C   UNL     1      48.390   6.548  15.247  0.00  0.00    +0.000 A 
ATOM     24  C   UNL     1      48.331   5.526  16.202  0.00  0.00    +0.000 A 
BRANCH  19  26
ATOM     25  N   UNL     1      48.803   2.622  17.253  0.00  0.00    +0.000 N 
ATOM     26  C   UNL     1      47.635   3.257  16.930  0.00  0.00    +0.000 C 
ATOM     27  O   UNL     1      46.587   2.980  17.501  0.00  0.00    +0.000 OA
ATOM     28  H   UNL     1      48.758   1.974  18.029  0.00  0.00    +0.000 HD
ATOM     29  H   UNL     1      49.707   2.990  16.998  0.00  0.00    +0.000 HD
ENDBRANCH  19  26
ENDBRANCH  17  22
ENDBRANCH  16  17
ENDBRANCH   1  16
TORSDOF 6
ENDMDL
MODEL 8
REMARK VINA RESULT:    -7.603      2.838      6.739
REMARK INTER + INTRA:         -11.417
REMARK INTER:                 -10.495
REMARK INTRA:                  -0.922
REMARK UNBOUND:                -1.146
REMARK  Name = 
REMARK  6 active torsions:
REMARK  status: ('A' for Active; 'I' for Inactive)
REMARK    1  A    between atoms: C_2  and  C_4
REMARK    2  A    between atoms: C_7  and  N_8
REMARK    3  A    between atoms: N_8  and  C_9
REMARK    4  A    between atoms: C_9  and  C_10
REMARK    5  A    between atoms: C_10  and  C_13
REMARK    6  A    between atoms: C_17  and  C_18
REMARK                            x       y       z     vdW  Elec       q    Type
REMARK                         _______ _______ _______ _____ _____    ______ ____
ROOT
ATOM      1  C   UNL     1      44.249   6.238  11.365  0.00  0.00    +0.000 C 
ATOM      2  F   UNL     1      42.993   6.761  11.256  0.00  0.00    +0.000 F 
ATOM      3  F   UNL     1      45.044   7.036  10.587  0.00  0.00    +0.000 F 
ENDROOT
BRANCH   1   4
ATOM      4  C   UNL     1      44.297   4.783  10.940  0.00  0.00    +0.000 A 
ATOM      5  C   UNL     1      43.471   3.833  11.549  0.00  0.00    +0.000 A 
ATOM      6  C   UNL     1      43.473   2.517  11.098  0.00  0.00    +0.000 A 
ATOM      7  C   UNL     1      44.286   2.144  10.024  0.00  0.00    +0.000 A 
ATOM      8  C   UNL     1      45.114   3.073   9.370  0.00  0.00    +0.000 A 
ATOM      9  C   UNL     1      45.117   4.390   9.865  0.00  0.00    +0.000 A 
BRANCH   8  10
ATOM     10  C   UNL     1      45.907   2.701   8.179  0.00  0.00    +0.000 A 
ATOM     11  C   UNL     1      46.142   3.584   7.117  0.00  0.00    +0.000 A 
ATOM     12  C   UNL     1      46.860   3.173   5.992  0.00  0.00    +0.000 A 
ATOM     13  C   UNL     1      47.345   1.876   5.959  0.00  0.00    +0.000 A 
ATOM     14  N   UNL     1      47.152   0.988   6.948  0.00  0.00    +0.000 NA
ATOM     15  C   UNL     1      46.441   1.416   8.020  0.00  0.00    +0.000 A 
ENDBRANCH   8  10
ENDBRANCH   1   4
BRANCH   1  16
ATOM     16  C   UNL     1      44.729   6.359  12.834  0.00  0.00    +0.000 C 
BRANCH  16  17
ATOM     17  N   UNL     1      45.363   7.651  13.140  0.00  0.00    +0.000 N 
ATOM     18  H   UNL     1      44.758   8.461  13.017  0.00  0.00    +0.000 HD
BRANCH  17  22
ATOM     19  C   UNL     1      49.402   8.148  12.039  0.00  0.00    +0.000 A 
ATOM     20  C   UNL     1      48.501   9.194  11.834  0.00  0.00    +0.000 A 
ATOM     21  C   UNL     1      47.163   9.051  12.217  0.00  0.00    +0.000 A 
ATOM     22  C   UNL     1      46.700   7.882  12.834  0.00  0.00    +0.000 A 
ATOM     23  C   UNL     1      47.616   6.836  13.018  0.00  0.00    +0.000 A 
ATOM     24  C   UNL     1      48.953   6.961  12.622  0.00  0.00    +0.000 A 
BRANCH  19  26
ATOM     25  N   UNL     1      51.339   7.185  10.922  0.00  0.00    +0.000 N 
ATOM     26  C   UNL     1      50.818   8.248  11.607  0.00  0.00    +0.000 C 
ATOM     27  O   UNL     1      51.488   9.251  11.822  0.00  0.00    +0.000 OA
ATOM     28  H   UNL     1      52.271   7.309  10.548  0.00  0.00    +0.000 HD
ATOM     29  H   UNL     1      50.758   6.469  10.512  0.00  0.00    +0.000 HD
ENDBRANCH  19  26
ENDBRANCH  17  22
ENDBRANCH  16  17
ENDBRANCH   1  16
TORSDOF 6
ENDMDL
