MODEL 1
REMARK VINA RESULT:    -9.287      0.000      0.000
REMARK INTER + INTRA:         -12.977
REMARK INTER:                 -12.002
REMARK INTRA:                  -0.976
REMARK UNBOUND:                -0.976
REMARK  Name = 
REMARK  6 active torsions:
REMARK  status: ('A' for Active; 'I' for Inactive)
REMARK    1  A    between atoms: C_1  and  O_2
REMARK    2  A    between atoms: O_2  and  C_3
REMARK    3  A    between atoms: C_7  and  C_8
REMARK    4  A    between atoms: C_12  and  C_13
REMARK    5  A    between atoms: C_13  and  N_14
REMARK    6  A    between atoms: C_18  and  C_19
REMARK                            x       y       z     vdW  Elec       q    Type
REMARK                         _______ _______ _______ _____ _____    ______ ____
ROOT
ATOM      1  C   UNL     1      43.981   4.599  11.281  0.00  0.00    +0.000 C 
ATOM      2  C   UNL     1      42.768   4.766  12.186  0.00  0.00    +0.000 C 
ATOM      3  C   UNL     1      42.987   5.709  11.054  0.00  0.00    +0.000 C 
ATOM      4  F   UNL     1      43.333   7.008  11.380  0.00  0.00    +0.000 F 
ENDROOT
BRANCH   1   5
ATOM      5  N   UNL     1      43.970   3.378  10.410  0.00  0.00    +0.000 N 
ATOM      6  C   UNL     1      44.928   3.181   9.396  0.00  0.00    +0.000 A 
ATOM      7  C   UNL     1      45.349   4.208   8.564  0.00  0.00    +0.000 A 
ATOM      8  C   UNL     1      46.220   3.928   7.511  0.00  0.00    +0.000 A 
ATOM      9  C   UNL     1      46.638   2.622   7.328  0.00  0.00    +0.000 A 
ATOM     10  N   UNL     1      46.243   1.629   8.150  0.00  0.00    +0.000 NA
ATOM     11  N   UNL     1      45.375   1.920   9.189  0.00  0.00    +0.000 NA
ATOM     12  H   UNL     1      43.928   2.491  10.913  0.00  0.00    +0.000 HD
BRANCH   9  13
ATOM     13  C   UNL     1      47.523   2.265   6.186  0.00  0.00    +0.000 C 
ATOM     14  N   UNL     1      47.428   3.051   5.059  0.00  0.00    +0.000 N 
ATOM     15  O   UNL     1      48.313   1.333   6.236  0.00  0.00    +0.000 OA
ATOM     16  H   UNL     1      46.812   3.855   5.030  0.00  0.00    +0.000 HD
ATOM     17  H   UNL     1      48.051   2.869   4.285  0.00  0.00    +0.000 HD
ENDBRANCH   9  13
ENDBRANCH   1   5
BRANCH   1  22
ATOM     18  C   UNL     1      46.907   6.643  12.436  0.00  0.00    +0.000 A 
ATOM     19  C   UNL     1      47.371   5.903  13.533  0.00  0.00    +0.000 A 
ATOM     20  C   UNL     1      46.891   4.614  13.774  0.00  0.00    +0.000 A 
ATOM     21  C   UNL     1      45.859   4.099  12.984  0.00  0.00    +0.000 A 
ATOM     22  C   UNL     1      45.347   4.837  11.908  0.00  0.00    +0.000 A 
ATOM     23  C   UNL     1      46.002   6.030  11.566  0.00  0.00    +0.000 A 
BRANCH  18  28
ATOM     24  C   UNL     1      46.064  10.286  12.033  0.00  0.00    +0.000 A 
ATOM     25  C   UNL     1      47.318  10.754  11.664  0.00  0.00    +0.000 A 
ATOM     26  N   UNL     1      48.437   9.992  11.611  0.00  0.00    +0.000 NA
ATOM     27  C   UNL     1      48.290   8.687  11.937  0.00  0.00    +0.000 A 
ATOM     28  C   UNL     1      47.085   8.097  12.318  0.00  0.00    +0.000 A 
ATOM     29  C   UNL     1      45.960   8.938  12.364  0.00  0.00    +0.000 A 
BRANCH  24  31
ATOM     30  C   UNL     1      43.797  10.719  11.490  0.00  0.00    +0.000 C 
ATOM     31  O   UNL     1      45.038  11.187  12.009  0.00  0.00    +0.000 OA
ENDBRANCH  24  31
ENDBRANCH  18  28
ENDBRANCH   1  22
TORSDOF 5
ENDMDL
MODEL 2
REMARK VINA RESULT:    -8.915      1.378      2.114
REMARK INTER + INTRA:         -12.497
REMARK INTER:                 -11.717
REMARK INTRA:                  -0.781
REMARK UNBOUND:                -0.976
REMARK  Name = 
REMARK  6 active torsions:
REMARK  status: ('A' for Active; 'I' for Inactive)
REMARK    1  A    between atoms: C_1  and  O_2
REMARK    2  A    between atoms: O_2  and  C_3
REMARK    3  A    between atoms: C_7  and  C_8
REMARK    4  A    between atoms: C_12  and  C_13
REMARK    5  A    between atoms: C_13  and  N_14
REMARK    6  A    between atoms: C_18  and  C_19
REMARK                            x       y       z     vdW  Elec       q    Type
REMARK                         _______ _______ _______ _____ _____    ______ ____
ROOT
ATOM      1  C   UNL     1      43.908   4.836  11.321  0.00  0.00    +0.000 C 
ATOM      2  C   UNL     1      42.666   5.110  12.158  0.00  0.00    +0.000 C 
ATOM      3  C   UNL     1      43.023   6.022  11.035  0.00  0.00    +0.000 C 
ATOM      4  F   UNL     1      43.457   7.290  11.374  0.00  0.00    +0.000 F 
ENDROOT
BRANCH   1   5
ATOM      5  N   UNL     1      43.844   3.613  10.456  0.00  0.00    +0.000 N 
ATOM      6  C   UNL     1      44.819   3.345   9.475  0.00  0.00    +0.000 A 
ATOM      7  C   UNL     1      45.333   4.336   8.652  0.00  0.00    +0.000 A 
ATOM      8  C   UNL     1      46.217   3.991   7.629  0.00  0.00    +0.000 A 
ATOM      9  C   UNL     1      46.552   2.660   7.466  0.00  0.00    +0.000 A 
ATOM     10  N   UNL     1      46.066   1.700   8.280  0.00  0.00    +0.000 NA
ATOM     11  N   UNL     1      45.187   2.056   9.288  0.00  0.00    +0.000 NA
ATOM     12  H   UNL     1      43.727   2.734  10.962  0.00  0.00    +0.000 HD
BRANCH   9  13
ATOM     13  C   UNL     1      47.448   2.236   6.355  0.00  0.00    +0.000 C 
ATOM     14  N   UNL     1      47.280   2.875   5.146  0.00  0.00    +0.000 N 
ATOM     15  O   UNL     1      48.307   1.377   6.496  0.00  0.00    +0.000 OA
ATOM     16  H   UNL     1      46.605   3.623   5.037  0.00  0.00    +0.000 HD
ATOM     17  H   UNL     1      47.906   2.649   4.385  0.00  0.00    +0.000 HD
ENDBRANCH   9  13
ENDBRANCH   1   5
BRANCH   1  22
ATOM     18  C   UNL     1      47.060   6.573  12.381  0.00  0.00    +0.000 A 
ATOM     19  C   UNL     1      47.323   5.977  13.623  0.00  0.00    +0.000 A 
ATOM     20  C   UNL     1      46.619   4.842  14.030  0.00  0.00    +0.000 A 
ATOM     21  C   UNL     1      45.566   4.361  13.246  0.00  0.00    +0.000 A 
ATOM     22  C   UNL     1      45.254   4.967  12.021  0.00  0.00    +0.000 A 
ATOM     23  C   UNL     1      46.120   5.963  11.547  0.00  0.00    +0.000 A 
BRANCH  18  28
ATOM     24  C   UNL     1      49.317   9.478  11.601  0.00  0.00    +0.000 A 
ATOM     25  C   UNL     1      48.420  10.512  11.835  0.00  0.00    +0.000 A 
ATOM     26  N   UNL     1      47.114  10.339  12.150  0.00  0.00    +0.000 NA
ATOM     27  C   UNL     1      46.684   9.060  12.247  0.00  0.00    +0.000 A 
ATOM     28  C   UNL     1      47.488   7.937  12.041  0.00  0.00    +0.000 A 
ATOM     29  C   UNL     1      48.831   8.178  11.707  0.00  0.00    +0.000 A 
BRANCH  24  31
ATOM     30  C   UNL     1      51.490   8.771  10.969  0.00  0.00    +0.000 C 
ATOM     31  O   UNL     1      50.605   9.831  11.316  0.00  0.00    +0.000 OA
ENDBRANCH  24  31
ENDBRANCH  18  28
ENDBRANCH   1  22
TORSDOF 5
ENDMDL
MODEL 3
REMARK VINA RESULT:    -7.595      4.005      7.946
REMARK INTER + INTRA:         -10.791
REMARK INTER:                 -10.688
REMARK INTRA:                  -0.103
REMARK UNBOUND:                -0.976
REMARK  Name = 
REMARK  6 active torsions:
REMARK  status: ('A' for Active; 'I' for Inactive)
REMARK    1  A    between atoms: C_1  and  O_2
REMARK    2  A    between atoms: O_2  and  C_3
REMARK    3  A    between atoms: C_7  and  C_8
REMARK    4  A    between atoms: C_12  and  C_13
REMARK    5  A    between atoms: C_13  and  N_14
REMARK    6  A    between atoms: C_18  and  C_19
REMARK                            x       y       z     vdW  Elec       q    Type
REMARK                         _______ _______ _______ _____ _____    ______ ____
ROOT
ATOM      1  C   UNL     1      46.812   6.658  12.909  0.00  0.00    +0.000 C 
ATOM      2  C   UNL     1      47.695   7.748  12.317  0.00  0.00    +0.000 C 
ATOM      3  C   UNL     1      47.008   7.972  13.619  0.00  0.00    +0.000 C 
ATOM      4  F   UNL     1      45.979   8.897  13.633  0.00  0.00    +0.000 F 
ENDROOT
BRANCH   1   5
ATOM      5  N   UNL     1      47.532   5.427  13.373  0.00  0.00    +0.000 N 
ATOM      6  C   UNL     1      47.831   5.210  14.732  0.00  0.00    +0.000 A 
ATOM      7  C   UNL     1      48.289   6.223  15.561  0.00  0.00    +0.000 A 
ATOM      8  C   UNL     1      48.669   5.924  16.870  0.00  0.00    +0.000 A 
ATOM      9  C   UNL     1      48.579   4.613  17.300  0.00  0.00    +0.000 A 
ATOM     10  N   UNL     1      48.116   3.633  16.499  0.00  0.00    +0.000 NA
ATOM     11  N   UNL     1      47.746   3.943  15.201  0.00  0.00    +0.000 NA
ATOM     12  H   UNL     1      47.134   4.546  13.044  0.00  0.00    +0.000 HD
BRANCH   9  13
ATOM     13  C   UNL     1      49.025   4.235  18.669  0.00  0.00    +0.000 C 
ATOM     14  N   UNL     1      48.362   3.186  19.269  0.00  0.00    +0.000 N 
ATOM     15  O   UNL     1      49.945   4.804  19.240  0.00  0.00    +0.000 OA
ATOM     16  H   UNL     1      47.634   2.678  18.781  0.00  0.00    +0.000 HD
ATOM     17  H   UNL     1      48.674   2.869  20.176  0.00  0.00    +0.000 HD
ENDBRANCH   9  13
ENDBRANCH   1   5
BRANCH   1  22
ATOM     18  C   UNL     1      44.757   5.041  10.218  0.00  0.00    +0.000 A 
ATOM     19  C   UNL     1      43.529   4.839  10.864  0.00  0.00    +0.000 A 
ATOM     20  C   UNL     1      43.272   5.431  12.103  0.00  0.00    +0.000 A 
ATOM     21  C   UNL     1      44.284   6.139  12.757  0.00  0.00    +0.000 A 
ATOM     22  C   UNL     1      45.536   6.317  12.151  0.00  0.00    +0.000 A 
ATOM     23  C   UNL     1      45.683   5.897  10.821  0.00  0.00    +0.000 A 
BRANCH  18  28
ATOM     24  C   UNL     1      45.806   1.962   8.331  0.00  0.00    +0.000 A 
ATOM     25  C   UNL     1      46.504   2.575   7.298  0.00  0.00    +0.000 A 
ATOM     26  N   UNL     1      46.595   3.915   7.121  0.00  0.00    +0.000 NA
ATOM     27  C   UNL     1      45.960   4.685   8.035  0.00  0.00    +0.000 A 
ATOM     28  C   UNL     1      45.233   4.190   9.118  0.00  0.00    +0.000 A 
ATOM     29  C   UNL     1      45.165   2.793   9.245  0.00  0.00    +0.000 A 
BRANCH  24  31
ATOM     30  C   UNL     1      46.848  -0.035   7.593  0.00  0.00    +0.000 C 
ATOM     31  O   UNL     1      45.838   0.598   8.372  0.00  0.00    +0.000 OA
ENDBRANCH  24  31
ENDBRANCH  18  28
ENDBRANCH   1  22
TORSDOF 5
ENDMDL
MODEL 4
REMARK VINA RESULT:    -7.514      2.918      4.376
REMARK INTER + INTRA:         -10.686
REMARK INTER:                  -9.903
REMARK INTRA:                  -0.783
REMARK UNBOUND:                -0.976
REMARK  Name = 
REMARK  6 active torsions:
REMARK  status: ('A' for Active; 'I' for Inactive)
REMARK    1  A    between atoms: C_1  and  O_2
REMARK    2  A    between atoms: O_2  and  C_3
REMARK    3  A    between atoms: C_7  and  C_8
REMARK    4  A    between atoms: C_12  and  C_13
REMARK    5  A    between atoms: C_13  and  N_14
REMARK    6  A    between atoms: C_18  and  C_19
REMARK                            x       y       z     vdW  Elec       q    Type
REMARK                         _______ _______ _______ _____ _____    ______ ____
ROOT
ATOM      1  C   UNL     1      43.712   5.240  11.608  0.00  0.00    +0.000 C 
ATOM      2  C   UNL     1      42.483   5.492  12.470  0.00  0.00    +0.000 C 
ATOM      3  C   UNL     1      42.574   6.095  11.111  0.00  0.00    +0.000 C 
ATOM      4  F   UNL     1      42.734   7.467  11.045  0.00  0.00    +0.000 F 
ENDROOT
BRANCH   1   5
ATOM      5  N   UNL     1      43.877   3.833  11.118  0.00  0.00    +0.000 N 
ATOM      6  C   UNL     1      44.661   3.527   9.988  0.00  0.00    +0.000 A 
ATOM      7  C   UNL     1      44.639   4.303   8.839  0.00  0.00    +0.000 A 
ATOM      8  C   UNL     1      45.356   3.890   7.716  0.00  0.00    +0.000 A 
ATOM      9  C   UNL     1      46.069   2.708   7.785  0.00  0.00    +0.000 A 
ATOM     10  N   UNL     1      46.104   1.965   8.910  0.00  0.00    +0.000 NA
ATOM     11  N   UNL     1      45.385   2.384  10.016  0.00  0.00    +0.000 NA
ATOM     12  H   UNL     1      44.162   3.160  11.831  0.00  0.00    +0.000 HD
BRANCH   9  13
ATOM     13  C   UNL     1      46.804   2.198   6.595  0.00  0.00    +0.000 C 
ATOM     14  N   UNL     1      47.030   3.095   5.574  0.00  0.00    +0.000 N 
ATOM     15  O   UNL     1      47.210   1.046   6.519  0.00  0.00    +0.000 OA
ATOM     16  H   UNL     1      46.741   4.063   5.654  0.00  0.00    +0.000 HD
ATOM     17  H   UNL     1      47.572   2.797   4.775  0.00  0.00    +0.000 HD
ENDBRANCH   9  13
ENDBRANCH   1   5
BRANCH   1  22
ATOM     18  C   UNL     1      46.789   5.441  13.745  0.00  0.00    +0.000 A 
ATOM     19  C   UNL     1      47.715   6.037  12.877  0.00  0.00    +0.000 A 
ATOM     20  C   UNL     1      47.296   6.595  11.666  0.00  0.00    +0.000 A 
ATOM     21  C   UNL     1      45.964   6.461  11.265  0.00  0.00    +0.000 A 
ATOM     22  C   UNL     1      45.028   5.830  12.096  0.00  0.00    +0.000 A 
ATOM     23  C   UNL     1      45.438   5.479  13.390  0.00  0.00    +0.000 A 
BRANCH  18  28
ATOM     24  C   UNL     1      48.051   4.284  17.093  0.00  0.00    +0.000 A 
ATOM     25  C   UNL     1      48.336   2.965  16.768  0.00  0.00    +0.000 A 
ATOM     26  N   UNL     1      48.076   2.397  15.565  0.00  0.00    +0.000 NA
ATOM     27  C   UNL     1      47.509   3.198  14.634  0.00  0.00    +0.000 A 
ATOM     28  C   UNL     1      47.181   4.539  14.837  0.00  0.00    +0.000 A 
ATOM     29  C   UNL     1      47.465   5.070  16.106  0.00  0.00    +0.000 A 
BRANCH  24  31
ATOM     30  C   UNL     1      47.896   5.965  18.757  0.00  0.00    +0.000 C 
ATOM     31  O   UNL     1      48.401   4.699  18.346  0.00  0.00    +0.000 OA
ENDBRANCH  24  31
ENDBRANCH  18  28
ENDBRANCH   1  22
TORSDOF 5
ENDMDL
MODEL 5
REMARK VINA RESULT:    -7.368      2.545      7.182
REMARK INTER + INTRA:         -10.498
REMARK INTER:                  -9.521
REMARK INTRA:                  -0.976
REMARK UNBOUND:                -0.976
REMARK  Name = 
REMARK  6 active torsions:
REMARK  status: ('A' for Active; 'I' for Inactive)
REMARK    1  A    between atoms: C_1  and  O_2
REMARK    2  A    between atoms: O_2  and  C_3
REMARK    3  A    between atoms: C_7  and  C_8
REMARK    4  A    between atoms: C_12  and  C_13
REMARK    5  A    between atoms: C_13  and  N_14
REMARK    6  A    between atoms: C_18  and  C_19
REMARK                            x       y       z     vdW  Elec       q    Type
REMARK                         _______ _______ _______ _____ _____    ______ ____
ROOT
ATOM      1  C   UNL     1      46.431   5.550  13.679  0.00  0.00    +0.000 C 
ATOM      2  C   UNL     1      46.255   4.591  14.849  0.00  0.00    +0.000 C 
ATOM      3  C   UNL     1      47.299   4.326  13.820  0.00  0.00    +0.000 C 
ATOM      4  F   UNL     1      47.092   3.245  12.982  0.00  0.00    +0.000 F 
ENDROOT
BRANCH   1   5
ATOM      5  N   UNL     1      46.965   6.906  14.033  0.00  0.00    +0.000 N 
ATOM      6  C   UNL     1      47.825   7.613  13.171  0.00  0.00    +0.000 A 
ATOM      7  C   UNL     1      48.857   6.994  12.482  0.00  0.00    +0.000 A 
ATOM      8  C   UNL     1      49.742   7.765  11.727  0.00  0.00    +0.000 A 
ATOM      9  C   UNL     1      49.559   9.136  11.692  0.00  0.00    +0.000 A 
ATOM     10  N   UNL     1      48.543   9.733  12.346  0.00  0.00    +0.000 NA
ATOM     11  N   UNL     1      47.676   8.957  13.095  0.00  0.00    +0.000 NA
ATOM     12  H   UNL     1      46.257   7.585  14.319  0.00  0.00    +0.000 HD
BRANCH   9  13
ATOM     13  C   UNL     1      50.509  10.006  10.946  0.00  0.00    +0.000 C 
ATOM     14  N   UNL     1      51.734   9.459  10.631  0.00  0.00    +0.000 N 
ATOM     15  O   UNL     1      50.224  11.145  10.605  0.00  0.00    +0.000 OA
ATOM     16  H   UNL     1      51.955   8.499  10.866  0.00  0.00    +0.000 HD
ATOM     17  H   UNL     1      52.382  10.004  10.080  0.00  0.00    +0.000 HD
ENDBRANCH   9  13
ENDBRANCH   1   5
BRANCH   1  22
ATOM     18  C   UNL     1      44.667   4.884  10.436  0.00  0.00    +0.000 A 
ATOM     19  C   UNL     1      43.321   4.871  10.828  0.00  0.00    +0.000 A 
ATOM     20  C   UNL     1      42.948   5.308  12.101  0.00  0.00    +0.000 A 
ATOM     21  C   UNL     1      43.931   5.654  13.031  0.00  0.00    +0.000 A 
ATOM     22  C   UNL     1      45.287   5.633  12.677  0.00  0.00    +0.000 A 
ATOM     23  C   UNL     1      45.606   5.400  11.331  0.00  0.00    +0.000 A 
BRANCH  18  28
ATOM     24  C   UNL     1      45.853   1.985   8.355  0.00  0.00    +0.000 A 
ATOM     25  C   UNL     1      46.502   2.695   7.353  0.00  0.00    +0.000 A 
ATOM     26  N   UNL     1      46.518   4.046   7.256  0.00  0.00    +0.000 NA
ATOM     27  C   UNL     1      45.856   4.724   8.221  0.00  0.00    +0.000 A 
ATOM     28  C   UNL     1      45.172   4.127   9.281  0.00  0.00    +0.000 A 
ATOM     29  C   UNL     1      45.182   2.723   9.324  0.00  0.00    +0.000 A 
BRANCH  24  31
ATOM     30  C   UNL     1      46.920   0.092   7.408  0.00  0.00    +0.000 C 
ATOM     31  O   UNL     1      45.959   0.624   8.313  0.00  0.00    +0.000 OA
ENDBRANCH  24  31
ENDBRANCH  18  28
ENDBRANCH   1  22
TORSDOF 5
ENDMDL
MODEL 6
REMARK VINA RESULT:    -7.226      4.057      8.216
REMARK INTER + INTRA:         -10.314
REMARK INTER:                  -9.216
REMARK INTRA:                  -1.098
REMARK UNBOUND:                -0.976
REMARK  Name = 
REMARK  6 active torsions:
REMARK  status: ('A' for Active; 'I' for Inactive)
REMARK    1  A    between atoms: C_1  and  O_2
REMARK    2  A    between atoms: O_2  and  C_3
REMARK    3  A    between atoms: C_7  and  C_8
REMARK    4  A    between atoms: C_12  and  C_13
REMARK    5  A    between atoms: C_13  and  N_14
REMARK    6  A    between atoms: C_18  and  C_19
REMARK                            x       y       z     vdW  Elec       q    Type
REMARK                         _______ _______ _______ _____ _____    ______ ____
ROOT
ATOM      1  C   UNL     1      49.536   8.225  12.603  0.00  0.00    +0.000 C 
ATOM      2  C   UNL     1      50.574   8.408  11.505  0.00  0.00    +0.000 C 
ATOM      3  C   UNL     1      50.480   9.400  12.612  0.00  0.00    +0.000 C 
ATOM      4  F   UNL     1      50.002  10.657  12.287  0.00  0.00    +0.000 F 
ENDROOT
BRANCH   1   5
ATOM      5  N   UNL     1      49.765   7.058  13.517  0.00  0.00    +0.000 N 
ATOM      6  C   UNL     1      49.203   7.004  14.807  0.00  0.00    +0.000 A 
ATOM      7  C   UNL     1      49.162   8.108  15.644  0.00  0.00    +0.000 A 
ATOM      8  C   UNL     1      48.689   7.966  16.950  0.00  0.00    +0.000 A 
ATOM      9  C   UNL     1      48.275   6.716  17.370  0.00  0.00    +0.000 A 
ATOM     10  N   UNL     1      48.298   5.647  16.547  0.00  0.00    +0.000 NA
ATOM     11  N   UNL     1      48.773   5.801  15.256  0.00  0.00    +0.000 NA
ATOM     12  H   UNL     1      49.573   6.144  13.103  0.00  0.00    +0.000 HD
BRANCH   9  13
ATOM     13  C   UNL     1      47.815   6.503  18.769  0.00  0.00    +0.000 C 
ATOM     14  N   UNL     1      46.782   5.610  18.953  0.00  0.00    +0.000 N 
ATOM     15  O   UNL     1      48.330   7.070  19.722  0.00  0.00    +0.000 OA
ATOM     16  H   UNL     1      46.386   5.099  18.173  0.00  0.00    +0.000 HD
ATOM     17  H   UNL     1      46.480   5.402  19.894  0.00  0.00    +0.000 HD
ENDBRANCH   9  13
ENDBRANCH   1   5
BRANCH   1  22
ATOM     18  C   UNL     1      46.067   6.993  11.879  0.00  0.00    +0.000 A 
ATOM     19  C   UNL     1      45.280   8.098  12.232  0.00  0.00    +0.000 A 
ATOM     20  C   UNL     1      45.871   9.338  12.487  0.00  0.00    +0.000 A 
ATOM     21  C   UNL     1      47.264   9.453  12.502  0.00  0.00    +0.000 A 
ATOM     22  C   UNL     1      48.074   8.350  12.197  0.00  0.00    +0.000 A 
ATOM     23  C   UNL     1      47.443   7.186  11.735  0.00  0.00    +0.000 A 
BRANCH  18  28
ATOM     24  C   UNL     1      44.443   3.766  10.834  0.00  0.00    +0.000 A 
ATOM     25  C   UNL     1      44.253   3.208  12.091  0.00  0.00    +0.000 A 
ATOM     26  N   UNL     1      44.682   3.761  13.251  0.00  0.00    +0.000 NA
ATOM     27  C   UNL     1      45.330   4.945  13.146  0.00  0.00    +0.000 A 
ATOM     28  C   UNL     1      45.577   5.609  11.944  0.00  0.00    +0.000 A 
ATOM     29  C   UNL     1      45.117   4.983  10.774  0.00  0.00    +0.000 A 
BRANCH  24  31
ATOM     30  C   UNL     1      44.806   2.191   9.100  0.00  0.00    +0.000 C 
ATOM     31  O   UNL     1      43.923   3.084   9.771  0.00  0.00    +0.000 OA
ENDBRANCH  24  31
ENDBRANCH  18  28
ENDBRANCH   1  22
TORSDOF 5
ENDMDL
MODEL 7
REMARK VINA RESULT:    -7.042      3.778      7.558
REMARK INTER + INTRA:         -10.076
REMARK INTER:                  -9.955
REMARK INTRA:                  -0.121
REMARK UNBOUND:                -0.976
REMARK  Name = 
REMARK  6 active torsions:
REMARK  status: ('A' for Active; 'I' for Inactive)
REMARK    1  A    between atoms: C_1  and  O_2
REMARK    2  A    between atoms: O_2  and  C_3
REMARK    3  A    between atoms: C_7  and  C_8
REMARK    4  A    between atoms: C_12  and  C_13
REMARK    5  A    between atoms: C_13  and  N_14
REMARK    6  A    between atoms: C_18  and  C_19
REMARK                            x       y       z     vdW  Elec       q    Type
REMARK                         _______ _______ _______ _____ _____    ______ ____
ROOT
ATOM      1  C   UNL     1      48.690   8.154  12.776  0.00  0.00    +0.000 C 
ATOM      2  C   UNL     1      49.753   7.300  12.098  0.00  0.00    +0.000 C 
ATOM      3  C   UNL     1      49.906   8.781  12.143  0.00  0.00    +0.000 C 
ATOM      4  F   UNL     1      49.774   9.460  10.946  0.00  0.00    +0.000 F 
ENDROOT
BRANCH   1   5
ATOM      5  N   UNL     1      48.599   8.005  14.265  0.00  0.00    +0.000 N 
ATOM      6  C   UNL     1      48.405   6.751  14.876  0.00  0.00    +0.000 A 
ATOM      7  C   UNL     1      47.522   5.809  14.371  0.00  0.00    +0.000 A 
ATOM      8  C   UNL     1      47.293   4.628  15.078  0.00  0.00    +0.000 A 
ATOM      9  C   UNL     1      47.961   4.435  16.273  0.00  0.00    +0.000 A 
ATOM     10  N   UNL     1      48.835   5.344  16.753  0.00  0.00    +0.000 NA
ATOM     11  N   UNL     1      49.048   6.513  16.043  0.00  0.00    +0.000 NA
ATOM     12  H   UNL     1      49.360   8.441  14.788  0.00  0.00    +0.000 HD
BRANCH   9  13
ATOM     13  C   UNL     1      47.710   3.217  17.091  0.00  0.00    +0.000 C 
ATOM     14  N   UNL     1      48.815   2.493  17.480  0.00  0.00    +0.000 N 
ATOM     15  O   UNL     1      46.585   2.873  17.425  0.00  0.00    +0.000 OA
ATOM     16  H   UNL     1      49.752   2.802  17.250  0.00  0.00    +0.000 HD
ATOM     17  H   UNL     1      48.685   1.690  18.080  0.00  0.00    +0.000 HD
ENDBRANCH   9  13
ENDBRANCH   1   5
BRANCH   1  22
ATOM     18  C   UNL     1      45.446   6.725  11.547  0.00  0.00    +0.000 A 
ATOM     19  C   UNL     1      44.569   7.807  11.701  0.00  0.00    +0.000 A 
ATOM     20  C   UNL     1      45.058   9.084  11.983  0.00  0.00    +0.000 A 
ATOM     21  C   UNL     1      46.423   9.266  12.227  0.00  0.00    +0.000 A 
ATOM     22  C   UNL     1      47.315   8.190  12.123  0.00  0.00    +0.000 A 
ATOM     23  C   UNL     1      46.818   6.976  11.626  0.00  0.00    +0.000 A 
BRANCH  18  28
ATOM     24  C   UNL     1      44.335   3.320  10.401  0.00  0.00    +0.000 A 
ATOM     25  C   UNL     1      43.783   2.865  11.591  0.00  0.00    +0.000 A 
ATOM     26  N   UNL     1      43.813   3.547  12.762  0.00  0.00    +0.000 NA
ATOM     27  C   UNL     1      44.421   4.756  12.736  0.00  0.00    +0.000 A 
ATOM     28  C   UNL     1      45.007   5.323  11.604  0.00  0.00    +0.000 A 
ATOM     29  C   UNL     1      44.953   4.567  10.422  0.00  0.00    +0.000 A 
BRANCH  24  31
ATOM     30  C   UNL     1      45.376   1.874   8.837  0.00  0.00    +0.000 C 
ATOM     31  O   UNL     1      44.194   2.513   9.308  0.00  0.00    +0.000 OA
ENDBRANCH  24  31
ENDBRANCH  18  28
ENDBRANCH   1  22
TORSDOF 5
ENDMDL
MODEL 8
REMARK VINA RESULT:    -6.488      6.039      8.418
REMARK INTER + INTRA:          -9.360
REMARK INTER:                  -8.680
REMARK INTRA:                  -0.681
REMARK UNBOUND:                -0.976
REMARK  Name = 
REMARK  6 active torsions:
REMARK  status: ('A' for Active; 'I' for Inactive)
REMARK    1  A    between atoms: C_1  and  O_2
REMARK    2  A    between atoms: O_2  and  C_3
REMARK    3  A    between atoms: C_7  and  C_8
REMARK    4  A    between atoms: C_12  and  C_13
REMARK    5  A    between atoms: C_13  and  N_14
REMARK    6  A    between atoms: C_18  and  C_19
REMARK                            x       y       z     vdW  Elec       q    Type
REMARK                         _______ _______ _______ _____ _____    ______ ____
ROOT
ATOM      1  C   UNL     1      48.467   5.091  17.620  0.00  0.00    +0.000 C 
ATOM      2  C   UNL     1      47.249   5.504  18.435  0.00  0.00    +0.000 C 
ATOM      3  C   UNL     1      47.268   4.186  17.740  0.00  0.00    +0.000 C 
ATOM      4  F   UNL     1      46.419   4.036  16.659  0.00  0.00    +0.000 F 
ENDROOT
BRANCH   1   5
ATOM      5  N   UNL     1      49.710   4.817  18.414  0.00  0.00    +0.000 N 
ATOM      6  C   UNL     1      50.608   3.793  18.057  0.00  0.00    +0.000 A 
ATOM      7  C   UNL     1      50.178   2.546  17.629  0.00  0.00    +0.000 A 
ATOM      8  C   UNL     1      51.114   1.538  17.392  0.00  0.00    +0.000 A 
ATOM      9  C   UNL     1      52.453   1.819  17.596  0.00  0.00    +0.000 A 
ATOM     10  N   UNL     1      52.870   3.038  17.994  0.00  0.00    +0.000 NA
ATOM     11  N   UNL     1      51.931   4.027  18.229  0.00  0.00    +0.000 NA
ATOM     12  H   UNL     1      50.295   5.635  18.592  0.00  0.00    +0.000 HD
BRANCH   9  13
ATOM     13  C   UNL     1      53.483   0.761  17.410  0.00  0.00    +0.000 C 
ATOM     14  N   UNL     1      53.324  -0.395  18.142  0.00  0.00    +0.000 N 
ATOM     15  O   UNL     1      54.422   0.889  16.636  0.00  0.00    +0.000 OA
ATOM     16  H   UNL     1      52.521  -0.527  18.746  0.00  0.00    +0.000 HD
ATOM     17  H   UNL     1      53.976  -1.154  18.001  0.00  0.00    +0.000 HD
ENDBRANCH   9  13
ENDBRANCH   1   5
BRANCH   1  22
ATOM     18  C   UNL     1      47.893   6.302  14.116  0.00  0.00    +0.000 A 
ATOM     19  C   UNL     1      48.413   7.602  14.162  0.00  0.00    +0.000 A 
ATOM     20  C   UNL     1      49.167   8.027  15.259  0.00  0.00    +0.000 A 
ATOM     21  C   UNL     1      49.311   7.189  16.368  0.00  0.00    +0.000 A 
ATOM     22  C   UNL     1      48.762   5.899  16.364  0.00  0.00    +0.000 A 
ATOM     23  C   UNL     1      48.203   5.433  15.165  0.00  0.00    +0.000 A 
BRANCH  18  28
ATOM     24  C   UNL     1      45.136   4.258  12.577  0.00  0.00    +0.000 A 
ATOM     25  C   UNL     1      45.109   4.851  11.321  0.00  0.00    +0.000 A 
ATOM     26  N   UNL     1      45.863   5.917  10.958  0.00  0.00    +0.000 NA
ATOM     27  C   UNL     1      46.697   6.411  11.902  0.00  0.00    +0.000 A 
ATOM     28  C   UNL     1      46.819   5.901  13.195  0.00  0.00    +0.000 A 
ATOM     29  C   UNL     1      46.006   4.802  13.517  0.00  0.00    +0.000 A 
BRANCH  24  31
ATOM     30  C   UNL     1      43.416   2.876  11.711  0.00  0.00    +0.000 C 
ATOM     31  O   UNL     1      44.326   3.175  12.765  0.00  0.00    +0.000 OA
ENDBRANCH  24  31
ENDBRANCH  18  28
ENDBRANCH   1  22
TORSDOF 5
ENDMDL
MODEL 9
REMARK VINA RESULT:    -6.473      4.742      8.096
REMARK INTER + INTRA:          -9.341
REMARK INTER:                  -8.793
REMARK INTRA:                  -0.548
REMARK UNBOUND:                -0.976
REMARK  Name = 
REMARK  6 active torsions:
REMARK  status: ('A' for Active; 'I' for Inactive)
REMARK    1  A    between atoms: C_1  and  O_2
REMARK    2  A    between atoms: O_2  and  C_3
REMARK    3  A    between atoms: C_7  and  C_8
REMARK    4  A    between atoms: C_12  and  C_13
REMARK    5  A    between atoms: C_13  and  N_14
REMARK    6  A    between atoms: C_18  and  C_19
REMARK                            x       y       z     vdW  Elec       q    Type
REMARK                         _______ _______ _______ _____ _____    ______ ____
ROOT
ATOM      1  C   UNL     1      50.330   8.746  15.314  0.00  0.00    +0.000 C 
ATOM      2  C   UNL     1      51.041  10.077  15.510  0.00  0.00    +0.000 C 
ATOM      3  C   UNL     1      49.630   9.915  15.957  0.00  0.00    +0.000 C 
ATOM      4  F   UNL     1      48.665  10.604  15.245  0.00  0.00    +0.000 F 
ENDROOT
BRANCH   1   5
ATOM      5  N   UNL     1      50.844   7.612  16.151  0.00  0.00    +0.000 N 
ATOM      6  C   UNL     1      50.005   6.564  16.577  0.00  0.00    +0.000 A 
ATOM      7  C   UNL     1      48.715   6.786  17.033  0.00  0.00    +0.000 A 
ATOM      8  C   UNL     1      47.971   5.721  17.541  0.00  0.00    +0.000 A 
ATOM      9  C   UNL     1      48.552   4.466  17.575  0.00  0.00    +0.000 A 
ATOM     10  N   UNL     1      49.800   4.249  17.112  0.00  0.00    +0.000 NA
ATOM     11  N   UNL     1      50.528   5.316  16.615  0.00  0.00    +0.000 NA
ATOM     12  H   UNL     1      51.680   7.154  15.786  0.00  0.00    +0.000 HD
BRANCH   9  13
ATOM     13  C   UNL     1      47.819   3.309  18.158  0.00  0.00    +0.000 C 
ATOM     14  N   UNL     1      48.249   2.858  19.387  0.00  0.00    +0.000 N 
ATOM     15  O   UNL     1      46.868   2.785  17.596  0.00  0.00    +0.000 OA
ATOM     16  H   UNL     1      49.003   3.321  19.881  0.00  0.00    +0.000 HD
ATOM     17  H   UNL     1      47.741   2.109  19.835  0.00  0.00    +0.000 HD
ENDBRANCH   9  13
ENDBRANCH   1   5
BRANCH   1  22
ATOM     18  C   UNL     1      48.499   6.968  12.564  0.00  0.00    +0.000 A 
ATOM     19  C   UNL     1      48.710   7.818  11.469  0.00  0.00    +0.000 A 
ATOM     20  C   UNL     1      49.641   8.858  11.546  0.00  0.00    +0.000 A 
ATOM     21  C   UNL     1      50.285   9.124  12.758  0.00  0.00    +0.000 A 
ATOM     22  C   UNL     1      50.057   8.315  13.880  0.00  0.00    +0.000 A 
ATOM     23  C   UNL     1      49.287   7.156  13.702  0.00  0.00    +0.000 A 
BRANCH  18  28
ATOM     24  C   UNL     1      45.017   5.645  12.051  0.00  0.00    +0.000 A 
ATOM     25  C   UNL     1      44.938   4.820  13.166  0.00  0.00    +0.000 A 
ATOM     26  N   UNL     1      45.957   4.597  14.030  0.00  0.00    +0.000 NA
ATOM     27  C   UNL     1      47.116   5.244  13.770  0.00  0.00    +0.000 A 
ATOM     28  C   UNL     1      47.319   6.102  12.689  0.00  0.00    +0.000 A 
ATOM     29  C   UNL     1      46.230   6.287  11.821  0.00  0.00    +0.000 A 
BRANCH  24  31
ATOM     30  C   UNL     1      42.675   5.315  11.892  0.00  0.00    +0.000 C 
ATOM     31  O   UNL     1      43.885   5.774  11.299  0.00  0.00    +0.000 OA
ENDBRANCH  24  31
ENDBRANCH  18  28
ENDBRANCH   1  22
TORSDOF 5
ENDMDL
