MODEL 1
REMARK VINA RESULT:    -9.464      0.000      0.000
REMARK INTER + INTRA:         -14.822
REMARK INTER:                 -13.891
REMARK INTRA:                  -0.932
REMARK UNBOUND:                -0.932
REMARK  Name = 
REMARK  9 active torsions:
REMARK  status: ('A' for Active; 'I' for Inactive)
REMARK    1  A    between atoms: N_1  and  C_2
REMARK    2  A    between atoms: C_2  and  C_3
REMARK    3  A    between atoms: C_2  and  C_19
REMARK    4  A    between atoms: C_3  and  C_4
REMARK    5  A    between atoms: C_7  and  C_8
REMARK    6  A    between atoms: C_8  and  N_9
REMARK    7  A    between atoms: N_9  and  C_10
REMARK    8  A    between atoms: C_13  and  O_14
REMARK    9  A    between atoms: C_19  and  C_21
REMARK                            x       y       z     vdW  Elec       q    Type
REMARK                         _______ _______ _______ _____ _____    ______ ____
ROOT
ATOM      1  C   UNL     1      47.149   5.223  14.437  0.00  0.00    +0.000 C 
ENDROOT
BRANCH   1   2
ATOM      2  C   UNL     1      46.357   5.083  13.155  0.00  0.00    +0.000 A 
ATOM      3  C   UNL     1      45.516   3.981  12.971  0.00  0.00    +0.000 A 
ATOM      4  C   UNL     1      44.883   3.772  11.748  0.00  0.00    +0.000 A 
ATOM      5  C   UNL     1      45.023   4.691  10.699  0.00  0.00    +0.000 A 
ATOM      6  C   UNL     1      45.815   5.827  10.901  0.00  0.00    +0.000 A 
ATOM      7  C   UNL     1      46.486   6.016  12.116  0.00  0.00    +0.000 A 
BRANCH   5   8
ATOM      8  C   UNL     1      44.356   4.425   9.369  0.00  0.00    +0.000 C 
BRANCH   8   9
ATOM      9  N   UNL     1      44.302   2.989   9.100  0.00  0.00    +0.000 NA
ATOM     10  H   UNL     1      43.329   2.703   9.008  0.00  0.00    +0.000 HD
BRANCH   9  11
ATOM     11  C   UNL     1      45.085   2.555   7.941  0.00  0.00    +0.000 C 
ATOM     12  C   UNL     1      45.916   3.717   7.374  0.00  0.00    +0.000 C 
ATOM     13  C   UNL     1      46.885   3.267   6.290  0.00  0.00    +0.000 C 
ATOM     14  C   UNL     1      47.788   2.143   6.787  0.00  0.00    +0.000 C 
ATOM     15  C   UNL     1      46.965   0.965   7.303  0.00  0.00    +0.000 C 
ATOM     16  C   UNL     1      46.001   1.405   8.400  0.00  0.00    +0.000 C 
BRANCH  14  17
ATOM     17  O   UNL     1      48.638   1.712   5.732  0.00  0.00    +0.000 OA
ATOM     18  H   UNL     1      49.096   2.492   5.374  0.00  0.00    +0.000 HD
ENDBRANCH  14  17
ENDBRANCH   9  11
ENDBRANCH   8   9
ENDBRANCH   5   8
ENDBRANCH   1   2
BRANCH   1  19
ATOM     19  C   UNL     1      47.037   3.997  15.366  0.00  0.00    +0.000 C 
BRANCH  19  20
ATOM     20  N   UNL     1      47.836   2.891  14.776  0.00  0.00    +0.000 NA
ATOM     21  H   UNL     1      48.705   3.274  14.400  0.00  0.00    +0.000 HD
ATOM     22  H   UNL     1      47.326   2.500  13.980  0.00  0.00    +0.000 HD
ENDBRANCH  19  20
BRANCH  19  23
ATOM     23  C   UNL     1      47.505   4.285  16.817  0.00  0.00    +0.000 C 
ATOM     24  O   UNL     1      46.733   4.110  17.755  0.00  0.00    +0.000 OA
BRANCH  23  25
ATOM     25  C   UNL     1      48.909   4.700  17.073  0.00  0.00    +0.000 A 
ATOM     26  C   UNL     1      49.233   6.049  17.136  0.00  0.00    +0.000 A 
ATOM     27  S   UNL     1      50.846   6.345  17.608  0.00  0.00    +0.000 S 
ATOM     28  C   UNL     1      51.187   4.681  17.690  0.00  0.00    +0.000 A 
ATOM     29  N   UNL     1      52.405   4.227  18.094  0.00  0.00    +0.000 NA
ATOM     30  C   UNL     1      52.489   2.943  18.183  0.00  0.00    +0.000 A 
ATOM     31  N   UNL     1      51.485   2.068  17.859  0.00  0.00    +0.000 N 
ATOM     32  C   UNL     1      50.351   2.485  17.199  0.00  0.00    +0.000 A 
ATOM     33  O   UNL     1      49.674   1.720  16.529  0.00  0.00    +0.000 OA
ATOM     34  C   UNL     1      50.103   3.913  17.301  0.00  0.00    +0.000 A 
ATOM     35  H   UNL     1      51.671   1.078  17.843  0.00  0.00    +0.000 HD
ENDBRANCH  23  25
ENDBRANCH  19  23
ENDBRANCH   1  19
TORSDOF 9
ENDMDL
MODEL 2
REMARK VINA RESULT:    -8.893      2.269      3.049
REMARK INTER + INTRA:         -13.984
REMARK INTER:                 -12.825
REMARK INTRA:                  -1.159
REMARK UNBOUND:                -0.932
REMARK  Name = 
REMARK  9 active torsions:
REMARK  status: ('A' for Active; 'I' for Inactive)
REMARK    1  A    between atoms: N_1  and  C_2
REMARK    2  A    between atoms: C_2  and  C_3
REMARK    3  A    between atoms: C_2  and  C_19
REMARK    4  A    between atoms: C_3  and  C_4
REMARK    5  A    between atoms: C_7  and  C_8
REMARK    6  A    between atoms: C_8  and  N_9
REMARK    7  A    between atoms: N_9  and  C_10
REMARK    8  A    between atoms: C_13  and  O_14
REMARK    9  A    between atoms: C_19  and  C_21
REMARK                            x       y       z     vdW  Elec       q    Type
REMARK                         _______ _______ _______ _____ _____    ______ ____
ROOT
ATOM      1  C   UNL     1      46.003   7.830  13.257  0.00  0.00    +0.000 C 
ENDROOT
BRANCH   1   2
ATOM      2  C   UNL     1      45.587   6.607  12.469  0.00  0.00    +0.000 A 
ATOM      3  C   UNL     1      45.054   5.498  13.132  0.00  0.00    +0.000 A 
ATOM      4  C   UNL     1      44.789   4.319  12.437  0.00  0.00    +0.000 A 
ATOM      5  C   UNL     1      44.990   4.240  11.053  0.00  0.00    +0.000 A 
ATOM      6  C   UNL     1      45.465   5.369  10.376  0.00  0.00    +0.000 A 
ATOM      7  C   UNL     1      45.772   6.540  11.080  0.00  0.00    +0.000 A 
BRANCH   5   8
ATOM      8  C   UNL     1      44.730   2.940  10.326  0.00  0.00    +0.000 C 
BRANCH   8   9
ATOM      9  N   UNL     1      44.188   3.197   8.993  0.00  0.00    +0.000 NA
ATOM     10  H   UNL     1      44.036   4.198   8.882  0.00  0.00    +0.000 HD
BRANCH   9  11
ATOM     11  C   UNL     1      44.996   2.668   7.892  0.00  0.00    +0.000 C 
ATOM     12  C   UNL     1      45.848   3.777   7.254  0.00  0.00    +0.000 C 
ATOM     13  C   UNL     1      46.840   3.237   6.233  0.00  0.00    +0.000 C 
ATOM     14  C   UNL     1      47.724   2.154   6.841  0.00  0.00    +0.000 C 
ATOM     15  C   UNL     1      46.882   1.025   7.431  0.00  0.00    +0.000 C 
ATOM     16  C   UNL     1      45.894   1.555   8.465  0.00  0.00    +0.000 C 
BRANCH  14  17
ATOM     17  O   UNL     1      48.597   1.636   5.846  0.00  0.00    +0.000 OA
ATOM     18  H   UNL     1      48.136   0.915   5.384  0.00  0.00    +0.000 HD
ENDBRANCH  14  17
ENDBRANCH   9  11
ENDBRANCH   8   9
ENDBRANCH   5   8
ENDBRANCH   1   2
BRANCH   1  19
ATOM     19  C   UNL     1      47.502   8.166  13.126  0.00  0.00    +0.000 C 
BRANCH  19  20
ATOM     20  N   UNL     1      47.779   9.385  13.930  0.00  0.00    +0.000 NA
ATOM     21  H   UNL     1      48.288  10.055  13.350  0.00  0.00    +0.000 HD
ATOM     22  H   UNL     1      48.404   9.140  14.702  0.00  0.00    +0.000 HD
ENDBRANCH  19  20
BRANCH  19  23
ATOM     23  C   UNL     1      48.429   7.005  13.573  0.00  0.00    +0.000 C 
ATOM     24  O   UNL     1      49.063   6.371  12.735  0.00  0.00    +0.000 OA
BRANCH  23  25
ATOM     25  C   UNL     1      48.605   6.713  15.019  0.00  0.00    +0.000 A 
ATOM     26  C   UNL     1      49.286   7.611  15.830  0.00  0.00    +0.000 A 
ATOM     27  S   UNL     1      49.246   7.206  17.488  0.00  0.00    +0.000 S 
ATOM     28  C   UNL     1      48.366   5.784  17.176  0.00  0.00    +0.000 A 
ATOM     29  N   UNL     1      47.948   4.975  18.188  0.00  0.00    +0.000 NA
ATOM     30  C   UNL     1      47.225   3.978  17.804  0.00  0.00    +0.000 A 
ATOM     31  N   UNL     1      46.921   3.687  16.500  0.00  0.00    +0.000 N 
ATOM     32  C   UNL     1      47.549   4.326  15.454  0.00  0.00    +0.000 A 
ATOM     33  O   UNL     1      47.637   3.820  14.346  0.00  0.00    +0.000 OA
ATOM     34  C   UNL     1      48.163   5.591  15.821  0.00  0.00    +0.000 A 
ATOM     35  H   UNL     1      46.451   2.825  16.276  0.00  0.00    +0.000 HD
ENDBRANCH  23  25
ENDBRANCH  19  23
ENDBRANCH   1  19
TORSDOF 9
ENDMDL
MODEL 3
REMARK VINA RESULT:    -8.665      1.870      2.585
REMARK INTER + INTRA:         -13.649
REMARK INTER:                 -12.602
REMARK INTRA:                  -1.047
REMARK UNBOUND:                -0.932
REMARK  Name = 
REMARK  9 active torsions:
REMARK  status: ('A' for Active; 'I' for Inactive)
REMARK    1  A    between atoms: N_1  and  C_2
REMARK    2  A    between atoms: C_2  and  C_3
REMARK    3  A    between atoms: C_2  and  C_19
REMARK    4  A    between atoms: C_3  and  C_4
REMARK    5  A    between atoms: C_7  and  C_8
REMARK    6  A    between atoms: C_8  and  N_9
REMARK    7  A    between atoms: N_9  and  C_10
REMARK    8  A    between atoms: C_13  and  O_14
REMARK    9  A    between atoms: C_19  and  C_21
REMARK                            x       y       z     vdW  Elec       q    Type
REMARK                         _______ _______ _______ _____ _____    ______ ____
ROOT
ATOM      1  C   UNL     1      47.042   7.039  13.012  0.00  0.00    +0.000 C 
ENDROOT
BRANCH   1   2
ATOM      2  C   UNL     1      46.180   5.945  12.419  0.00  0.00    +0.000 A 
ATOM      3  C   UNL     1      46.221   4.656  12.958  0.00  0.00    +0.000 A 
ATOM      4  C   UNL     1      45.534   3.610  12.343  0.00  0.00    +0.000 A 
ATOM      5  C   UNL     1      44.739   3.840  11.212  0.00  0.00    +0.000 A 
ATOM      6  C   UNL     1      44.647   5.142  10.707  0.00  0.00    +0.000 A 
ATOM      7  C   UNL     1      45.371   6.184  11.299  0.00  0.00    +0.000 A 
BRANCH   5   8
ATOM      8  C   UNL     1      44.032   2.685  10.540  0.00  0.00    +0.000 C 
BRANCH   8   9
ATOM      9  N   UNL     1      44.185   2.765   9.088  0.00  0.00    +0.000 NA
ATOM     10  H   UNL     1      43.775   3.636   8.757  0.00  0.00    +0.000 HD
BRANCH   9  11
ATOM     11  C   UNL     1      45.561   2.620   8.610  0.00  0.00    +0.000 C 
ATOM     12  C   UNL     1      45.861   1.160   8.233  0.00  0.00    +0.000 C 
ATOM     13  C   UNL     1      47.215   0.998   7.557  0.00  0.00    +0.000 C 
ATOM     14  C   UNL     1      47.338   1.911   6.342  0.00  0.00    +0.000 C 
ATOM     15  C   UNL     1      47.092   3.369   6.722  0.00  0.00    +0.000 C 
ATOM     16  C   UNL     1      45.732   3.542   7.389  0.00  0.00    +0.000 C 
BRANCH  14  17
ATOM     17  O   UNL     1      48.633   1.773   5.771  0.00  0.00    +0.000 OA
ATOM     18  H   UNL     1      48.553   1.882   4.808  0.00  0.00    +0.000 HD
ENDBRANCH  14  17
ENDBRANCH   9  11
ENDBRANCH   8   9
ENDBRANCH   5   8
ENDBRANCH   1   2
BRANCH   1  19
ATOM     19  C   UNL     1      48.341   6.516  13.658  0.00  0.00    +0.000 C 
BRANCH  19  20
ATOM     20  N   UNL     1      49.445   6.672  12.675  0.00  0.00    +0.000 NA
ATOM     21  H   UNL     1      49.799   5.746  12.425  0.00  0.00    +0.000 HD
ATOM     22  H   UNL     1      50.223   7.164  13.123  0.00  0.00    +0.000 HD
ENDBRANCH  19  20
BRANCH  19  23
ATOM     23  C   UNL     1      48.696   7.236  14.985  0.00  0.00    +0.000 C 
ATOM     24  O   UNL     1      48.288   8.375  15.191  0.00  0.00    +0.000 OA
BRANCH  23  25
ATOM     25  C   UNL     1      49.464   6.518  16.035  0.00  0.00    +0.000 A 
ATOM     26  C   UNL     1      50.801   6.825  16.249  0.00  0.00    +0.000 A 
ATOM     27  S   UNL     1      51.479   6.033  17.601  0.00  0.00    +0.000 S 
ATOM     28  C   UNL     1      50.026   5.207  17.915  0.00  0.00    +0.000 A 
ATOM     29  N   UNL     1      49.901   4.381  18.991  0.00  0.00    +0.000 NA
ATOM     30  C   UNL     1      48.719   3.888  19.145  0.00  0.00    +0.000 A 
ATOM     31  N   UNL     1      47.663   4.104  18.297  0.00  0.00    +0.000 N 
ATOM     32  C   UNL     1      47.836   4.707  17.072  0.00  0.00    +0.000 A 
ATOM     33  O   UNL     1      47.057   4.528  16.147  0.00  0.00    +0.000 OA
ATOM     34  C   UNL     1      49.060   5.483  16.964  0.00  0.00    +0.000 A 
ATOM     35  H   UNL     1      46.808   3.587  18.423  0.00  0.00    +0.000 HD
ENDBRANCH  23  25
ENDBRANCH  19  23
ENDBRANCH   1  19
TORSDOF 9
ENDMDL
MODEL 4
REMARK VINA RESULT:    -8.453      2.405      2.876
REMARK INTER + INTRA:         -13.338
REMARK INTER:                 -12.117
REMARK INTRA:                  -1.221
REMARK UNBOUND:                -0.932
REMARK  Name = 
REMARK  9 active torsions:
REMARK  status: ('A' for Active; 'I' for Inactive)
REMARK    1  A    between atoms: N_1  and  C_2
REMARK    2  A    between atoms: C_2  and  C_3
REMARK    3  A    between atoms: C_2  and  C_19
REMARK    4  A    between atoms: C_3  and  C_4
REMARK    5  A    between atoms: C_7  and  C_8
REMARK    6  A    between atoms: C_8  and  N_9
REMARK    7  A    between atoms: N_9  and  C_10
REMARK    8  A    between atoms: C_13  and  O_14
REMARK    9  A    between atoms: C_19  and  C_21
REMARK                            x       y       z     vdW  Elec       q    Type
REMARK                         _______ _______ _______ _____ _____    ______ ____
ROOT
ATOM      1  C   UNL     1      47.104   7.054  13.672  0.00  0.00    +0.000 C 
ENDROOT
BRANCH   1   2
ATOM      2  C   UNL     1      46.369   6.028  12.836  0.00  0.00    +0.000 A 
ATOM      3  C   UNL     1      46.100   4.762  13.364  0.00  0.00    +0.000 A 
ATOM      4  C   UNL     1      45.543   3.766  12.564  0.00  0.00    +0.000 A 
ATOM      5  C   UNL     1      45.181   4.030  11.236  0.00  0.00    +0.000 A 
ATOM      6  C   UNL     1      45.392   5.314  10.724  0.00  0.00    +0.000 A 
ATOM      7  C   UNL     1      45.992   6.303  11.514  0.00  0.00    +0.000 A 
BRANCH   5   8
ATOM      8  C   UNL     1      44.611   2.925  10.376  0.00  0.00    +0.000 C 
BRANCH   8   9
ATOM      9  N   UNL     1      44.254   3.436   9.054  0.00  0.00    +0.000 NA
ATOM     10  H   UNL     1      44.324   4.452   9.059  0.00  0.00    +0.000 HD
BRANCH   9  11
ATOM     11  C   UNL     1      45.028   2.865   7.949  0.00  0.00    +0.000 C 
ATOM     12  C   UNL     1      45.952   3.922   7.323  0.00  0.00    +0.000 C 
ATOM     13  C   UNL     1      46.908   3.328   6.298  0.00  0.00    +0.000 C 
ATOM     14  C   UNL     1      47.718   2.183   6.897  0.00  0.00    +0.000 C 
ATOM     15  C   UNL     1      46.803   1.106   7.474  0.00  0.00    +0.000 C 
ATOM     16  C   UNL     1      45.849   1.690   8.512  0.00  0.00    +0.000 C 
BRANCH  14  17
ATOM     17  O   UNL     1      48.557   1.618   5.897  0.00  0.00    +0.000 OA
ATOM     18  H   UNL     1      49.073   2.337   5.495  0.00  0.00    +0.000 HD
ENDBRANCH  14  17
ENDBRANCH   9  11
ENDBRANCH   8   9
ENDBRANCH   5   8
ENDBRANCH   1   2
BRANCH   1  19
ATOM     19  C   UNL     1      48.559   6.656  13.995  0.00  0.00    +0.000 C 
BRANCH  19  20
ATOM     20  N   UNL     1      49.310   6.558  12.716  0.00  0.00    +0.000 NA
ATOM     21  H   UNL     1      49.489   7.501  12.364  0.00  0.00    +0.000 HD
ATOM     22  H   UNL     1      48.720   6.098  12.018  0.00  0.00    +0.000 HD
ENDBRANCH  19  20
BRANCH  19  23
ATOM     23  C   UNL     1      49.263   7.647  14.958  0.00  0.00    +0.000 C 
ATOM     24  O   UNL     1      50.116   8.417  14.527  0.00  0.00    +0.000 OA
BRANCH  23  25
ATOM     25  C   UNL     1      48.849   7.714  16.384  0.00  0.00    +0.000 A 
ATOM     26  C   UNL     1      48.392   8.912  16.918  0.00  0.00    +0.000 A 
ATOM     27  S   UNL     1      47.798   8.771  18.512  0.00  0.00    +0.000 S 
ATOM     28  C   UNL     1      48.183   7.115  18.567  0.00  0.00    +0.000 A 
ATOM     29  N   UNL     1      47.883   6.355  19.657  0.00  0.00    +0.000 NA
ATOM     30  C   UNL     1      48.162   5.103  19.521  0.00  0.00    +0.000 A 
ATOM     31  N   UNL     1      48.758   4.547  18.420  0.00  0.00    +0.000 N 
ATOM     32  C   UNL     1      49.311   5.328  17.429  0.00  0.00    +0.000 A 
ATOM     33  O   UNL     1      50.194   4.912  16.695  0.00  0.00    +0.000 OA
ATOM     34  C   UNL     1      48.814   6.693  17.410  0.00  0.00    +0.000 A 
ATOM     35  H   UNL     1      49.050   3.583  18.442  0.00  0.00    +0.000 HD
ENDBRANCH  23  25
ENDBRANCH  19  23
ENDBRANCH   1  19
TORSDOF 9
ENDMDL
MODEL 5
REMARK VINA RESULT:    -8.167      1.999      2.313
REMARK INTER + INTRA:         -12.918
REMARK INTER:                 -11.798
REMARK INTRA:                  -1.120
REMARK UNBOUND:                -0.932
REMARK  Name = 
REMARK  9 active torsions:
REMARK  status: ('A' for Active; 'I' for Inactive)
REMARK    1  A    between atoms: N_1  and  C_2
REMARK    2  A    between atoms: C_2  and  C_3
REMARK    3  A    between atoms: C_2  and  C_19
REMARK    4  A    between atoms: C_3  and  C_4
REMARK    5  A    between atoms: C_7  and  C_8
REMARK    6  A    between atoms: C_8  and  N_9
REMARK    7  A    between atoms: N_9  and  C_10
REMARK    8  A    between atoms: C_13  and  O_14
REMARK    9  A    between atoms: C_19  and  C_21
REMARK                            x       y       z     vdW  Elec       q    Type
REMARK                         _______ _______ _______ _____ _____    ______ ____
ROOT
ATOM      1  C   UNL     1      47.026   6.816  13.636  0.00  0.00    +0.000 C 
ENDROOT
BRANCH   1   2
ATOM      2  C   UNL     1      46.264   5.820  12.789  0.00  0.00    +0.000 A 
ATOM      3  C   UNL     1      46.044   4.525  13.266  0.00  0.00    +0.000 A 
ATOM      4  C   UNL     1      45.460   3.559  12.447  0.00  0.00    +0.000 A 
ATOM      5  C   UNL     1      45.024   3.882  11.155  0.00  0.00    +0.000 A 
ATOM      6  C   UNL     1      45.187   5.194  10.698  0.00  0.00    +0.000 A 
ATOM      7  C   UNL     1      45.812   6.153  11.504  0.00  0.00    +0.000 A 
BRANCH   5   8
ATOM      8  C   UNL     1      44.426   2.811  10.271  0.00  0.00    +0.000 C 
BRANCH   8   9
ATOM      9  N   UNL     1      44.141   3.344   8.940  0.00  0.00    +0.000 NA
ATOM     10  H   UNL     1      44.216   4.359   8.965  0.00  0.00    +0.000 HD
BRANCH   9  11
ATOM     11  C   UNL     1      44.967   2.784   7.868  0.00  0.00    +0.000 C 
ATOM     12  C   UNL     1      45.886   3.859   7.266  0.00  0.00    +0.000 C 
ATOM     13  C   UNL     1      46.893   3.282   6.281  0.00  0.00    +0.000 C 
ATOM     14  C   UNL     1      47.708   2.162   6.917  0.00  0.00    +0.000 C 
ATOM     15  C   UNL     1      46.800   1.066   7.471  0.00  0.00    +0.000 C 
ATOM     16  C   UNL     1      45.796   1.635   8.469  0.00  0.00    +0.000 C 
BRANCH  14  17
ATOM     17  O   UNL     1      48.596   1.611   5.953  0.00  0.00    +0.000 OA
ATOM     18  H   UNL     1      48.745   0.677   6.177  0.00  0.00    +0.000 HD
ENDBRANCH  14  17
ENDBRANCH   9  11
ENDBRANCH   8   9
ENDBRANCH   5   8
ENDBRANCH   1   2
BRANCH   1  19
ATOM     19  C   UNL     1      48.414   6.311  14.081  0.00  0.00    +0.000 C 
BRANCH  19  20
ATOM     20  N   UNL     1      49.405   6.696  13.043  0.00  0.00    +0.000 NA
ATOM     21  H   UNL     1      49.529   5.913  12.397  0.00  0.00    +0.000 HD
ATOM     22  H   UNL     1      50.313   6.847  13.489  0.00  0.00    +0.000 HD
ENDBRANCH  19  20
BRANCH  19  23
ATOM     23  C   UNL     1      48.846   6.857  15.467  0.00  0.00    +0.000 C 
ATOM     24  O   UNL     1      48.775   8.060  15.700  0.00  0.00    +0.000 OA
BRANCH  23  25
ATOM     25  C   UNL     1      49.273   5.915  16.534  0.00  0.00    +0.000 A 
ATOM     26  C   UNL     1      48.324   5.172  17.223  0.00  0.00    +0.000 A 
ATOM     27  S   UNL     1      48.996   4.019  18.288  0.00  0.00    +0.000 S 
ATOM     28  C   UNL     1      50.580   4.510  17.909  0.00  0.00    +0.000 A 
ATOM     29  N   UNL     1      51.663   3.883  18.446  0.00  0.00    +0.000 NA
ATOM     30  C   UNL     1      52.796   4.313  18.004  0.00  0.00    +0.000 A 
ATOM     31  N   UNL     1      52.951   5.343  17.113  0.00  0.00    +0.000 N 
ATOM     32  C   UNL     1      51.897   6.160  16.768  0.00  0.00    +0.000 A 
ATOM     33  O   UNL     1      52.069   7.297  16.353  0.00  0.00    +0.000 OA
ATOM     34  C   UNL     1      50.591   5.581  17.032  0.00  0.00    +0.000 A 
ATOM     35  H   UNL     1      53.872   5.695  16.911  0.00  0.00    +0.000 HD
ENDBRANCH  23  25
ENDBRANCH  19  23
ENDBRANCH   1  19
TORSDOF 9
ENDMDL
MODEL 6
REMARK VINA RESULT:    -8.128      1.701      2.068
REMARK INTER + INTRA:         -12.861
REMARK INTER:                 -11.632
REMARK INTRA:                  -1.230
REMARK UNBOUND:                -0.932
REMARK  Name = 
REMARK  9 active torsions:
REMARK  status: ('A' for Active; 'I' for Inactive)
REMARK    1  A    between atoms: N_1  and  C_2
REMARK    2  A    between atoms: C_2  and  C_3
REMARK    3  A    between atoms: C_2  and  C_19
REMARK    4  A    between atoms: C_3  and  C_4
REMARK    5  A    between atoms: C_7  and  C_8
REMARK    6  A    between atoms: C_8  and  N_9
REMARK    7  A    between atoms: N_9  and  C_10
REMARK    8  A    between atoms: C_13  and  O_14
REMARK    9  A    between atoms: C_19  and  C_21
REMARK                            x       y       z     vdW  Elec       q    Type
REMARK                         _______ _______ _______ _____ _____    ______ ____
ROOT
ATOM      1  C   UNL     1      46.912   6.141  14.431  0.00  0.00    +0.000 C 
ENDROOT
BRANCH   1   2
ATOM      2  C   UNL     1      46.314   5.593  13.154  0.00  0.00    +0.000 A 
ATOM      3  C   UNL     1      46.479   6.288  11.952  0.00  0.00    +0.000 A 
ATOM      4  C   UNL     1      45.825   5.865  10.796  0.00  0.00    +0.000 A 
ATOM      5  C   UNL     1      45.043   4.703  10.797  0.00  0.00    +0.000 A 
ATOM      6  C   UNL     1      44.926   3.971  11.984  0.00  0.00    +0.000 A 
ATOM      7  C   UNL     1      45.548   4.418  13.156  0.00  0.00    +0.000 A 
BRANCH   5   8
ATOM      8  C   UNL     1      44.314   4.283   9.540  0.00  0.00    +0.000 C 
BRANCH   8   9
ATOM      9  N   UNL     1      44.472   2.848   9.311  0.00  0.00    +0.000 NA
ATOM     10  H   UNL     1      43.557   2.402   9.344  0.00  0.00    +0.000 HD
BRANCH   9  11
ATOM     11  C   UNL     1      45.177   2.501   8.075  0.00  0.00    +0.000 C 
ATOM     12  C   UNL     1      45.980   3.701   7.547  0.00  0.00    +0.000 C 
ATOM     13  C   UNL     1      46.876   3.332   6.372  0.00  0.00    +0.000 C 
ATOM     14  C   UNL     1      47.798   2.171   6.724  0.00  0.00    +0.000 C 
ATOM     15  C   UNL     1      47.001   0.959   7.200  0.00  0.00    +0.000 C 
ATOM     16  C   UNL     1      46.110   1.317   8.386  0.00  0.00    +0.000 C 
BRANCH  14  17
ATOM     17  O   UNL     1      48.577   1.820   5.587  0.00  0.00    +0.000 OA
ATOM     18  H   UNL     1      48.978   0.949   5.752  0.00  0.00    +0.000 HD
ENDBRANCH  14  17
ENDBRANCH   9  11
ENDBRANCH   8   9
ENDBRANCH   5   8
ENDBRANCH   1   2
BRANCH   1  19
ATOM     19  C   UNL     1      48.066   5.282  14.988  0.00  0.00    +0.000 C 
BRANCH  19  20
ATOM     20  N   UNL     1      49.212   6.179  15.287  0.00  0.00    +0.000 NA
ATOM     21  H   UNL     1      49.392   6.164  16.293  0.00  0.00    +0.000 HD
ATOM     22  H   UNL     1      48.952   7.142  15.056  0.00  0.00    +0.000 HD
ENDBRANCH  19  20
BRANCH  19  23
ATOM     23  C   UNL     1      47.671   4.474  16.252  0.00  0.00    +0.000 C 
ATOM     24  O   UNL     1      47.180   3.355  16.134  0.00  0.00    +0.000 OA
BRANCH  23  25
ATOM     25  C   UNL     1      47.957   5.025  17.602  0.00  0.00    +0.000 A 
ATOM     26  C   UNL     1      46.979   5.740  18.280  0.00  0.00    +0.000 A 
ATOM     27  S   UNL     1      47.413   6.148  19.880  0.00  0.00    +0.000 S 
ATOM     28  C   UNL     1      48.946   5.434  19.705  0.00  0.00    +0.000 A 
ATOM     29  N   UNL     1      49.827   5.386  20.743  0.00  0.00    +0.000 NA
ATOM     30  C   UNL     1      50.915   4.743  20.484  0.00  0.00    +0.000 A 
ATOM     31  N   UNL     1      51.228   4.187  19.270  0.00  0.00    +0.000 N 
ATOM     32  C   UNL     1      50.483   4.454  18.143  0.00  0.00    +0.000 A 
ATOM     33  O   UNL     1      50.951   4.351  17.020  0.00  0.00    +0.000 OA
ATOM     34  C   UNL     1      49.146   4.949  18.424  0.00  0.00    +0.000 A 
ATOM     35  H   UNL     1      52.147   3.807  19.117  0.00  0.00    +0.000 HD
ENDBRANCH  23  25
ENDBRANCH  19  23
ENDBRANCH   1  19
TORSDOF 9
ENDMDL
MODEL 7
REMARK VINA RESULT:    -8.124      1.427      2.088
REMARK INTER + INTRA:         -12.855
REMARK INTER:                 -11.835
REMARK INTRA:                  -1.020
REMARK UNBOUND:                -0.932
REMARK  Name = 
REMARK  9 active torsions:
REMARK  status: ('A' for Active; 'I' for Inactive)
REMARK    1  A    between atoms: N_1  and  C_2
REMARK    2  A    between atoms: C_2  and  C_3
REMARK    3  A    between atoms: C_2  and  C_19
REMARK    4  A    between atoms: C_3  and  C_4
REMARK    5  A    between atoms: C_7  and  C_8
REMARK    6  A    between atoms: C_8  and  N_9
REMARK    7  A    between atoms: N_9  and  C_10
REMARK    8  A    between atoms: C_13  and  O_14
REMARK    9  A    between atoms: C_19  and  C_21
REMARK                            x       y       z     vdW  Elec       q    Type
REMARK                         _______ _______ _______ _____ _____    ______ ____
ROOT
ATOM      1  C   UNL     1      46.248   5.175  14.746  0.00  0.00    +0.000 C 
ENDROOT
BRANCH   1   2
ATOM      2  C   UNL     1      45.854   4.928  13.305  0.00  0.00    +0.000 A 
ATOM      3  C   UNL     1      45.808   5.994  12.402  0.00  0.00    +0.000 A 
ATOM      4  C   UNL     1      45.323   5.805  11.110  0.00  0.00    +0.000 A 
ATOM      5  C   UNL     1      44.932   4.533  10.668  0.00  0.00    +0.000 A 
ATOM      6  C   UNL     1      45.036   3.453  11.550  0.00  0.00    +0.000 A 
ATOM      7  C   UNL     1      45.483   3.650  12.863  0.00  0.00    +0.000 A 
BRANCH   5   8
ATOM      8  C   UNL     1      44.375   4.358   9.273  0.00  0.00    +0.000 C 
BRANCH   8   9
ATOM      9  N   UNL     1      44.240   2.939   8.949  0.00  0.00    +0.000 NA
ATOM     10  H   UNL     1      43.257   2.724   8.794  0.00  0.00    +0.000 HD
BRANCH   9  11
ATOM     11  C   UNL     1      45.058   2.490   7.820  0.00  0.00    +0.000 C 
ATOM     12  C   UNL     1      45.832   3.666   7.202  0.00  0.00    +0.000 C 
ATOM     13  C   UNL     1      46.836   3.215   6.150  0.00  0.00    +0.000 C 
ATOM     14  C   UNL     1      47.791   2.168   6.710  0.00  0.00    +0.000 C 
ATOM     15  C   UNL     1      47.027   0.974   7.277  0.00  0.00    +0.000 C 
ATOM     16  C   UNL     1      46.028   1.415   8.343  0.00  0.00    +0.000 C 
BRANCH  14  17
ATOM     17  O   UNL     1      48.674   1.731   5.684  0.00  0.00    +0.000 OA
ATOM     18  H   UNL     1      48.752   2.444   5.028  0.00  0.00    +0.000 HD
ENDBRANCH  14  17
ENDBRANCH   9  11
ENDBRANCH   8   9
ENDBRANCH   5   8
ENDBRANCH   1   2
BRANCH   1  19
ATOM     19  C   UNL     1      47.660   4.661  15.094  0.00  0.00    +0.000 C 
BRANCH  19  20
ATOM     20  N   UNL     1      48.570   5.832  15.194  0.00  0.00    +0.000 NA
ATOM     21  H   UNL     1      48.719   6.052  16.181  0.00  0.00    +0.000 HD
ATOM     22  H   UNL     1      48.109   6.648  14.783  0.00  0.00    +0.000 HD
ENDBRANCH  19  20
BRANCH  19  23
ATOM     23  C   UNL     1      47.702   3.833  16.405  0.00  0.00    +0.000 C 
ATOM     24  O   UNL     1      46.655   3.493  16.948  0.00  0.00    +0.000 OA
BRANCH  23  25
ATOM     25  C   UNL     1      49.008   3.388  16.958  0.00  0.00    +0.000 A 
ATOM     26  C   UNL     1      49.419   2.072  16.791  0.00  0.00    +0.000 A 
ATOM     27  S   UNL     1      51.010   1.777  17.333  0.00  0.00    +0.000 S 
ATOM     28  C   UNL     1      51.187   3.383  17.863  0.00  0.00    +0.000 A 
ATOM     29  N   UNL     1      52.360   3.828  18.393  0.00  0.00    +0.000 NA
ATOM     30  C   UNL     1      52.369   5.087  18.675  0.00  0.00    +0.000 A 
ATOM     31  N   UNL     1      51.302   5.933  18.521  0.00  0.00    +0.000 N 
ATOM     32  C   UNL     1      50.040   5.456  18.245  0.00  0.00    +0.000 A 
ATOM     33  O   UNL     1      49.033   6.089  18.527  0.00  0.00    +0.000 OA
ATOM     34  C   UNL     1      50.026   4.115  17.686  0.00  0.00    +0.000 A 
ATOM     35  H   UNL     1      51.355   6.874  18.876  0.00  0.00    +0.000 HD
ENDBRANCH  23  25
ENDBRANCH  19  23
ENDBRANCH   1  19
TORSDOF 9
ENDMDL
MODEL 8
REMARK VINA RESULT:    -8.070      2.633      3.584
REMARK INTER + INTRA:         -12.775
REMARK INTER:                 -11.764
REMARK INTRA:                  -1.011
REMARK UNBOUND:                -0.932
REMARK  Name = 
REMARK  9 active torsions:
REMARK  status: ('A' for Active; 'I' for Inactive)
REMARK    1  A    between atoms: N_1  and  C_2
REMARK    2  A    between atoms: C_2  and  C_3
REMARK    3  A    between atoms: C_2  and  C_19
REMARK    4  A    between atoms: C_3  and  C_4
REMARK    5  A    between atoms: C_7  and  C_8
REMARK    6  A    between atoms: C_8  and  N_9
REMARK    7  A    between atoms: N_9  and  C_10
REMARK    8  A    between atoms: C_13  and  O_14
REMARK    9  A    between atoms: C_19  and  C_21
REMARK                            x       y       z     vdW  Elec       q    Type
REMARK                         _______ _______ _______ _____ _____    ______ ____
ROOT
ATOM      1  C   UNL     1      46.999   5.664  14.301  0.00  0.00    +0.000 C 
ENDROOT
BRANCH   1   2
ATOM      2  C   UNL     1      46.367   5.261  12.986  0.00  0.00    +0.000 A 
ATOM      3  C   UNL     1      46.441   6.117  11.884  0.00  0.00    +0.000 A 
ATOM      4  C   UNL     1      45.753   5.819  10.709  0.00  0.00    +0.000 A 
ATOM      5  C   UNL     1      45.027   4.627  10.585  0.00  0.00    +0.000 A 
ATOM      6  C   UNL     1      45.002   3.738  11.665  0.00  0.00    +0.000 A 
ATOM      7  C   UNL     1      45.657   4.057  12.861  0.00  0.00    +0.000 A 
BRANCH   5   8
ATOM      8  C   UNL     1      44.259   4.341   9.314  0.00  0.00    +0.000 C 
BRANCH   8   9
ATOM      9  N   UNL     1      44.230   2.904   9.045  0.00  0.00    +0.000 NA
ATOM     10  H   UNL     1      43.263   2.605   8.935  0.00  0.00    +0.000 HD
BRANCH   9  11
ATOM     11  C   UNL     1      45.041   2.481   7.901  0.00  0.00    +0.000 C 
ATOM     12  C   UNL     1      45.834   3.664   7.323  0.00  0.00    +0.000 C 
ATOM     13  C   UNL     1      46.830   3.233   6.256  0.00  0.00    +0.000 C 
ATOM     14  C   UNL     1      47.769   2.152   6.781  0.00  0.00    +0.000 C 
ATOM     15  C   UNL     1      46.986   0.953   7.309  0.00  0.00    +0.000 C 
ATOM     16  C   UNL     1      45.994   1.374   8.388  0.00  0.00    +0.000 C 
BRANCH  14  17
ATOM     17  O   UNL     1      48.646   1.737   5.742  0.00  0.00    +0.000 OA
ATOM     18  H   UNL     1      48.269   0.942   5.327  0.00  0.00    +0.000 HD
ENDBRANCH  14  17
ENDBRANCH   9  11
ENDBRANCH   8   9
ENDBRANCH   5   8
ENDBRANCH   1   2
BRANCH   1  19
ATOM     19  C   UNL     1      47.991   6.838  14.171  0.00  0.00    +0.000 C 
BRANCH  19  20
ATOM     20  N   UNL     1      47.237   8.106  14.348  0.00  0.00    +0.000 NA
ATOM     21  H   UNL     1      46.554   8.195  13.593  0.00  0.00    +0.000 HD
ATOM     22  H   UNL     1      47.882   8.895  14.246  0.00  0.00    +0.000 HD
ENDBRANCH  19  20
BRANCH  19  23
ATOM     23  C   UNL     1      49.164   6.762  15.184  0.00  0.00    +0.000 C 
ATOM     24  O   UNL     1      50.302   7.051  14.825  0.00  0.00    +0.000 OA
BRANCH  23  25
ATOM     25  C   UNL     1      48.895   6.414  16.603  0.00  0.00    +0.000 A 
ATOM     26  C   UNL     1      48.943   5.088  17.012  0.00  0.00    +0.000 A 
ATOM     27  S   UNL     1      48.782   4.884  18.699  0.00  0.00    +0.000 S 
ATOM     28  C   UNL     1      48.583   6.557  18.938  0.00  0.00    +0.000 A 
ATOM     29  N   UNL     1      48.447   7.082  20.187  0.00  0.00    +0.000 NA
ATOM     30  C   UNL     1      48.386   8.370  20.215  0.00  0.00    +0.000 A 
ATOM     31  N   UNL     1      48.400   9.180  19.110  0.00  0.00    +0.000 N 
ATOM     32  C   UNL     1      48.265   8.666  17.839  0.00  0.00    +0.000 A 
ATOM     33  O   UNL     1      47.845   9.340  16.911  0.00  0.00    +0.000 OA
ATOM     34  C   UNL     1      48.577   7.251  17.741  0.00  0.00    +0.000 A 
ATOM     35  H   UNL     1      48.229  10.167  19.211  0.00  0.00    +0.000 HD
ENDBRANCH  23  25
ENDBRANCH  19  23
ENDBRANCH   1  19
TORSDOF 9
ENDMDL
MODEL 9
REMARK VINA RESULT:    -7.756      4.313      5.160
REMARK INTER + INTRA:         -12.315
REMARK INTER:                 -11.023
REMARK INTRA:                  -1.292
REMARK UNBOUND:                -0.932
REMARK  Name = 
REMARK  9 active torsions:
REMARK  status: ('A' for Active; 'I' for Inactive)
REMARK    1  A    between atoms: N_1  and  C_2
REMARK    2  A    between atoms: C_2  and  C_3
REMARK    3  A    between atoms: C_2  and  C_19
REMARK    4  A    between atoms: C_3  and  C_4
REMARK    5  A    between atoms: C_7  and  C_8
REMARK    6  A    between atoms: C_8  and  N_9
REMARK    7  A    between atoms: N_9  and  C_10
REMARK    8  A    between atoms: C_13  and  O_14
REMARK    9  A    between atoms: C_19  and  C_21
REMARK                            x       y       z     vdW  Elec       q    Type
REMARK                         _______ _______ _______ _____ _____    ______ ____
ROOT
ATOM      1  C   UNL     1      47.529   6.758  13.594  0.00  0.00    +0.000 C 
ENDROOT
BRANCH   1   2
ATOM      2  C   UNL     1      46.712   5.758  12.805  0.00  0.00    +0.000 A 
ATOM      3  C   UNL     1      46.075   6.153  11.626  0.00  0.00    +0.000 A 
ATOM      4  C   UNL     1      45.215   5.281  10.960  0.00  0.00    +0.000 A 
ATOM      5  C   UNL     1      45.021   3.972  11.422  0.00  0.00    +0.000 A 
ATOM      6  C   UNL     1      45.705   3.554  12.568  0.00  0.00    +0.000 A 
ATOM      7  C   UNL     1      46.536   4.443  13.261  0.00  0.00    +0.000 A 
BRANCH   5   8
ATOM      8  C   UNL     1      44.056   3.055  10.705  0.00  0.00    +0.000 C 
BRANCH   8   9
ATOM      9  N   UNL     1      44.229   3.159   9.257  0.00  0.00    +0.000 NA
ATOM     10  H   UNL     1      43.977   4.099   8.957  0.00  0.00    +0.000 HD
BRANCH   9  11
ATOM     11  C   UNL     1      45.564   2.797   8.774  0.00  0.00    +0.000 C 
ATOM     12  C   UNL     1      45.613   1.319   8.354  0.00  0.00    +0.000 C 
ATOM     13  C   UNL     1      46.923   0.949   7.673  0.00  0.00    +0.000 C 
ATOM     14  C   UNL     1      47.205   1.863   6.485  0.00  0.00    +0.000 C 
ATOM     15  C   UNL     1      47.208   3.330   6.908  0.00  0.00    +0.000 C 
ATOM     16  C   UNL     1      45.893   3.712   7.580  0.00  0.00    +0.000 C 
BRANCH  14  17
ATOM     17  O   UNL     1      48.460   1.524   5.910  0.00  0.00    +0.000 OA
ATOM     18  H   UNL     1      48.578   0.562   5.985  0.00  0.00    +0.000 HD
ENDBRANCH  14  17
ENDBRANCH   9  11
ENDBRANCH   8   9
ENDBRANCH   5   8
ENDBRANCH   1   2
BRANCH   1  19
ATOM     19  C   UNL     1      47.039   8.212  13.438  0.00  0.00    +0.000 C 
BRANCH  19  20
ATOM     20  N   UNL     1      47.100   8.869  14.769  0.00  0.00    +0.000 NA
ATOM     21  H   UNL     1      47.898   9.509  14.787  0.00  0.00    +0.000 HD
ATOM     22  H   UNL     1      47.285   8.160  15.483  0.00  0.00    +0.000 HD
ENDBRANCH  19  20
BRANCH  19  23
ATOM     23  C   UNL     1      47.856   9.023  12.398  0.00  0.00    +0.000 C 
ATOM     24  O   UNL     1      47.321   9.939  11.781  0.00  0.00    +0.000 OA
BRANCH  23  25
ATOM     25  C   UNL     1      49.302   8.740  12.209  0.00  0.00    +0.000 A 
ATOM     26  C   UNL     1      49.714   7.886  11.194  0.00  0.00    +0.000 A 
ATOM     27  S   UNL     1      51.409   7.809  11.008  0.00  0.00    +0.000 S 
ATOM     28  C   UNL     1      51.657   8.869  12.315  0.00  0.00    +0.000 A 
ATOM     29  N   UNL     1      52.907   9.273  12.670  0.00  0.00    +0.000 NA
ATOM     30  C   UNL     1      52.931  10.139  13.627  0.00  0.00    +0.000 A 
ATOM     31  N   UNL     1      51.827  10.600  14.295  0.00  0.00    +0.000 N 
ATOM     32  C   UNL     1      50.592  10.010  14.138  0.00  0.00    +0.000 A 
ATOM     33  O   UNL     1      49.724  10.088  14.995  0.00  0.00    +0.000 OA
ATOM     34  C   UNL     1      50.465   9.224  12.922  0.00  0.00    +0.000 A 
ATOM     35  H   UNL     1      51.941  11.183  15.107  0.00  0.00    +0.000 HD
ENDBRANCH  23  25
ENDBRANCH  19  23
ENDBRANCH   1  19
TORSDOF 9
ENDMDL
