MODEL 1
REMARK VINA RESULT:    -8.720      0.000      0.000
REMARK INTER + INTRA:         -11.766
REMARK INTER:                 -11.779
REMARK INTRA:                   0.012
REMARK UNBOUND:                 0.012
REMARK  Name = 
REMARK  6 active torsions:
REMARK  status: ('A' for Active; 'I' for Inactive)
REMARK    1  A    between atoms: C_2  and  C_4
REMARK    2  A    between atoms: C_7  and  O_8
REMARK    3  A    between atoms: O_8  and  C_9
REMARK    4  A    between atoms: C_9  and  C_10
REMARK    5  A    between atoms: C_15  and  C_16
REMARK    6  A    between atoms: C_20  and  C_21
REMARK                            x       y       z     vdW  Elec       q    Type
REMARK                         _______ _______ _______ _____ _____    ______ ____
ROOT
ATOM      1  C   UNL     1      44.924   5.660  11.673  0.00  0.00    +0.000 A 
ATOM      2  C   UNL     1      44.816   6.943  11.142  0.00  0.00    +0.000 A 
ATOM      3  C   UNL     1      45.500   7.990  11.747  0.00  0.00    +0.000 A 
ATOM      4  C   UNL     1      46.320   7.727  12.837  0.00  0.00    +0.000 A 
ATOM      5  F   UNL     1      46.910   8.763  13.451  0.00  0.00    +0.000 F 
ATOM      6  C   UNL     1      46.476   6.419  13.284  0.00  0.00    +0.000 A 
ATOM      7  N   UNL     1      45.764   5.411  12.716  0.00  0.00    +0.000 NA
ENDROOT
BRANCH   6   8
ATOM      8  C   UNL     1      47.374   6.002  14.386  0.00  0.00    +0.000 A 
ATOM      9  C   UNL     1      48.531   6.714  14.738  0.00  0.00    +0.000 A 
ATOM     10  C   UNL     1      49.344   6.257  15.769  0.00  0.00    +0.000 A 
ATOM     11  N   UNL     1      49.098   5.141  16.479  0.00  0.00    +0.000 NA
ATOM     12  C   UNL     1      47.983   4.444  16.129  0.00  0.00    +0.000 A 
ATOM     13  C   UNL     1      47.113   4.830  15.118  0.00  0.00    +0.000 A 
BRANCH  12  14
ATOM     14  C   UNL     1      47.714   3.191  16.902  0.00  0.00    +0.000 C 
ATOM     15  N   UNL     1      48.772   2.326  17.006  0.00  0.00    +0.000 N 
ATOM     16  O   UNL     1      46.629   2.937  17.411  0.00  0.00    +0.000 OA
ATOM     17  H   UNL     1      49.652   2.566  16.566  0.00  0.00    +0.000 HD
ATOM     18  H   UNL     1      48.658   1.451  17.494  0.00  0.00    +0.000 HD
ENDBRANCH  12  14
ENDBRANCH   6   8
BRANCH   1  19
ATOM     19  C   UNL     1      43.984   4.551  11.215  0.00  0.00    +0.000 C 
ATOM     20  C   UNL     1      43.824   3.348  12.141  0.00  0.00    +0.000 C 
ATOM     21  C   UNL     1      42.707   4.329  12.016  0.00  0.00    +0.000 C 
BRANCH  19  22
ATOM     22  O   UNL     1      43.799   4.355   9.779  0.00  0.00    +0.000 OA
BRANCH  22  26
ATOM     23  C   UNL     1      46.758   2.853   7.513  0.00  0.00    +0.000 A 
ATOM     24  C   UNL     1      46.039   2.024   8.361  0.00  0.00    +0.000 A 
ATOM     25  N   UNL     1      45.125   2.506   9.232  0.00  0.00    +0.000 NA
ATOM     26  C   UNL     1      44.933   3.841   9.181  0.00  0.00    +0.000 A 
ATOM     27  C   UNL     1      45.712   4.686   8.400  0.00  0.00    +0.000 A 
ATOM     28  N   UNL     1      46.654   4.218   7.541  0.00  0.00    +0.000 NA
BRANCH  23  30
ATOM     29  N   UNL     1      47.837   3.058   5.357  0.00  0.00    +0.000 N 
ATOM     30  C   UNL     1      47.570   2.245   6.424  0.00  0.00    +0.000 C 
ATOM     31  O   UNL     1      47.944   1.081   6.456  0.00  0.00    +0.000 OA
ATOM     32  H   UNL     1      48.281   2.659   4.542  0.00  0.00    +0.000 HD
ATOM     33  H   UNL     1      47.466   4.001   5.331  0.00  0.00    +0.000 HD
ENDBRANCH  23  30
ENDBRANCH  22  26
ENDBRANCH  19  22
ENDBRANCH   1  19
TORSDOF 6
ENDMDL
MODEL 2
REMARK VINA RESULT:    -8.411      1.954      2.327
REMARK INTER + INTRA:         -11.349
REMARK INTER:                 -11.105
REMARK INTRA:                  -0.244
REMARK UNBOUND:                 0.012
REMARK  Name = 
REMARK  6 active torsions:
REMARK  status: ('A' for Active; 'I' for Inactive)
REMARK    1  A    between atoms: C_2  and  C_4
REMARK    2  A    between atoms: C_7  and  O_8
REMARK    3  A    between atoms: O_8  and  C_9
REMARK    4  A    between atoms: C_9  and  C_10
REMARK    5  A    between atoms: C_15  and  C_16
REMARK    6  A    between atoms: C_20  and  C_21
REMARK                            x       y       z     vdW  Elec       q    Type
REMARK                         _______ _______ _______ _____ _____    ______ ____
ROOT
ATOM      1  C   UNL     1      44.601   5.304  11.351  0.00  0.00    +0.000 A 
ATOM      2  C   UNL     1      43.629   6.263  11.073  0.00  0.00    +0.000 A 
ATOM      3  C   UNL     1      43.886   7.596  11.368  0.00  0.00    +0.000 A 
ATOM      4  C   UNL     1      45.125   7.952  11.885  0.00  0.00    +0.000 A 
ATOM      5  F   UNL     1      45.322   9.232  12.232  0.00  0.00    +0.000 F 
ATOM      6  C   UNL     1      46.104   6.980  12.064  0.00  0.00    +0.000 A 
ATOM      7  N   UNL     1      45.825   5.674  11.819  0.00  0.00    +0.000 NA
ENDROOT
BRANCH   6   8
ATOM      8  C   UNL     1      47.483   7.245  12.538  0.00  0.00    +0.000 A 
ATOM      9  C   UNL     1      48.481   7.788  11.715  0.00  0.00    +0.000 A 
ATOM     10  C   UNL     1      49.762   7.992  12.216  0.00  0.00    +0.000 A 
ATOM     11  N   UNL     1      50.131   7.692  13.475  0.00  0.00    +0.000 NA
ATOM     12  C   UNL     1      49.166   7.154  14.268  0.00  0.00    +0.000 A 
ATOM     13  C   UNL     1      47.861   6.922  13.853  0.00  0.00    +0.000 A 
BRANCH  12  14
ATOM     14  C   UNL     1      49.575   6.801  15.664  0.00  0.00    +0.000 C 
ATOM     15  N   UNL     1      50.142   7.819  16.384  0.00  0.00    +0.000 N 
ATOM     16  O   UNL     1      49.423   5.684  16.145  0.00  0.00    +0.000 OA
ATOM     17  H   UNL     1      50.258   8.727  15.951  0.00  0.00    +0.000 HD
ATOM     18  H   UNL     1      50.463   7.648  17.325  0.00  0.00    +0.000 HD
ENDBRANCH  12  14
ENDBRANCH   6   8
BRANCH   1  19
ATOM     19  C   UNL     1      44.259   3.819  11.302  0.00  0.00    +0.000 C 
ATOM     20  C   UNL     1      44.885   2.925  12.369  0.00  0.00    +0.000 C 
ATOM     21  C   UNL     1      43.430   3.245  12.444  0.00  0.00    +0.000 C 
BRANCH  19  22
ATOM     22  O   UNL     1      43.930   3.231  10.005  0.00  0.00    +0.000 OA
BRANCH  22  26
ATOM     23  C   UNL     1      46.798   2.684   7.245  0.00  0.00    +0.000 A 
ATOM     24  C   UNL     1      46.402   1.632   8.058  0.00  0.00    +0.000 A 
ATOM     25  N   UNL     1      45.536   1.803   9.081  0.00  0.00    +0.000 NA
ATOM     26  C   UNL     1      45.054   3.055   9.221  0.00  0.00    +0.000 A 
ATOM     27  C   UNL     1      45.513   4.129   8.470  0.00  0.00    +0.000 A 
ATOM     28  N   UNL     1      46.405   3.979   7.457  0.00  0.00    +0.000 NA
BRANCH  23  30
ATOM     29  N   UNL     1      47.327   3.227   4.947  0.00  0.00    +0.000 N 
ATOM     30  C   UNL     1      47.563   2.391   6.003  0.00  0.00    +0.000 C 
ATOM     31  O   UNL     1      48.325   1.438   5.911  0.00  0.00    +0.000 OA
ATOM     32  H   UNL     1      47.729   3.001   4.048  0.00  0.00    +0.000 HD
ATOM     33  H   UNL     1      46.646   3.974   5.033  0.00  0.00    +0.000 HD
ENDBRANCH  23  30
ENDBRANCH  22  26
ENDBRANCH  19  22
ENDBRANCH   1  19
TORSDOF 6
ENDMDL
MODEL 3
REMARK VINA RESULT:    -8.348      2.621      3.458
REMARK INTER + INTRA:         -11.264
REMARK INTER:                 -11.028
REMARK INTRA:                  -0.236
REMARK UNBOUND:                 0.012
REMARK  Name = 
REMARK  6 active torsions:
REMARK  status: ('A' for Active; 'I' for Inactive)
REMARK    1  A    between atoms: C_2  and  C_4
REMARK    2  A    between atoms: C_7  and  O_8
REMARK    3  A    between atoms: O_8  and  C_9
REMARK    4  A    between atoms: C_9  and  C_10
REMARK    5  A    between atoms: C_15  and  C_16
REMARK    6  A    between atoms: C_20  and  C_21
REMARK                            x       y       z     vdW  Elec       q    Type
REMARK                         _______ _______ _______ _____ _____    ______ ____
ROOT
ATOM      1  C   UNL     1      44.704   5.606  11.398  0.00  0.00    +0.000 A 
ATOM      2  C   UNL     1      43.799   6.631  11.134  0.00  0.00    +0.000 A 
ATOM      3  C   UNL     1      44.145   7.940  11.445  0.00  0.00    +0.000 A 
ATOM      4  C   UNL     1      45.406   8.206  11.963  0.00  0.00    +0.000 A 
ATOM      5  F   UNL     1      45.688   9.466  12.325  0.00  0.00    +0.000 F 
ATOM      6  C   UNL     1      46.317   7.169  12.128  0.00  0.00    +0.000 A 
ATOM      7  N   UNL     1      45.952   5.887  11.867  0.00  0.00    +0.000 NA
ENDROOT
BRANCH   6   8
ATOM      8  C   UNL     1      47.712   7.335  12.601  0.00  0.00    +0.000 A 
ATOM      9  C   UNL     1      48.087   7.164  13.942  0.00  0.00    +0.000 A 
ATOM     10  C   UNL     1      49.410   7.356  14.325  0.00  0.00    +0.000 A 
ATOM     11  N   UNL     1      50.392   7.711  13.476  0.00  0.00    +0.000 NA
ATOM     12  C   UNL     1      50.025   7.888  12.179  0.00  0.00    +0.000 A 
ATOM     13  C   UNL     1      48.730   7.713  11.708  0.00  0.00    +0.000 A 
BRANCH  12  14
ATOM     14  C   UNL     1      51.109   8.301  11.233  0.00  0.00    +0.000 C 
ATOM     15  N   UNL     1      51.989   7.311  10.880  0.00  0.00    +0.000 N 
ATOM     16  O   UNL     1      51.220   9.440  10.795  0.00  0.00    +0.000 OA
ATOM     17  H   UNL     1      51.870   6.383  11.268  0.00  0.00    +0.000 HD
ATOM     18  H   UNL     1      52.758   7.522  10.263  0.00  0.00    +0.000 HD
ENDBRANCH  12  14
ENDBRANCH   6   8
BRANCH   1  19
ATOM     19  C   UNL     1      44.263   4.148  11.332  0.00  0.00    +0.000 C 
ATOM     20  C   UNL     1      44.825   3.203  12.390  0.00  0.00    +0.000 C 
ATOM     21  C   UNL     1      43.394   3.619  12.466  0.00  0.00    +0.000 C 
BRANCH  19  22
ATOM     22  O   UNL     1      43.900   3.597  10.028  0.00  0.00    +0.000 OA
BRANCH  22  26
ATOM     23  C   UNL     1      46.742   2.742   7.321  0.00  0.00    +0.000 A 
ATOM     24  C   UNL     1      46.252   1.749   8.155  0.00  0.00    +0.000 A 
ATOM     25  N   UNL     1      45.392   2.018   9.162  0.00  0.00    +0.000 NA
ATOM     26  C   UNL     1      45.013   3.308   9.264  0.00  0.00    +0.000 A 
ATOM     27  C   UNL     1      45.568   4.321   8.492  0.00  0.00    +0.000 A 
ATOM     28  N   UNL     1      46.455   4.070   7.494  0.00  0.00    +0.000 NA
BRANCH  23  30
ATOM     29  N   UNL     1      47.263   3.122   4.988  0.00  0.00    +0.000 N 
ATOM     30  C   UNL     1      47.493   2.354   6.096  0.00  0.00    +0.000 C 
ATOM     31  O   UNL     1      48.239   1.385   6.063  0.00  0.00    +0.000 OA
ATOM     32  H   UNL     1      47.655   2.829   4.104  0.00  0.00    +0.000 HD
ATOM     33  H   UNL     1      46.596   3.884   5.027  0.00  0.00    +0.000 HD
ENDBRANCH  23  30
ENDBRANCH  22  26
ENDBRANCH  19  22
ENDBRANCH   1  19
TORSDOF 6
ENDMDL
MODEL 4
REMARK VINA RESULT:    -8.295      1.662      2.251
REMARK INTER + INTRA:         -11.192
REMARK INTER:                 -11.858
REMARK INTRA:                   0.666
REMARK UNBOUND:                 0.012
REMARK  Name = 
REMARK  6 active torsions:
REMARK  status: ('A' for Active; 'I' for Inactive)
REMARK    1  A    between atoms: C_2  and  C_4
REMARK    2  A    between atoms: C_7  and  O_8
REMARK    3  A    between atoms: O_8  and  C_9
REMARK    4  A    between atoms: C_9  and  C_10
REMARK    5  A    between atoms: C_15  and  C_16
REMARK    6  A    between atoms: C_20  and  C_21
REMARK                            x       y       z     vdW  Elec       q    Type
REMARK                         _______ _______ _______ _____ _____    ______ ____
ROOT
ATOM      1  C   UNL     1      45.588   4.934  12.185  0.00  0.00    +0.000 A 
ATOM      2  C   UNL     1      46.267   5.968  11.544  0.00  0.00    +0.000 A 
ATOM      3  C   UNL     1      47.316   6.601  12.199  0.00  0.00    +0.000 A 
ATOM      4  C   UNL     1      47.701   6.156  13.457  0.00  0.00    +0.000 A 
ATOM      5  F   UNL     1      48.665   6.831  14.100  0.00  0.00    +0.000 F 
ATOM      6  C   UNL     1      47.060   5.061  14.028  0.00  0.00    +0.000 A 
ATOM      7  N   UNL     1      46.004   4.481  13.400  0.00  0.00    +0.000 NA
ENDROOT
BRANCH   6   8
ATOM      8  C   UNL     1      47.426   4.449  15.327  0.00  0.00    +0.000 A 
ATOM      9  C   UNL     1      47.795   3.102  15.458  0.00  0.00    +0.000 A 
ATOM     10  C   UNL     1      48.106   2.584  16.710  0.00  0.00    +0.000 A 
ATOM     11  N   UNL     1      48.074   3.302  17.848  0.00  0.00    +0.000 NA
ATOM     12  C   UNL     1      47.704   4.605  17.722  0.00  0.00    +0.000 A 
ATOM     13  C   UNL     1      47.383   5.206  16.511  0.00  0.00    +0.000 A 
BRANCH  12  14
ATOM     14  C   UNL     1      47.648   5.405  18.986  0.00  0.00    +0.000 C 
ATOM     15  N   UNL     1      48.018   4.733  20.121  0.00  0.00    +0.000 N 
ATOM     16  O   UNL     1      47.296   6.578  19.022  0.00  0.00    +0.000 OA
ATOM     17  H   UNL     1      48.296   3.762  20.054  0.00  0.00    +0.000 HD
ATOM     18  H   UNL     1      47.984   5.203  21.014  0.00  0.00    +0.000 HD
ENDBRANCH  12  14
ENDBRANCH   6   8
BRANCH   1  19
ATOM     19  C   UNL     1      44.274   4.407  11.623  0.00  0.00    +0.000 C 
ATOM     20  C   UNL     1      43.760   3.082  12.182  0.00  0.00    +0.000 C 
ATOM     21  C   UNL     1      43.074   4.352  12.560  0.00  0.00    +0.000 C 
BRANCH  19  22
ATOM     22  O   UNL     1      43.913   4.772  10.255  0.00  0.00    +0.000 OA
BRANCH  22  26
ATOM     23  C   UNL     1      46.098   2.283   7.981  0.00  0.00    +0.000 A 
ATOM     24  C   UNL     1      46.104   3.646   7.726  0.00  0.00    +0.000 A 
ATOM     25  N   UNL     1      45.288   4.502   8.381  0.00  0.00    +0.000 NA
ATOM     26  C   UNL     1      44.508   3.939   9.327  0.00  0.00    +0.000 A 
ATOM     27  C   UNL     1      44.431   2.566   9.524  0.00  0.00    +0.000 A 
ATOM     28  N   UNL     1      45.224   1.691   8.853  0.00  0.00    +0.000 NA
BRANCH  23  30
ATOM     29  N   UNL     1      48.207   2.106   6.805  0.00  0.00    +0.000 N 
ATOM     30  C   UNL     1      47.174   1.434   7.400  0.00  0.00    +0.000 C 
ATOM     31  O   UNL     1      47.125   0.212   7.414  0.00  0.00    +0.000 OA
ATOM     32  H   UNL     1      48.900   1.577   6.294  0.00  0.00    +0.000 HD
ATOM     33  H   UNL     1      48.193   3.119   6.757  0.00  0.00    +0.000 HD
ENDBRANCH  23  30
ENDBRANCH  22  26
ENDBRANCH  19  22
ENDBRANCH   1  19
TORSDOF 6
ENDMDL
MODEL 5
REMARK VINA RESULT:    -8.132      2.152      7.626
REMARK INTER + INTRA:         -10.973
REMARK INTER:                 -10.577
REMARK INTRA:                  -0.396
REMARK UNBOUND:                 0.012
REMARK  Name = 
REMARK  6 active torsions:
REMARK  status: ('A' for Active; 'I' for Inactive)
REMARK    1  A    between atoms: C_2  and  C_4
REMARK    2  A    between atoms: C_7  and  O_8
REMARK    3  A    between atoms: O_8  and  C_9
REMARK    4  A    between atoms: C_9  and  C_10
REMARK    5  A    between atoms: C_15  and  C_16
REMARK    6  A    between atoms: C_20  and  C_21
REMARK                            x       y       z     vdW  Elec       q    Type
REMARK                         _______ _______ _______ _____ _____    ______ ____
ROOT
ATOM      1  C   UNL     1      47.224   7.881  12.488  0.00  0.00    +0.000 A 
ATOM      2  C   UNL     1      46.399   8.970  12.762  0.00  0.00    +0.000 A 
ATOM      3  C   UNL     1      45.105   8.986  12.257  0.00  0.00    +0.000 A 
ATOM      4  C   UNL     1      44.642   7.894  11.534  0.00  0.00    +0.000 A 
ATOM      5  F   UNL     1      43.417   7.966  10.993  0.00  0.00    +0.000 F 
ATOM      6  C   UNL     1      45.463   6.785  11.358  0.00  0.00    +0.000 A 
ATOM      7  N   UNL     1      46.742   6.800  11.814  0.00  0.00    +0.000 NA
ENDROOT
BRANCH   6   8
ATOM      8  C   UNL     1      45.061   5.535  10.671  0.00  0.00    +0.000 A 
ATOM      9  C   UNL     1      44.026   4.708  11.136  0.00  0.00    +0.000 A 
ATOM     10  C   UNL     1      43.713   3.537  10.456  0.00  0.00    +0.000 A 
ATOM     11  N   UNL     1      44.352   3.119   9.348  0.00  0.00    +0.000 NA
ATOM     12  C   UNL     1      45.363   3.914   8.905  0.00  0.00    +0.000 A 
ATOM     13  C   UNL     1      45.740   5.103   9.518  0.00  0.00    +0.000 A 
BRANCH  12  14
ATOM     14  C   UNL     1      46.091   3.445   7.684  0.00  0.00    +0.000 C 
ATOM     15  N   UNL     1      46.396   2.110   7.660  0.00  0.00    +0.000 N 
ATOM     16  O   UNL     1      46.403   4.189   6.762  0.00  0.00    +0.000 OA
ATOM     17  H   UNL     1      46.128   1.526   8.443  0.00  0.00    +0.000 HD
ATOM     18  H   UNL     1      46.906   1.727   6.878  0.00  0.00    +0.000 HD
ENDBRANCH  12  14
ENDBRANCH   6   8
BRANCH   1  19
ATOM     19  C   UNL     1      48.717   7.948  12.784  0.00  0.00    +0.000 C 
ATOM     20  C   UNL     1      49.564   8.849  11.887  0.00  0.00    +0.000 C 
ATOM     21  C   UNL     1      49.280   9.270  13.290  0.00  0.00    +0.000 C 
BRANCH  19  22
ATOM     22  O   UNL     1      49.351   6.784  13.399  0.00  0.00    +0.000 OA
BRANCH  22  26
ATOM     23  C   UNL     1      47.626   4.917  16.510  0.00  0.00    +0.000 A 
ATOM     24  C   UNL     1      47.297   4.558  15.212  0.00  0.00    +0.000 A 
ATOM     25  N   UNL     1      47.755   5.243  14.140  0.00  0.00    +0.000 NA
ATOM     26  C   UNL     1      48.587   6.266  14.426  0.00  0.00    +0.000 A 
ATOM     27  C   UNL     1      48.848   6.686  15.724  0.00  0.00    +0.000 A 
ATOM     28  N   UNL     1      48.372   6.026  16.811  0.00  0.00    +0.000 NA
BRANCH  23  30
ATOM     29  N   UNL     1      47.699   4.382  18.869  0.00  0.00    +0.000 N 
ATOM     30  C   UNL     1      47.286   3.992  17.625  0.00  0.00    +0.000 C 
ATOM     31  O   UNL     1      46.709   2.929  17.443  0.00  0.00    +0.000 OA
ATOM     32  H   UNL     1      47.598   3.736  19.639  0.00  0.00    +0.000 HD
ATOM     33  H   UNL     1      48.226   5.241  18.984  0.00  0.00    +0.000 HD
ENDBRANCH  23  30
ENDBRANCH  22  26
ENDBRANCH  19  22
ENDBRANCH   1  19
TORSDOF 6
ENDMDL
MODEL 6
REMARK VINA RESULT:    -8.038      2.989      4.421
REMARK INTER + INTRA:         -10.845
REMARK INTER:                 -10.633
REMARK INTRA:                  -0.212
REMARK UNBOUND:                 0.012
REMARK  Name = 
REMARK  6 active torsions:
REMARK  status: ('A' for Active; 'I' for Inactive)
REMARK    1  A    between atoms: C_2  and  C_4
REMARK    2  A    between atoms: C_7  and  O_8
REMARK    3  A    between atoms: O_8  and  C_9
REMARK    4  A    between atoms: C_9  and  C_10
REMARK    5  A    between atoms: C_15  and  C_16
REMARK    6  A    between atoms: C_20  and  C_21
REMARK                            x       y       z     vdW  Elec       q    Type
REMARK                         _______ _______ _______ _____ _____    ______ ____
ROOT
ATOM      1  C   UNL     1      45.108   5.215  12.011  0.00  0.00    +0.000 A 
ATOM      2  C   UNL     1      45.809   4.311  12.807  0.00  0.00    +0.000 A 
ATOM      3  C   UNL     1      47.043   4.679  13.328  0.00  0.00    +0.000 A 
ATOM      4  C   UNL     1      47.530   5.957  13.089  0.00  0.00    +0.000 A 
ATOM      5  F   UNL     1      48.756   6.263  13.538  0.00  0.00    +0.000 F 
ATOM      6  C   UNL     1      46.762   6.864  12.367  0.00  0.00    +0.000 A 
ATOM      7  N   UNL     1      45.579   6.479  11.821  0.00  0.00    +0.000 NA
ENDROOT
BRANCH   6   8
ATOM      8  C   UNL     1      47.137   8.274  12.108  0.00  0.00    +0.000 A 
ATOM      9  C   UNL     1      46.215   9.331  12.159  0.00  0.00    +0.000 A 
ATOM     10  C   UNL     1      46.629  10.630  11.884  0.00  0.00    +0.000 A 
ATOM     11  N   UNL     1      47.891  10.961  11.557  0.00  0.00    +0.000 NA
ATOM     12  C   UNL     1      48.781   9.934  11.495  0.00  0.00    +0.000 A 
ATOM     13  C   UNL     1      48.458   8.610  11.759  0.00  0.00    +0.000 A 
BRANCH  12  14
ATOM     14  C   UNL     1      50.183  10.294  11.113  0.00  0.00    +0.000 C 
ATOM     15  N   UNL     1      51.086   9.263  11.155  0.00  0.00    +0.000 N 
ATOM     16  O   UNL     1      50.520  11.425  10.784  0.00  0.00    +0.000 OA
ATOM     17  H   UNL     1      50.773   8.343  11.438  0.00  0.00    +0.000 HD
ATOM     18  H   UNL     1      52.054   9.437  10.931  0.00  0.00    +0.000 HD
ENDBRANCH  12  14
ENDBRANCH   6   8
BRANCH   1  19
ATOM     19  C   UNL     1      43.899   4.759  11.204  0.00  0.00    +0.000 C 
ATOM     20  C   UNL     1      43.037   3.653  11.807  0.00  0.00    +0.000 C 
ATOM     21  C   UNL     1      42.516   5.051  11.772  0.00  0.00    +0.000 C 
BRANCH  19  22
ATOM     22  O   UNL     1      43.956   4.882   9.749  0.00  0.00    +0.000 OA
BRANCH  22  26
ATOM     23  C   UNL     1      46.630   2.737   7.654  0.00  0.00    +0.000 A 
ATOM     24  C   UNL     1      45.781   2.108   8.552  0.00  0.00    +0.000 A 
ATOM     25  N   UNL     1      44.957   2.803   9.368  0.00  0.00    +0.000 NA
ATOM     26  C   UNL     1      44.990   4.142   9.210  0.00  0.00    +0.000 A 
ATOM     27  C   UNL     1      45.902   4.782   8.380  0.00  0.00    +0.000 A 
ATOM     28  N   UNL     1      46.755   4.099   7.575  0.00  0.00    +0.000 NA
BRANCH  23  30
ATOM     29  N   UNL     1      48.094   2.616   5.730  0.00  0.00    +0.000 N 
ATOM     30  C   UNL     1      47.334   1.919   6.629  0.00  0.00    +0.000 C 
ATOM     31  O   UNL     1      47.212   0.704   6.562  0.00  0.00    +0.000 OA
ATOM     32  H   UNL     1      48.495   2.122   4.946  0.00  0.00    +0.000 HD
ATOM     33  H   UNL     1      48.131   3.629   5.774  0.00  0.00    +0.000 HD
ENDBRANCH  23  30
ENDBRANCH  22  26
ENDBRANCH  19  22
ENDBRANCH   1  19
TORSDOF 6
ENDMDL
MODEL 7
REMARK VINA RESULT:    -7.583      2.710      5.033
REMARK INTER + INTRA:         -10.231
REMARK INTER:                 -10.438
REMARK INTRA:                   0.208
REMARK UNBOUND:                 0.012
REMARK  Name = 
REMARK  6 active torsions:
REMARK  status: ('A' for Active; 'I' for Inactive)
REMARK    1  A    between atoms: C_2  and  C_4
REMARK    2  A    between atoms: C_7  and  O_8
REMARK    3  A    between atoms: O_8  and  C_9
REMARK    4  A    between atoms: C_9  and  C_10
REMARK    5  A    between atoms: C_15  and  C_16
REMARK    6  A    between atoms: C_20  and  C_21
REMARK                            x       y       z     vdW  Elec       q    Type
REMARK                         _______ _______ _______ _____ _____    ______ ____
ROOT
ATOM      1  C   UNL     1      45.373   5.162  12.322  0.00  0.00    +0.000 A 
ATOM      2  C   UNL     1      46.371   4.648  13.148  0.00  0.00    +0.000 A 
ATOM      3  C   UNL     1      47.376   5.492  13.604  0.00  0.00    +0.000 A 
ATOM      4  C   UNL     1      47.337   6.840  13.273  0.00  0.00    +0.000 A 
ATOM      5  F   UNL     1      48.357   7.618  13.662  0.00  0.00    +0.000 F 
ATOM      6  C   UNL     1      46.275   7.336  12.523  0.00  0.00    +0.000 A 
ATOM      7  N   UNL     1      45.325   6.493  12.040  0.00  0.00    +0.000 NA
ENDROOT
BRANCH   6   8
ATOM      8  C   UNL     1      46.083   8.761  12.167  0.00  0.00    +0.000 A 
ATOM      9  C   UNL     1      47.127   9.699  12.185  0.00  0.00    +0.000 A 
ATOM     10  C   UNL     1      46.875  11.027  11.860  0.00  0.00    +0.000 A 
ATOM     11  N   UNL     1      45.660  11.500  11.524  0.00  0.00    +0.000 NA
ATOM     12  C   UNL     1      44.646  10.592  11.520  0.00  0.00    +0.000 A 
ATOM     13  C   UNL     1      44.809   9.247  11.824  0.00  0.00    +0.000 A 
BRANCH  12  14
ATOM     14  C   UNL     1      43.289  11.115  11.164  0.00  0.00    +0.000 C 
ATOM     15  N   UNL     1      42.376  11.117  12.185  0.00  0.00    +0.000 N 
ATOM     16  O   UNL     1      42.997  11.514  10.044  0.00  0.00    +0.000 OA
ATOM     17  H   UNL     1      42.651  10.773  13.097  0.00  0.00    +0.000 HD
ATOM     18  H   UNL     1      41.434  11.435  12.013  0.00  0.00    +0.000 HD
ENDBRANCH  12  14
ENDBRANCH   6   8
BRANCH   1  19
ATOM     19  C   UNL     1      44.423   4.227  11.584  0.00  0.00    +0.000 C 
ATOM     20  C   UNL     1      42.942   4.314  11.944  0.00  0.00    +0.000 C 
ATOM     21  C   UNL     1      43.410   4.852  10.633  0.00  0.00    +0.000 C 
BRANCH  19  22
ATOM     22  O   UNL     1      44.948   2.951  11.101  0.00  0.00    +0.000 OA
BRANCH  22  26
ATOM     23  C   UNL     1      46.389   2.893   7.351  0.00  0.00    +0.000 A 
ATOM     24  C   UNL     1      46.241   4.097   8.023  0.00  0.00    +0.000 A 
ATOM     25  N   UNL     1      45.643   4.175   9.233  0.00  0.00    +0.000 NA
ATOM     26  C   UNL     1      45.246   2.996   9.754  0.00  0.00    +0.000 A 
ATOM     27  C   UNL     1      45.309   1.800   9.048  0.00  0.00    +0.000 A 
ATOM     28  N   UNL     1      45.881   1.711   7.820  0.00  0.00    +0.000 NA
BRANCH  23  30
ATOM     29  N   UNL     1      48.592   2.664   6.377  0.00  0.00    +0.000 N 
ATOM     30  C   UNL     1      47.256   2.840   6.143  0.00  0.00    +0.000 C 
ATOM     31  O   UNL     1      46.815   2.986   5.012  0.00  0.00    +0.000 OA
ATOM     32  H   UNL     1      49.236   2.740   5.602  0.00  0.00    +0.000 HD
ATOM     33  H   UNL     1      48.938   2.604   7.328  0.00  0.00    +0.000 HD
ENDBRANCH  23  30
ENDBRANCH  22  26
ENDBRANCH  19  22
ENDBRANCH   1  19
TORSDOF 6
ENDMDL
MODEL 8
REMARK VINA RESULT:    -7.558      3.212      5.164
REMARK INTER + INTRA:         -10.197
REMARK INTER:                  -9.616
REMARK INTRA:                  -0.581
REMARK UNBOUND:                 0.012
REMARK  Name = 
REMARK  6 active torsions:
REMARK  status: ('A' for Active; 'I' for Inactive)
REMARK    1  A    between atoms: C_2  and  C_4
REMARK    2  A    between atoms: C_7  and  O_8
REMARK    3  A    between atoms: O_8  and  C_9
REMARK    4  A    between atoms: C_9  and  C_10
REMARK    5  A    between atoms: C_15  and  C_16
REMARK    6  A    between atoms: C_20  and  C_21
REMARK                            x       y       z     vdW  Elec       q    Type
REMARK                         _______ _______ _______ _____ _____    ______ ____
ROOT
ATOM      1  C   UNL     1      48.594   7.909  14.981  0.00  0.00    +0.000 A 
ATOM      2  C   UNL     1      48.141   8.986  15.740  0.00  0.00    +0.000 A 
ATOM      3  C   UNL     1      48.301   8.961  17.120  0.00  0.00    +0.000 A 
ATOM      4  C   UNL     1      48.956   7.888  17.710  0.00  0.00    +0.000 A 
ATOM      5  F   UNL     1      49.031   7.850  19.048  0.00  0.00    +0.000 F 
ATOM      6  C   UNL     1      49.476   6.874  16.913  0.00  0.00    +0.000 A 
ATOM      7  N   UNL     1      49.271   6.884  15.570  0.00  0.00    +0.000 NA
ENDROOT
BRANCH   6   8
ATOM      8  C   UNL     1      50.254   5.717  17.415  0.00  0.00    +0.000 A 
ATOM      9  C   UNL     1      51.336   5.852  18.299  0.00  0.00    +0.000 A 
ATOM     10  C   UNL     1      52.038   4.727  18.716  0.00  0.00    +0.000 A 
ATOM     11  N   UNL     1      51.753   3.474  18.318  0.00  0.00    +0.000 NA
ATOM     12  C   UNL     1      50.712   3.345  17.451  0.00  0.00    +0.000 A 
ATOM     13  C   UNL     1      49.953   4.412  16.987  0.00  0.00    +0.000 A 
BRANCH  12  14
ATOM     14  C   UNL     1      50.401   1.956  16.989  0.00  0.00    +0.000 C 
ATOM     15  N   UNL     1      51.169   0.967  17.545  0.00  0.00    +0.000 N 
ATOM     16  O   UNL     1      49.526   1.702  16.170  0.00  0.00    +0.000 OA
ATOM     17  H   UNL     1      51.888   1.215  18.213  0.00  0.00    +0.000 HD
ATOM     18  H   UNL     1      51.030   0.008  17.264  0.00  0.00    +0.000 HD
ENDBRANCH  12  14
ENDBRANCH   6   8
BRANCH   1  19
ATOM     19  C   UNL     1      48.195   7.772  13.517  0.00  0.00    +0.000 C 
ATOM     20  C   UNL     1      49.159   8.340  12.478  0.00  0.00    +0.000 C 
ATOM     21  C   UNL     1      49.040   6.861  12.635  0.00  0.00    +0.000 C 
BRANCH  19  22
ATOM     22  O   UNL     1      46.771   7.722  13.193  0.00  0.00    +0.000 OA
BRANCH  22  26
ATOM     23  C   UNL     1      45.102   4.326  11.842  0.00  0.00    +0.000 A 
ATOM     24  C   UNL     1      45.623   4.385  13.125  0.00  0.00    +0.000 A 
ATOM     25  N   UNL     1      46.305   5.461  13.575  0.00  0.00    +0.000 NA
ATOM     26  C   UNL     1      46.399   6.486  12.702  0.00  0.00    +0.000 A 
ATOM     27  C   UNL     1      45.960   6.399  11.387  0.00  0.00    +0.000 A 
ATOM     28  N   UNL     1      45.298   5.313  10.912  0.00  0.00    +0.000 NA
BRANCH  23  30
ATOM     29  N   UNL     1      43.780   2.417  12.525  0.00  0.00    +0.000 N 
ATOM     30  C   UNL     1      44.168   3.223  11.489  0.00  0.00    +0.000 C 
ATOM     31  O   UNL     1      43.799   3.017  10.341  0.00  0.00    +0.000 OA
ATOM     32  H   UNL     1      43.244   1.586  12.319  0.00  0.00    +0.000 HD
ATOM     33  H   UNL     1      44.147   2.576  13.456  0.00  0.00    +0.000 HD
ENDBRANCH  23  30
ENDBRANCH  22  26
ENDBRANCH  19  22
ENDBRANCH   1  19
TORSDOF 6
ENDMDL
MODEL 9
REMARK VINA RESULT:    -7.521      3.690      7.630
REMARK INTER + INTRA:         -10.147
REMARK INTER:                  -8.883
REMARK INTRA:                  -1.264
REMARK UNBOUND:                 0.012
REMARK  Name = 
REMARK  6 active torsions:
REMARK  status: ('A' for Active; 'I' for Inactive)
REMARK    1  A    between atoms: C_2  and  C_4
REMARK    2  A    between atoms: C_7  and  O_8
REMARK    3  A    between atoms: O_8  and  C_9
REMARK    4  A    between atoms: C_9  and  C_10
REMARK    5  A    between atoms: C_15  and  C_16
REMARK    6  A    between atoms: C_20  and  C_21
REMARK                            x       y       z     vdW  Elec       q    Type
REMARK                         _______ _______ _______ _____ _____    ______ ____
ROOT
ATOM      1  C   UNL     1      49.286   8.747  15.369  0.00  0.00    +0.000 A 
ATOM      2  C   UNL     1      50.482   8.870  14.665  0.00  0.00    +0.000 A 
ATOM      3  C   UNL     1      50.574   8.340  13.384  0.00  0.00    +0.000 A 
ATOM      4  C   UNL     1      49.458   7.744  12.812  0.00  0.00    +0.000 A 
ATOM      5  F   UNL     1      49.592   7.173  11.606  0.00  0.00    +0.000 F 
ATOM      6  C   UNL     1      48.254   7.721  13.509  0.00  0.00    +0.000 A 
ATOM      7  N   UNL     1      48.188   8.199  14.779  0.00  0.00    +0.000 NA
ENDROOT
BRANCH   6   8
ATOM      8  C   UNL     1      46.979   7.182  12.979  0.00  0.00    +0.000 A 
ATOM      9  C   UNL     1      46.080   7.953  12.226  0.00  0.00    +0.000 A 
ATOM     10  C   UNL     1      44.890   7.392  11.777  0.00  0.00    +0.000 A 
ATOM     11  N   UNL     1      44.520   6.122  12.022  0.00  0.00    +0.000 NA
ATOM     12  C   UNL     1      45.386   5.379  12.763  0.00  0.00    +0.000 A 
ATOM     13  C   UNL     1      46.598   5.856  13.247  0.00  0.00    +0.000 A 
BRANCH  12  14
ATOM     14  C   UNL     1      44.972   3.971  13.055  0.00  0.00    +0.000 C 
ATOM     15  N   UNL     1      45.975   3.040  12.996  0.00  0.00    +0.000 N 
ATOM     16  O   UNL     1      43.821   3.654  13.328  0.00  0.00    +0.000 OA
ATOM     17  H   UNL     1      46.914   3.338  12.760  0.00  0.00    +0.000 HD
ATOM     18  H   UNL     1      45.766   2.067  13.159  0.00  0.00    +0.000 HD
ENDBRANCH  12  14
ENDBRANCH   6   8
BRANCH   1  19
ATOM     19  C   UNL     1      49.230   9.064  16.859  0.00  0.00    +0.000 C 
ATOM     20  C   UNL     1      48.986  10.519  17.252  0.00  0.00    +0.000 C 
ATOM     21  C   UNL     1      47.895   9.518  17.437  0.00  0.00    +0.000 C 
BRANCH  19  22
ATOM     22  O   UNL     1      49.989   8.214  17.774  0.00  0.00    +0.000 OA
BRANCH  22  26
ATOM     23  C   UNL     1      48.450   4.557  17.136  0.00  0.00    +0.000 A 
ATOM     24  C   UNL     1      47.828   5.433  18.013  0.00  0.00    +0.000 A 
ATOM     25  N   UNL     1      48.378   6.619  18.354  0.00  0.00    +0.000 NA
ATOM     26  C   UNL     1      49.547   6.906  17.744  0.00  0.00    +0.000 A 
ATOM     27  C   UNL     1      50.219   5.997  16.937  0.00  0.00    +0.000 A 
ATOM     28  N   UNL     1      49.693   4.789  16.608  0.00  0.00    +0.000 NA
BRANCH  23  30
ATOM     29  N   UNL     1      46.804   2.821  17.499  0.00  0.00    +0.000 N 
ATOM     30  C   UNL     1      47.691   3.385  16.624  0.00  0.00    +0.000 C 
ATOM     31  O   UNL     1      47.873   2.922  15.506  0.00  0.00    +0.000 OA
ATOM     32  H   UNL     1      46.353   1.954  17.243  0.00  0.00    +0.000 HD
ATOM     33  H   UNL     1      46.715   3.189  18.440  0.00  0.00    +0.000 HD
ENDBRANCH  23  30
ENDBRANCH  22  26
ENDBRANCH  19  22
ENDBRANCH   1  19
TORSDOF 6
ENDMDL
