MODEL 1
REMARK VINA RESULT:    -9.927      0.000      0.000
REMARK INTER + INTRA:         -14.346
REMARK INTER:                 -13.409
REMARK INTRA:                  -0.937
REMARK UNBOUND:                -0.937
REMARK  Name = 
REMARK  6 active torsions:
REMARK  status: ('A' for Active; 'I' for Inactive)
REMARK    1  A    between atoms: C_2  and  C_4
REMARK    2  A    between atoms: N_8  and  C_9
REMARK    3  A    between atoms: C_9  and  C_10
REMARK    4  A    between atoms: C_10  and  C_13
REMARK    5  A    between atoms: C_18  and  O_19
REMARK    6  A    between atoms: O_19  and  C_20
REMARK                            x       y       z     vdW  Elec       q    Type
REMARK                         _______ _______ _______ _____ _____    ______ ____
ROOT
ATOM      1  C   UNL     1      43.389   5.546  12.167  0.00  0.00    +0.000 C 
ATOM      2  F   UNL     1      42.904   6.674  11.563  0.00  0.00    +0.000 F 
ATOM      3  F   UNL     1      42.549   5.307  13.216  0.00  0.00    +0.000 F 
ENDROOT
BRANCH   1   4
ATOM      4  C   UNL     1      44.826   5.723  12.633  0.00  0.00    +0.000 A 
ATOM      5  C   UNL     1      45.546   6.885  12.319  0.00  0.00    +0.000 A 
ATOM      6  C   UNL     1      46.870   7.029  12.743  0.00  0.00    +0.000 A 
ATOM      7  C   UNL     1      47.486   6.012  13.471  0.00  0.00    +0.000 A 
ATOM      8  F   UNL     1      48.755   6.197  13.859  0.00  0.00    +0.000 F 
ATOM      9  C   UNL     1      46.793   4.847  13.789  0.00  0.00    +0.000 A 
ATOM     10  C   UNL     1      45.460   4.714  13.379  0.00  0.00    +0.000 A 
BRANCH   9  11
ATOM     11  O   UNL     1      47.282   3.785  14.509  0.00  0.00    +0.000 OA
BRANCH  11  12
ATOM     12  C   UNL     1      47.596   3.968  15.903  0.00  0.00    +0.000 C 
ATOM     13  C   UNL     1      48.435   2.874  16.583  0.00  0.00    +0.000 C 
ATOM     14  C   UNL     1      47.333   2.873  17.633  0.00  0.00    +0.000 C 
ATOM     15  O   UNL     1      46.466   3.647  16.771  0.00  0.00    +0.000 OA
ENDBRANCH  11  12
ENDBRANCH   9  11
ENDBRANCH   1   4
BRANCH   1  16
ATOM     16  C   UNL     1      43.281   4.372  11.155  0.00  0.00    +0.000 C 
BRANCH  16  21
ATOM     17  C   UNL     1      46.534   2.543   7.668  0.00  0.00    +0.000 A 
ATOM     18  C   UNL     1      45.685   1.857   8.530  0.00  0.00    +0.000 A 
ATOM     19  C   UNL     1      44.748   2.575   9.277  0.00  0.00    +0.000 A 
ATOM     20  C   UNL     1      44.688   3.962   9.165  0.00  0.00    +0.000 A 
ATOM     21  N   UNL     1      43.734   4.730   9.805  0.00  0.00    +0.000 N 
ATOM     22  N   UNL     1      45.526   4.638   8.355  0.00  0.00    +0.000 NA
ATOM     23  C   UNL     1      46.430   3.924   7.630  0.00  0.00    +0.000 A 
ATOM     24  H   UNL     1      43.967   5.713   9.665  0.00  0.00    +0.000 HD
BRANCH  17  26
ATOM     25  N   UNL     1      48.604   2.599   6.398  0.00  0.00    +0.000 N 
ATOM     26  C   UNL     1      47.527   1.863   6.811  0.00  0.00    +0.000 C 
ATOM     27  O   UNL     1      47.413   0.683   6.510  0.00  0.00    +0.000 OA
ATOM     28  H   UNL     1      49.327   2.091   5.904  0.00  0.00    +0.000 HD
ATOM     29  H   UNL     1      48.861   3.476   6.824  0.00  0.00    +0.000 HD
ENDBRANCH  17  26
ENDBRANCH  16  21
ENDBRANCH   1  16
TORSDOF 6
ENDMDL
MODEL 2
REMARK VINA RESULT:    -8.857      1.977      3.121
REMARK INTER + INTRA:         -12.900
REMARK INTER:                 -11.992
REMARK INTRA:                  -0.908
REMARK UNBOUND:                -0.937
REMARK  Name = 
REMARK  6 active torsions:
REMARK  status: ('A' for Active; 'I' for Inactive)
REMARK    1  A    between atoms: C_2  and  C_4
REMARK    2  A    between atoms: N_8  and  C_9
REMARK    3  A    between atoms: C_9  and  C_10
REMARK    4  A    between atoms: C_10  and  C_13
REMARK    5  A    between atoms: C_18  and  O_19
REMARK    6  A    between atoms: O_19  and  C_20
REMARK                            x       y       z     vdW  Elec       q    Type
REMARK                         _______ _______ _______ _____ _____    ______ ____
ROOT
ATOM      1  C   UNL     1      43.345   5.615  12.139  0.00  0.00    +0.000 C 
ATOM      2  F   UNL     1      42.930   6.737  11.476  0.00  0.00    +0.000 F 
ATOM      3  F   UNL     1      42.423   5.415  13.125  0.00  0.00    +0.000 F 
ENDROOT
BRANCH   1   4
ATOM      4  C   UNL     1      44.746   5.778  12.709  0.00  0.00    +0.000 A 
ATOM      5  C   UNL     1      45.441   4.679  13.236  0.00  0.00    +0.000 A 
ATOM      6  C   UNL     1      46.723   4.846  13.767  0.00  0.00    +0.000 A 
ATOM      7  C   UNL     1      47.312   6.110  13.787  0.00  0.00    +0.000 A 
ATOM      8  F   UNL     1      48.544   6.220  14.304  0.00  0.00    +0.000 F 
ATOM      9  C   UNL     1      46.639   7.216  13.276  0.00  0.00    +0.000 A 
ATOM     10  C   UNL     1      45.363   7.042  12.726  0.00  0.00    +0.000 A 
BRANCH   9  11
ATOM     11  O   UNL     1      47.116   8.502  13.226  0.00  0.00    +0.000 OA
BRANCH  11  12
ATOM     12  C   UNL     1      48.173   8.822  12.301  0.00  0.00    +0.000 C 
ATOM     13  C   UNL     1      48.677   7.689  11.392  0.00  0.00    +0.000 C 
ATOM     14  C   UNL     1      50.058   8.081  11.899  0.00  0.00    +0.000 C 
ATOM     15  O   UNL     1      49.478   8.884  12.954  0.00  0.00    +0.000 OA
ENDBRANCH  11  12
ENDBRANCH   9  11
ENDBRANCH   1   4
BRANCH   1  16
ATOM     16  C   UNL     1      43.292   4.420  11.147  0.00  0.00    +0.000 C 
BRANCH  16  21
ATOM     17  C   UNL     1      46.525   2.509   7.685  0.00  0.00    +0.000 A 
ATOM     18  C   UNL     1      45.652   1.845   8.541  0.00  0.00    +0.000 A 
ATOM     19  C   UNL     1      44.728   2.587   9.280  0.00  0.00    +0.000 A 
ATOM     20  C   UNL     1      44.704   3.974   9.167  0.00  0.00    +0.000 A 
ATOM     21  N   UNL     1      43.765   4.767   9.800  0.00  0.00    +0.000 N 
ATOM     22  N   UNL     1      45.566   4.629   8.364  0.00  0.00    +0.000 NA
ATOM     23  C   UNL     1      46.457   3.893   7.647  0.00  0.00    +0.000 A 
ATOM     24  H   UNL     1      44.024   5.744   9.662  0.00  0.00    +0.000 HD
BRANCH  17  26
ATOM     25  N   UNL     1      48.581   2.527   6.390  0.00  0.00    +0.000 N 
ATOM     26  C   UNL     1      47.508   1.804   6.836  0.00  0.00    +0.000 C 
ATOM     27  O   UNL     1      47.389   0.616   6.569  0.00  0.00    +0.000 OA
ATOM     28  H   UNL     1      49.298   2.003   5.903  0.00  0.00    +0.000 HD
ATOM     29  H   UNL     1      48.843   3.415   6.788  0.00  0.00    +0.000 HD
ENDBRANCH  17  26
ENDBRANCH  16  21
ENDBRANCH   1  16
TORSDOF 6
ENDMDL
MODEL 3
REMARK VINA RESULT:    -8.368      1.852      2.166
REMARK INTER + INTRA:         -12.240
REMARK INTER:                 -11.574
REMARK INTRA:                  -0.666
REMARK UNBOUND:                -0.937
REMARK  Name = 
REMARK  6 active torsions:
REMARK  status: ('A' for Active; 'I' for Inactive)
REMARK    1  A    between atoms: C_2  and  C_4
REMARK    2  A    between atoms: N_8  and  C_9
REMARK    3  A    between atoms: C_9  and  C_10
REMARK    4  A    between atoms: C_10  and  C_13
REMARK    5  A    between atoms: C_18  and  O_19
REMARK    6  A    between atoms: O_19  and  C_20
REMARK                            x       y       z     vdW  Elec       q    Type
REMARK                         _______ _______ _______ _____ _____    ______ ____
ROOT
ATOM      1  C   UNL     1      43.386   4.742  12.550  0.00  0.00    +0.000 C 
ATOM      2  F   UNL     1      42.191   5.394  12.415  0.00  0.00    +0.000 F 
ATOM      3  F   UNL     1      43.348   4.169  13.788  0.00  0.00    +0.000 F 
ENDROOT
BRANCH   1   4
ATOM      4  C   UNL     1      44.568   5.688  12.409  0.00  0.00    +0.000 A 
ATOM      5  C   UNL     1      44.464   6.863  11.649  0.00  0.00    +0.000 A 
ATOM      6  C   UNL     1      45.562   7.717  11.518  0.00  0.00    +0.000 A 
ATOM      7  C   UNL     1      46.772   7.399  12.134  0.00  0.00    +0.000 A 
ATOM      8  F   UNL     1      47.796   8.251  11.983  0.00  0.00    +0.000 F 
ATOM      9  C   UNL     1      46.902   6.236  12.887  0.00  0.00    +0.000 A 
ATOM     10  C   UNL     1      45.793   5.392  13.033  0.00  0.00    +0.000 A 
BRANCH   9  11
ATOM     11  O   UNL     1      48.030   5.822  13.550  0.00  0.00    +0.000 OA
BRANCH  11  12
ATOM     12  C   UNL     1      48.276   6.304  14.886  0.00  0.00    +0.000 C 
ATOM     13  C   UNL     1      48.401   7.825  15.071  0.00  0.00    +0.000 C 
ATOM     14  C   UNL     1      49.702   7.493  15.788  0.00  0.00    +0.000 C 
ATOM     15  O   UNL     1      49.670   6.137  15.285  0.00  0.00    +0.000 OA
ENDBRANCH  11  12
ENDBRANCH   9  11
ENDBRANCH   1   4
BRANCH   1  16
ATOM     16  C   UNL     1      43.449   3.621  11.475  0.00  0.00    +0.000 C 
BRANCH  16  21
ATOM     17  C   UNL     1      46.510   2.660   7.502  0.00  0.00    +0.000 A 
ATOM     18  C   UNL     1      45.921   1.775   8.398  0.00  0.00    +0.000 A 
ATOM     19  C   UNL     1      44.971   2.254   9.303  0.00  0.00    +0.000 A 
ATOM     20  C   UNL     1      44.641   3.606   9.309  0.00  0.00    +0.000 A 
ATOM     21  N   UNL     1      43.650   4.137  10.115  0.00  0.00    +0.000 N 
ATOM     22  N   UNL     1      45.227   4.477   8.465  0.00  0.00    +0.000 NA
ATOM     23  C   UNL     1      46.147   3.995   7.587  0.00  0.00    +0.000 A 
ATOM     24  H   UNL     1      43.677   5.153  10.028  0.00  0.00    +0.000 HD
BRANCH  17  26
ATOM     25  N   UNL     1      47.496   2.913   5.296  0.00  0.00    +0.000 N 
ATOM     26  C   UNL     1      47.494   2.236   6.484  0.00  0.00    +0.000 C 
ATOM     27  O   UNL     1      48.297   1.340   6.704  0.00  0.00    +0.000 OA
ATOM     28  H   UNL     1      48.245   2.684   4.654  0.00  0.00    +0.000 HD
ATOM     29  H   UNL     1      47.036   3.802   5.174  0.00  0.00    +0.000 HD
ENDBRANCH  17  26
ENDBRANCH  16  21
ENDBRANCH   1  16
TORSDOF 6
ENDMDL
MODEL 4
REMARK VINA RESULT:    -8.111      3.431      7.684
REMARK INTER + INTRA:         -11.893
REMARK INTER:                 -11.005
REMARK INTRA:                  -0.888
REMARK UNBOUND:                -0.937
REMARK  Name = 
REMARK  6 active torsions:
REMARK  status: ('A' for Active; 'I' for Inactive)
REMARK    1  A    between atoms: C_2  and  C_4
REMARK    2  A    between atoms: N_8  and  C_9
REMARK    3  A    between atoms: C_9  and  C_10
REMARK    4  A    between atoms: C_10  and  C_13
REMARK    5  A    between atoms: C_18  and  O_19
REMARK    6  A    between atoms: O_19  and  C_20
REMARK                            x       y       z     vdW  Elec       q    Type
REMARK                         _______ _______ _______ _____ _____    ______ ____
ROOT
ATOM      1  C   UNL     1      45.896   6.601  11.558  0.00  0.00    +0.000 C 
ATOM      2  F   UNL     1      45.103   7.670  11.243  0.00  0.00    +0.000 F 
ATOM      3  F   UNL     1      47.152   6.950  11.152  0.00  0.00    +0.000 F 
ENDROOT
BRANCH   1   4
ATOM      4  C   UNL     1      45.425   5.324  10.879  0.00  0.00    +0.000 A 
ATOM      5  C   UNL     1      44.814   4.300  11.616  0.00  0.00    +0.000 A 
ATOM      6  C   UNL     1      44.396   3.127  10.981  0.00  0.00    +0.000 A 
ATOM      7  C   UNL     1      44.598   2.965   9.610  0.00  0.00    +0.000 A 
ATOM      8  F   UNL     1      44.178   1.825   9.045  0.00  0.00    +0.000 F 
ATOM      9  C   UNL     1      45.208   3.966   8.859  0.00  0.00    +0.000 A 
ATOM     10  C   UNL     1      45.607   5.148   9.495  0.00  0.00    +0.000 A 
BRANCH   9  11
ATOM     11  O   UNL     1      45.448   3.931   7.508  0.00  0.00    +0.000 OA
BRANCH  11  12
ATOM     12  C   UNL     1      46.755   3.550   7.037  0.00  0.00    +0.000 C 
ATOM     13  C   UNL     1      46.846   2.957   5.621  0.00  0.00    +0.000 C 
ATOM     14  C   UNL     1      47.612   1.826   6.292  0.00  0.00    +0.000 C 
ATOM     15  O   UNL     1      47.197   2.278   7.602  0.00  0.00    +0.000 OA
ENDBRANCH  11  12
ENDBRANCH   9  11
ENDBRANCH   1   4
BRANCH   1  16
ATOM     16  C   UNL     1      45.891   6.435  13.103  0.00  0.00    +0.000 C 
BRANCH  16  21
ATOM     17  C   UNL     1      48.386   3.921  16.783  0.00  0.00    +0.000 A 
ATOM     18  C   UNL     1      47.447   3.450  15.871  0.00  0.00    +0.000 A 
ATOM     19  C   UNL     1      47.029   4.285  14.832  0.00  0.00    +0.000 A 
ATOM     20  C   UNL     1      47.540   5.576  14.733  0.00  0.00    +0.000 A 
ATOM     21  N   UNL     1      47.239   6.428  13.687  0.00  0.00    +0.000 N 
ATOM     22  N   UNL     1      48.427   6.052  15.628  0.00  0.00    +0.000 NA
ATOM     23  C   UNL     1      48.829   5.225  16.632  0.00  0.00    +0.000 A 
ATOM     24  H   UNL     1      47.633   7.345  13.897  0.00  0.00    +0.000 HD
BRANCH  17  26
ATOM     25  N   UNL     1      48.245   3.143  19.080  0.00  0.00    +0.000 N 
ATOM     26  C   UNL     1      48.915   3.095  17.888  0.00  0.00    +0.000 C 
ATOM     27  O   UNL     1      49.891   2.373  17.738  0.00  0.00    +0.000 OA
ATOM     28  H   UNL     1      48.554   2.491  19.791  0.00  0.00    +0.000 HD
ATOM     29  H   UNL     1      47.312   3.517  19.167  0.00  0.00    +0.000 HD
ENDBRANCH  17  26
ENDBRANCH  16  21
ENDBRANCH   1  16
TORSDOF 6
ENDMDL
MODEL 5
REMARK VINA RESULT:    -7.701      3.386      7.389
REMARK INTER + INTRA:         -11.338
REMARK INTER:                 -10.310
REMARK INTRA:                  -1.028
REMARK UNBOUND:                -0.937
REMARK  Name = 
REMARK  6 active torsions:
REMARK  status: ('A' for Active; 'I' for Inactive)
REMARK    1  A    between atoms: C_2  and  C_4
REMARK    2  A    between atoms: N_8  and  C_9
REMARK    3  A    between atoms: C_9  and  C_10
REMARK    4  A    between atoms: C_10  and  C_13
REMARK    5  A    between atoms: C_18  and  O_19
REMARK    6  A    between atoms: O_19  and  C_20
REMARK                            x       y       z     vdW  Elec       q    Type
REMARK                         _______ _______ _______ _____ _____    ______ ____
ROOT
ATOM      1  C   UNL     1      45.873   6.597  11.794  0.00  0.00    +0.000 C 
ATOM      2  F   UNL     1      45.253   7.644  11.168  0.00  0.00    +0.000 F 
ATOM      3  F   UNL     1      47.091   6.484  11.188  0.00  0.00    +0.000 F 
ENDROOT
BRANCH   1   4
ATOM      4  C   UNL     1      45.071   5.311  11.678  0.00  0.00    +0.000 A 
ATOM      5  C   UNL     1      44.251   4.877  12.731  0.00  0.00    +0.000 A 
ATOM      6  C   UNL     1      43.529   3.686  12.616  0.00  0.00    +0.000 A 
ATOM      7  C   UNL     1      43.629   2.916  11.457  0.00  0.00    +0.000 A 
ATOM      8  F   UNL     1      42.915   1.784  11.391  0.00  0.00    +0.000 F 
ATOM      9  C   UNL     1      44.441   3.324  10.402  0.00  0.00    +0.000 A 
ATOM     10  C   UNL     1      45.149   4.528  10.513  0.00  0.00    +0.000 A 
BRANCH   9  11
ATOM     11  O   UNL     1      44.612   2.665   9.210  0.00  0.00    +0.000 OA
BRANCH  11  12
ATOM     12  C   UNL     1      45.947   2.376   8.753  0.00  0.00    +0.000 C 
ATOM     13  C   UNL     1      46.314   2.829   7.329  0.00  0.00    +0.000 C 
ATOM     14  C   UNL     1      46.775   1.390   7.139  0.00  0.00    +0.000 C 
ATOM     15  O   UNL     1      46.105   0.980   8.354  0.00  0.00    +0.000 OA
ENDBRANCH  11  12
ENDBRANCH   9  11
ENDBRANCH   1   4
BRANCH   1  16
ATOM     16  C   UNL     1      46.084   6.982  13.284  0.00  0.00    +0.000 C 
BRANCH  16  21
ATOM     17  C   UNL     1      48.455   4.089  16.763  0.00  0.00    +0.000 A 
ATOM     18  C   UNL     1      47.377   3.778  15.941  0.00  0.00    +0.000 A 
ATOM     19  C   UNL     1      47.009   4.672  14.932  0.00  0.00    +0.000 A 
ATOM     20  C   UNL     1      47.709   5.865  14.776  0.00  0.00    +0.000 A 
ATOM     21  N   UNL     1      47.459   6.758  13.749  0.00  0.00    +0.000 N 
ATOM     22  N   UNL     1      48.735   6.190  15.586  0.00  0.00    +0.000 NA
ATOM     23  C   UNL     1      49.085   5.307  16.560  0.00  0.00    +0.000 A 
ATOM     24  H   UNL     1      48.010   7.599  13.915  0.00  0.00    +0.000 HD
BRANCH  17  26
ATOM     25  N   UNL     1      48.278   3.220  19.024  0.00  0.00    +0.000 N 
ATOM     26  C   UNL     1      48.939   3.187  17.827  0.00  0.00    +0.000 C 
ATOM     27  O   UNL     1      49.870   2.416  17.639  0.00  0.00    +0.000 OA
ATOM     28  H   UNL     1      48.551   2.521  19.704  0.00  0.00    +0.000 HD
ATOM     29  H   UNL     1      47.369   3.644  19.134  0.00  0.00    +0.000 HD
ENDBRANCH  17  26
ENDBRANCH  16  21
ENDBRANCH   1  16
TORSDOF 6
ENDMDL
MODEL 6
REMARK VINA RESULT:    -7.646      3.065      4.613
REMARK INTER + INTRA:         -11.265
REMARK INTER:                 -10.423
REMARK INTRA:                  -0.841
REMARK UNBOUND:                -0.937
REMARK  Name = 
REMARK  6 active torsions:
REMARK  status: ('A' for Active; 'I' for Inactive)
REMARK    1  A    between atoms: C_2  and  C_4
REMARK    2  A    between atoms: N_8  and  C_9
REMARK    3  A    between atoms: C_9  and  C_10
REMARK    4  A    between atoms: C_10  and  C_13
REMARK    5  A    between atoms: C_18  and  O_19
REMARK    6  A    between atoms: O_19  and  C_20
REMARK                            x       y       z     vdW  Elec       q    Type
REMARK                         _______ _______ _______ _____ _____    ______ ____
ROOT
ATOM      1  C   UNL     1      43.677   4.973  12.370  0.00  0.00    +0.000 C 
ATOM      2  F   UNL     1      42.485   5.495  12.792  0.00  0.00    +0.000 F 
ATOM      3  F   UNL     1      43.999   4.017  13.290  0.00  0.00    +0.000 F 
ENDROOT
BRANCH   1   4
ATOM      4  C   UNL     1      44.759   6.036  12.267  0.00  0.00    +0.000 A 
ATOM      5  C   UNL     1      46.100   5.681  12.060  0.00  0.00    +0.000 A 
ATOM      6  C   UNL     1      47.086   6.669  11.980  0.00  0.00    +0.000 A 
ATOM      7  C   UNL     1      46.742   8.013  12.119  0.00  0.00    +0.000 A 
ATOM      8  F   UNL     1      47.721   8.924  12.031  0.00  0.00    +0.000 F 
ATOM      9  C   UNL     1      45.418   8.389  12.332  0.00  0.00    +0.000 A 
ATOM     10  C   UNL     1      44.430   7.398  12.391  0.00  0.00    +0.000 A 
BRANCH   9  11
ATOM     11  O   UNL     1      44.953   9.673  12.468  0.00  0.00    +0.000 OA
BRANCH  11  12
ATOM     12  C   UNL     1      44.729  10.468  11.288  0.00  0.00    +0.000 C 
ATOM     13  C   UNL     1      43.532  11.433  11.308  0.00  0.00    +0.000 C 
ATOM     14  C   UNL     1      43.152  10.772   9.990  0.00  0.00    +0.000 C 
ATOM     15  O   UNL     1      44.096   9.700  10.218  0.00  0.00    +0.000 OA
ENDBRANCH  11  12
ENDBRANCH   9  11
ENDBRANCH   1   4
BRANCH   1  16
ATOM     16  C   UNL     1      43.445   4.291  10.993  0.00  0.00    +0.000 C 
BRANCH  16  21
ATOM     17  C   UNL     1      46.588   2.657   7.313  0.00  0.00    +0.000 A 
ATOM     18  C   UNL     1      46.356   3.951   7.767  0.00  0.00    +0.000 A 
ATOM     19  C   UNL     1      45.581   4.142   8.914  0.00  0.00    +0.000 A 
ATOM     20  C   UNL     1      45.038   3.042   9.573  0.00  0.00    +0.000 A 
ATOM     21  N   UNL     1      44.334   3.146  10.759  0.00  0.00    +0.000 N 
ATOM     22  N   UNL     1      45.232   1.787   9.125  0.00  0.00    +0.000 NA
ATOM     23  C   UNL     1      45.993   1.617   8.010  0.00  0.00    +0.000 A 
ATOM     24  H   UNL     1      43.941   2.231  10.979  0.00  0.00    +0.000 HD
BRANCH  17  26
ATOM     25  N   UNL     1      47.258   3.149   5.030  0.00  0.00    +0.000 N 
ATOM     26  C   UNL     1      47.427   2.359   6.134  0.00  0.00    +0.000 C 
ATOM     27  O   UNL     1      48.263   1.466   6.152  0.00  0.00    +0.000 OA
ATOM     28  H   UNL     1      47.914   3.002   4.273  0.00  0.00    +0.000 HD
ATOM     29  H   UNL     1      46.776   4.034   5.062  0.00  0.00    +0.000 HD
ENDBRANCH  17  26
ENDBRANCH  16  21
ENDBRANCH   1  16
TORSDOF 6
ENDMDL
MODEL 7
REMARK VINA RESULT:    -7.539      2.093      2.963
REMARK INTER + INTRA:         -11.120
REMARK INTER:                 -10.029
REMARK INTRA:                  -1.091
REMARK UNBOUND:                -0.937
REMARK  Name = 
REMARK  6 active torsions:
REMARK  status: ('A' for Active; 'I' for Inactive)
REMARK    1  A    between atoms: C_2  and  C_4
REMARK    2  A    between atoms: N_8  and  C_9
REMARK    3  A    between atoms: C_9  and  C_10
REMARK    4  A    between atoms: C_10  and  C_13
REMARK    5  A    between atoms: C_18  and  O_19
REMARK    6  A    between atoms: O_19  and  C_20
REMARK                            x       y       z     vdW  Elec       q    Type
REMARK                         _______ _______ _______ _____ _____    ______ ____
ROOT
ATOM      1  C   UNL     1      44.785   6.303  11.476  0.00  0.00    +0.000 C 
ATOM      2  F   UNL     1      45.576   6.741  10.449  0.00  0.00    +0.000 F 
ATOM      3  F   UNL     1      44.182   7.423  11.971  0.00  0.00    +0.000 F 
ENDROOT
BRANCH   1   4
ATOM      4  C   UNL     1      45.590   5.582  12.546  0.00  0.00    +0.000 A 
ATOM      5  C   UNL     1      45.228   4.297  12.976  0.00  0.00    +0.000 A 
ATOM      6  C   UNL     1      45.970   3.652  13.969  0.00  0.00    +0.000 A 
ATOM      7  C   UNL     1      47.068   4.289  14.547  0.00  0.00    +0.000 A 
ATOM      8  F   UNL     1      47.751   3.629  15.493  0.00  0.00    +0.000 F 
ATOM      9  C   UNL     1      47.441   5.567  14.141  0.00  0.00    +0.000 A 
ATOM     10  C   UNL     1      46.708   6.203  13.132  0.00  0.00    +0.000 A 
BRANCH   9  11
ATOM     11  O   UNL     1      48.505   6.290  14.621  0.00  0.00    +0.000 OA
BRANCH  11  12
ATOM     12  C   UNL     1      48.579   7.701  14.338  0.00  0.00    +0.000 C 
ATOM     13  C   UNL     1      49.923   8.244  13.824  0.00  0.00    +0.000 C 
ATOM     14  C   UNL     1      49.780   9.268  14.942  0.00  0.00    +0.000 C 
ATOM     15  O   UNL     1      48.715   8.501  15.552  0.00  0.00    +0.000 OA
ENDBRANCH  11  12
ENDBRANCH   9  11
ENDBRANCH   1   4
BRANCH   1  16
ATOM     16  C   UNL     1      43.698   5.364  10.881  0.00  0.00    +0.000 C 
BRANCH  16  21
ATOM     17  C   UNL     1      46.239   2.015   7.980  0.00  0.00    +0.000 A 
ATOM     18  C   UNL     1      45.570   1.814   9.182  0.00  0.00    +0.000 A 
ATOM     19  C   UNL     1      44.789   2.846   9.708  0.00  0.00    +0.000 A 
ATOM     20  C   UNL     1      44.706   4.062   9.036  0.00  0.00    +0.000 A 
ATOM     21  N   UNL     1      43.887   5.098   9.449  0.00  0.00    +0.000 N 
ATOM     22  N   UNL     1      45.374   4.278   7.886  0.00  0.00    +0.000 NA
ATOM     23  C   UNL     1      46.126   3.262   7.384  0.00  0.00    +0.000 A 
ATOM     24  H   UNL     1      44.087   5.914   8.872  0.00  0.00    +0.000 HD
BRANCH  17  26
ATOM     25  N   UNL     1      46.732  -0.333   7.601  0.00  0.00    +0.000 N 
ATOM     26  C   UNL     1      47.055   0.968   7.330  0.00  0.00    +0.000 C 
ATOM     27  O   UNL     1      47.959   1.249   6.556  0.00  0.00    +0.000 OA
ATOM     28  H   UNL     1      47.227  -1.035   7.065  0.00  0.00    +0.000 HD
ATOM     29  H   UNL     1      45.854  -0.602   8.019  0.00  0.00    +0.000 HD
ENDBRANCH  17  26
ENDBRANCH  16  21
ENDBRANCH   1  16
TORSDOF 6
ENDMDL
MODEL 8
REMARK VINA RESULT:    -7.007      3.661      7.596
REMARK INTER + INTRA:         -10.401
REMARK INTER:                  -9.327
REMARK INTRA:                  -1.074
REMARK UNBOUND:                -0.937
REMARK  Name = 
REMARK  6 active torsions:
REMARK  status: ('A' for Active; 'I' for Inactive)
REMARK    1  A    between atoms: C_2  and  C_4
REMARK    2  A    between atoms: N_8  and  C_9
REMARK    3  A    between atoms: C_9  and  C_10
REMARK    4  A    between atoms: C_10  and  C_13
REMARK    5  A    between atoms: C_18  and  O_19
REMARK    6  A    between atoms: O_19  and  C_20
REMARK                            x       y       z     vdW  Elec       q    Type
REMARK                         _______ _______ _______ _____ _____    ______ ____
ROOT
ATOM      1  C   UNL     1      48.533   7.895  12.184  0.00  0.00    +0.000 C 
ATOM      2  F   UNL     1      48.984   8.919  11.397  0.00  0.00    +0.000 F 
ATOM      3  F   UNL     1      49.356   6.840  11.913  0.00  0.00    +0.000 F 
ENDROOT
BRANCH   1   4
ATOM      4  C   UNL     1      47.078   7.555  11.895  0.00  0.00    +0.000 A 
ATOM      5  C   UNL     1      46.061   8.494  12.121  0.00  0.00    +0.000 A 
ATOM      6  C   UNL     1      44.728   8.164  11.862  0.00  0.00    +0.000 A 
ATOM      7  C   UNL     1      44.401   6.894  11.389  0.00  0.00    +0.000 A 
ATOM      8  F   UNL     1      43.110   6.625  11.152  0.00  0.00    +0.000 F 
ATOM      9  C   UNL     1      45.394   5.943  11.163  0.00  0.00    +0.000 A 
ATOM     10  C   UNL     1      46.730   6.284  11.405  0.00  0.00    +0.000 A 
BRANCH   9  11
ATOM     11  O   UNL     1      45.201   4.670  10.688  0.00  0.00    +0.000 OA
BRANCH  11  12
ATOM     12  C   UNL     1      44.809   4.486   9.314  0.00  0.00    +0.000 C 
ATOM     13  C   UNL     1      44.775   3.044   8.780  0.00  0.00    +0.000 C 
ATOM     14  C   UNL     1      45.636   3.588   7.649  0.00  0.00    +0.000 C 
ATOM     15  O   UNL     1      45.888   4.809   8.383  0.00  0.00    +0.000 OA
ENDBRANCH  11  12
ENDBRANCH   9  11
ENDBRANCH   1   4
BRANCH   1  16
ATOM     16  C   UNL     1      48.715   8.311  13.670  0.00  0.00    +0.000 C 
BRANCH  16  21
ATOM     17  C   UNL     1      48.004   4.384  16.858  0.00  0.00    +0.000 A 
ATOM     18  C   UNL     1      47.292   4.735  15.716  0.00  0.00    +0.000 A 
ATOM     19  C   UNL     1      47.781   5.755  14.895  0.00  0.00    +0.000 A 
ATOM     20  C   UNL     1      48.958   6.415  15.238  0.00  0.00    +0.000 A 
ATOM     21  N   UNL     1      49.547   7.373  14.434  0.00  0.00    +0.000 N 
ATOM     22  N   UNL     1      49.638   6.103  16.358  0.00  0.00    +0.000 NA
ATOM     23  C   UNL     1      49.152   5.105  17.145  0.00  0.00    +0.000 A 
ATOM     24  H   UNL     1      50.323   7.790  14.948  0.00  0.00    +0.000 HD
BRANCH  17  26
ATOM     25  N   UNL     1      48.377   3.040  18.847  0.00  0.00    +0.000 N 
ATOM     26  C   UNL     1      47.584   3.293  17.762  0.00  0.00    +0.000 C 
ATOM     27  O   UNL     1      46.553   2.664  17.570  0.00  0.00    +0.000 OA
ATOM     28  H   UNL     1      48.019   2.366  19.512  0.00  0.00    +0.000 HD
ATOM     29  H   UNL     1      49.078   3.688  19.173  0.00  0.00    +0.000 HD
ENDBRANCH  17  26
ENDBRANCH  16  21
ENDBRANCH   1  16
TORSDOF 6
ENDMDL
