MODEL 1
REMARK VINA RESULT:    -9.177      0.000      0.000
REMARK INTER + INTRA:         -13.310
REMARK INTER:                 -12.396
REMARK INTRA:                  -0.914
REMARK UNBOUND:                -0.914
REMARK  Name = 
REMARK  6 active torsions:
REMARK  status: ('A' for Active; 'I' for Inactive)
REMARK    1  A    between atoms: C_2  and  C_4
REMARK    2  A    between atoms: C_7  and  N_8
REMARK    3  A    between atoms: N_8  and  C_9
REMARK    4  A    between atoms: C_9  and  C_10
REMARK    5  A    between atoms: C_10  and  C_13
REMARK    6  A    between atoms: C_15  and  C_16
REMARK                            x       y       z     vdW  Elec       q    Type
REMARK                         _______ _______ _______ _____ _____    ______ ____
ROOT
ATOM      1  C   UNL     1      43.334   5.010  12.568  0.00  0.00    +0.000 C 
ATOM      2  F   UNL     1      42.698   6.191  12.311  0.00  0.00    +0.000 F 
ATOM      3  F   UNL     1      42.645   4.458  13.622  0.00  0.00    +0.000 F 
ENDROOT
BRANCH   1   4
ATOM      4  C   UNL     1      44.808   5.220  12.899  0.00  0.00    +0.000 A 
ATOM      5  C   UNL     1      45.436   6.397  12.493  0.00  0.00    +0.000 A 
ATOM      6  C   UNL     1      46.790   6.618  12.790  0.00  0.00    +0.000 A 
ATOM      7  C   UNL     1      47.464   5.602  13.481  0.00  0.00    +0.000 A 
ATOM      8  C   UNL     1      46.782   4.451  13.833  0.00  0.00    +0.000 A 
ATOM      9  N   UNL     1      45.480   4.242  13.564  0.00  0.00    +0.000 NA
BRANCH   6  10
ATOM     10  C   UNL     1      47.470   7.868  12.385  0.00  0.00    +0.000 A 
ATOM     11  C   UNL     1      48.752   7.872  11.814  0.00  0.00    +0.000 A 
ATOM     12  C   UNL     1      49.374   9.070  11.463  0.00  0.00    +0.000 A 
ATOM     13  C   UNL     1      48.690  10.252  11.677  0.00  0.00    +0.000 A 
ATOM     14  N   UNL     1      47.454  10.309  12.210  0.00  0.00    +0.000 NA
ATOM     15  C   UNL     1      46.884   9.127  12.554  0.00  0.00    +0.000 A 
ENDBRANCH   6  10
ENDBRANCH   1   4
BRANCH   1  16
ATOM     16  C   UNL     1      43.176   4.060  11.360  0.00  0.00    +0.000 C 
BRANCH  16  17
ATOM     17  N   UNL     1      43.712   4.610  10.100  0.00  0.00    +0.000 N 
ATOM     18  H   UNL     1      43.036   5.120   9.533  0.00  0.00    +0.000 HD
BRANCH  17  22
ATOM     19  C   UNL     1      46.410   2.353   7.780  0.00  0.00    +0.000 A 
ATOM     20  C   UNL     1      46.393   3.743   7.654  0.00  0.00    +0.000 A 
ATOM     21  C   UNL     1      45.516   4.504   8.432  0.00  0.00    +0.000 A 
ATOM     22  C   UNL     1      44.663   3.906   9.369  0.00  0.00    +0.000 A 
ATOM     23  C   UNL     1      44.678   2.509   9.464  0.00  0.00    +0.000 A 
ATOM     24  C   UNL     1      45.538   1.734   8.678  0.00  0.00    +0.000 A 
BRANCH  19  26
ATOM     25  N   UNL     1      48.398   2.115   6.401  0.00  0.00    +0.000 N 
ATOM     26  C   UNL     1      47.307   1.507   6.955  0.00  0.00    +0.000 C 
ATOM     27  O   UNL     1      47.107   0.309   6.804  0.00  0.00    +0.000 OA
ATOM     28  H   UNL     1      49.059   1.506   5.934  0.00  0.00    +0.000 HD
ATOM     29  H   UNL     1      48.727   3.020   6.706  0.00  0.00    +0.000 HD
ENDBRANCH  19  26
ENDBRANCH  17  22
ENDBRANCH  16  17
ENDBRANCH   1  16
TORSDOF 6
ENDMDL
MODEL 2
REMARK VINA RESULT:    -9.064      1.695      3.148
REMARK INTER + INTRA:         -13.157
REMARK INTER:                 -12.083
REMARK INTRA:                  -1.074
REMARK UNBOUND:                -0.914
REMARK  Name = 
REMARK  6 active torsions:
REMARK  status: ('A' for Active; 'I' for Inactive)
REMARK    1  A    between atoms: C_2  and  C_4
REMARK    2  A    between atoms: C_7  and  N_8
REMARK    3  A    between atoms: N_8  and  C_9
REMARK    4  A    between atoms: C_9  and  C_10
REMARK    5  A    between atoms: C_10  and  C_13
REMARK    6  A    between atoms: C_15  and  C_16
REMARK                            x       y       z     vdW  Elec       q    Type
REMARK                         _______ _______ _______ _____ _____    ______ ____
ROOT
ATOM      1  C   UNL     1      43.235   5.312  12.232  0.00  0.00    +0.000 C 
ATOM      2  F   UNL     1      42.434   6.342  11.830  0.00  0.00    +0.000 F 
ATOM      3  F   UNL     1      42.682   4.871  13.411  0.00  0.00    +0.000 F 
ENDROOT
BRANCH   1   4
ATOM      4  C   UNL     1      44.682   5.757  12.414  0.00  0.00    +0.000 A 
ATOM      5  C   UNL     1      45.387   5.338  13.542  0.00  0.00    +0.000 A 
ATOM      6  C   UNL     1      46.722   5.728  13.731  0.00  0.00    +0.000 A 
ATOM      7  C   UNL     1      47.286   6.562  12.756  0.00  0.00    +0.000 A 
ATOM      8  C   UNL     1      46.519   6.956  11.673  0.00  0.00    +0.000 A 
ATOM      9  N   UNL     1      45.244   6.572  11.480  0.00  0.00    +0.000 NA
BRANCH   6  10
ATOM     10  C   UNL     1      47.492   5.278  14.911  0.00  0.00    +0.000 A 
ATOM     11  C   UNL     1      47.183   4.094  15.599  0.00  0.00    +0.000 A 
ATOM     12  C   UNL     1      47.916   3.708  16.721  0.00  0.00    +0.000 A 
ATOM     13  C   UNL     1      48.963   4.513  17.130  0.00  0.00    +0.000 A 
ATOM     14  N   UNL     1      49.312   5.653  16.503  0.00  0.00    +0.000 NA
ATOM     15  C   UNL     1      48.570   6.006  15.424  0.00  0.00    +0.000 A 
ENDBRANCH   6  10
ENDBRANCH   1   4
BRANCH   1  16
ATOM     16  C   UNL     1      43.144   4.154  11.213  0.00  0.00    +0.000 C 
BRANCH  16  17
ATOM     17  N   UNL     1      43.548   4.534   9.847  0.00  0.00    +0.000 N 
ATOM     18  H   UNL     1      42.788   4.849   9.246  0.00  0.00    +0.000 HD
BRANCH  17  22
ATOM     19  C   UNL     1      46.417   2.280   7.737  0.00  0.00    +0.000 A 
ATOM     20  C   UNL     1      46.363   3.663   7.556  0.00  0.00    +0.000 A 
ATOM     21  C   UNL     1      45.428   4.424   8.265  0.00  0.00    +0.000 A 
ATOM     22  C   UNL     1      44.553   3.835   9.186  0.00  0.00    +0.000 A 
ATOM     23  C   UNL     1      44.607   2.443   9.337  0.00  0.00    +0.000 A 
ATOM     24  C   UNL     1      45.525   1.668   8.619  0.00  0.00    +0.000 A 
BRANCH  19  26
ATOM     25  N   UNL     1      48.539   2.024   6.578  0.00  0.00    +0.000 N 
ATOM     26  C   UNL     1      47.376   1.433   6.986  0.00  0.00    +0.000 C 
ATOM     27  O   UNL     1      47.160   0.248   6.771  0.00  0.00    +0.000 OA
ATOM     28  H   UNL     1      49.230   1.409   6.165  0.00  0.00    +0.000 HD
ATOM     29  H   UNL     1      48.857   2.907   6.950  0.00  0.00    +0.000 HD
ENDBRANCH  19  26
ENDBRANCH  17  22
ENDBRANCH  16  17
ENDBRANCH   1  16
TORSDOF 6
ENDMDL
MODEL 3
REMARK VINA RESULT:    -8.780      1.514      2.090
REMARK INTER + INTRA:         -12.774
REMARK INTER:                 -11.700
REMARK INTRA:                  -1.074
REMARK UNBOUND:                -0.914
REMARK  Name = 
REMARK  6 active torsions:
REMARK  status: ('A' for Active; 'I' for Inactive)
REMARK    1  A    between atoms: C_2  and  C_4
REMARK    2  A    between atoms: C_7  and  N_8
REMARK    3  A    between atoms: N_8  and  C_9
REMARK    4  A    between atoms: C_9  and  C_10
REMARK    5  A    between atoms: C_10  and  C_13
REMARK    6  A    between atoms: C_15  and  C_16
REMARK                            x       y       z     vdW  Elec       q    Type
REMARK                         _______ _______ _______ _____ _____    ______ ____
ROOT
ATOM      1  C   UNL     1      43.674   4.788  12.566  0.00  0.00    +0.000 C 
ATOM      2  F   UNL     1      42.629   4.975  13.426  0.00  0.00    +0.000 F 
ATOM      3  F   UNL     1      44.463   3.837  13.167  0.00  0.00    +0.000 F 
ENDROOT
BRANCH   1   4
ATOM      4  C   UNL     1      44.438   6.083  12.312  0.00  0.00    +0.000 A 
ATOM      5  C   UNL     1      45.739   6.213  12.797  0.00  0.00    +0.000 A 
ATOM      6  C   UNL     1      46.468   7.391  12.572  0.00  0.00    +0.000 A 
ATOM      7  C   UNL     1      45.819   8.416  11.869  0.00  0.00    +0.000 A 
ATOM      8  C   UNL     1      44.518   8.226  11.438  0.00  0.00    +0.000 A 
ATOM      9  N   UNL     1      43.822   7.091  11.637  0.00  0.00    +0.000 NA
BRANCH   6  10
ATOM     10  C   UNL     1      47.856   7.540  13.061  0.00  0.00    +0.000 A 
ATOM     11  C   UNL     1      48.768   8.423  12.463  0.00  0.00    +0.000 A 
ATOM     12  C   UNL     1      50.077   8.525  12.935  0.00  0.00    +0.000 A 
ATOM     13  C   UNL     1      50.448   7.745  14.015  0.00  0.00    +0.000 A 
ATOM     14  N   UNL     1      49.613   6.889  14.634  0.00  0.00    +0.000 NA
ATOM     15  C   UNL     1      48.352   6.805  14.141  0.00  0.00    +0.000 A 
ENDBRANCH   6  10
ENDBRANCH   1   4
BRANCH   1  16
ATOM     16  C   UNL     1      43.154   4.192  11.239  0.00  0.00    +0.000 C 
BRANCH  16  17
ATOM     17  N   UNL     1      43.804   4.757  10.041  0.00  0.00    +0.000 N 
ATOM     18  H   UNL     1      43.209   5.357   9.472  0.00  0.00    +0.000 HD
BRANCH  17  22
ATOM     19  C   UNL     1      46.412   2.371   7.747  0.00  0.00    +0.000 A 
ATOM     20  C   UNL     1      46.446   3.759   7.602  0.00  0.00    +0.000 A 
ATOM     21  C   UNL     1      45.599   4.563   8.371  0.00  0.00    +0.000 A 
ATOM     22  C   UNL     1      44.727   4.009   9.318  0.00  0.00    +0.000 A 
ATOM     23  C   UNL     1      44.690   2.613   9.432  0.00  0.00    +0.000 A 
ATOM     24  C   UNL     1      45.519   1.797   8.654  0.00  0.00    +0.000 A 
BRANCH  19  26
ATOM     25  N   UNL     1      48.350   2.055   6.313  0.00  0.00    +0.000 N 
ATOM     26  C   UNL     1      47.275   1.482   6.932  0.00  0.00    +0.000 C 
ATOM     27  O   UNL     1      47.064   0.280   6.843  0.00  0.00    +0.000 OA
ATOM     28  H   UNL     1      48.991   1.421   5.852  0.00  0.00    +0.000 HD
ATOM     29  H   UNL     1      48.695   2.971   6.564  0.00  0.00    +0.000 HD
ENDBRANCH  19  26
ENDBRANCH  17  22
ENDBRANCH  16  17
ENDBRANCH   1  16
TORSDOF 6
ENDMDL
MODEL 4
REMARK VINA RESULT:    -8.453      2.007      3.659
REMARK INTER + INTRA:         -12.333
REMARK INTER:                 -11.479
REMARK INTRA:                  -0.853
REMARK UNBOUND:                -0.914
REMARK  Name = 
REMARK  6 active torsions:
REMARK  status: ('A' for Active; 'I' for Inactive)
REMARK    1  A    between atoms: C_2  and  C_4
REMARK    2  A    between atoms: C_7  and  N_8
REMARK    3  A    between atoms: N_8  and  C_9
REMARK    4  A    between atoms: C_9  and  C_10
REMARK    5  A    between atoms: C_10  and  C_13
REMARK    6  A    between atoms: C_15  and  C_16
REMARK                            x       y       z     vdW  Elec       q    Type
REMARK                         _______ _______ _______ _____ _____    ______ ____
ROOT
ATOM      1  C   UNL     1      44.000   5.420  12.169  0.00  0.00    +0.000 C 
ATOM      2  F   UNL     1      43.554   6.322  11.245  0.00  0.00    +0.000 F 
ATOM      3  F   UNL     1      43.114   5.517  13.216  0.00  0.00    +0.000 F 
ENDROOT
BRANCH   1   4
ATOM      4  C   UNL     1      45.431   5.716  12.605  0.00  0.00    +0.000 A 
ATOM      5  C   UNL     1      45.892   5.207  13.818  0.00  0.00    +0.000 A 
ATOM      6  C   UNL     1      47.207   5.459  14.241  0.00  0.00    +0.000 A 
ATOM      7  C   UNL     1      48.003   6.254  13.405  0.00  0.00    +0.000 A 
ATOM      8  C   UNL     1      47.471   6.744  12.226  0.00  0.00    +0.000 A 
ATOM      9  N   UNL     1      46.216   6.492  11.809  0.00  0.00    +0.000 NA
BRANCH   6  10
ATOM     10  C   UNL     1      47.721   4.910  15.515  0.00  0.00    +0.000 A 
ATOM     11  C   UNL     1      47.330   3.653  16.000  0.00  0.00    +0.000 A 
ATOM     12  C   UNL     1      47.817   3.173  17.215  0.00  0.00    +0.000 A 
ATOM     13  C   UNL     1      48.707   3.960  17.923  0.00  0.00    +0.000 A 
ATOM     14  N   UNL     1      49.126   5.168  17.501  0.00  0.00    +0.000 NA
ATOM     15  C   UNL     1      48.622   5.611  16.322  0.00  0.00    +0.000 A 
ENDBRANCH   6  10
ENDBRANCH   1   4
BRANCH   1  16
ATOM     16  C   UNL     1      43.889   3.990  11.595  0.00  0.00    +0.000 C 
BRANCH  16  17
ATOM     17  N   UNL     1      43.626   3.953  10.144  0.00  0.00    +0.000 N 
ATOM     18  H   UNL     1      42.658   3.767   9.888  0.00  0.00    +0.000 HD
BRANCH  17  22
ATOM     19  C   UNL     1      46.643   2.486   7.594  0.00  0.00    +0.000 A 
ATOM     20  C   UNL     1      45.962   1.600   8.430  0.00  0.00    +0.000 A 
ATOM     21  C   UNL     1      44.946   2.071   9.267  0.00  0.00    +0.000 A 
ATOM     22  C   UNL     1      44.566   3.420   9.268  0.00  0.00    +0.000 A 
ATOM     23  C   UNL     1      45.278   4.297   8.440  0.00  0.00    +0.000 A 
ATOM     24  C   UNL     1      46.309   3.841   7.612  0.00  0.00    +0.000 A 
BRANCH  19  26
ATOM     25  N   UNL     1      48.731   2.934   6.431  0.00  0.00    +0.000 N 
ATOM     26  C   UNL     1      47.744   2.031   6.710  0.00  0.00    +0.000 C 
ATOM     27  O   UNL     1      47.794   0.888   6.276  0.00  0.00    +0.000 OA
ATOM     28  H   UNL     1      49.529   2.579   5.920  0.00  0.00    +0.000 HD
ATOM     29  H   UNL     1      48.854   3.783   6.964  0.00  0.00    +0.000 HD
ENDBRANCH  19  26
ENDBRANCH  17  22
ENDBRANCH  16  17
ENDBRANCH   1  16
TORSDOF 6
ENDMDL
MODEL 5
REMARK VINA RESULT:    -7.958      1.882      2.249
REMARK INTER + INTRA:         -11.663
REMARK INTER:                 -11.003
REMARK INTRA:                  -0.660
REMARK UNBOUND:                -0.914
REMARK  Name = 
REMARK  6 active torsions:
REMARK  status: ('A' for Active; 'I' for Inactive)
REMARK    1  A    between atoms: C_2  and  C_4
REMARK    2  A    between atoms: C_7  and  N_8
REMARK    3  A    between atoms: N_8  and  C_9
REMARK    4  A    between atoms: C_9  and  C_10
REMARK    5  A    between atoms: C_10  and  C_13
REMARK    6  A    between atoms: C_15  and  C_16
REMARK                            x       y       z     vdW  Elec       q    Type
REMARK                         _______ _______ _______ _____ _____    ______ ____
ROOT
ATOM      1  C   UNL     1      44.896   6.312  11.513  0.00  0.00    +0.000 C 
ATOM      2  F   UNL     1      45.583   6.641  10.379  0.00  0.00    +0.000 F 
ATOM      3  F   UNL     1      44.182   7.442  11.835  0.00  0.00    +0.000 F 
ENDROOT
BRANCH   1   4
ATOM      4  C   UNL     1      45.832   5.890  12.641  0.00  0.00    +0.000 A 
ATOM      5  C   UNL     1      47.004   6.613  12.860  0.00  0.00    +0.000 A 
ATOM      6  C   UNL     1      47.880   6.250  13.895  0.00  0.00    +0.000 A 
ATOM      7  C   UNL     1      47.530   5.131  14.662  0.00  0.00    +0.000 A 
ATOM      8  C   UNL     1      46.362   4.447  14.372  0.00  0.00    +0.000 A 
ATOM      9  N   UNL     1      45.512   4.801  13.392  0.00  0.00    +0.000 NA
BRANCH   6  10
ATOM     10  C   UNL     1      49.118   7.017  14.156  0.00  0.00    +0.000 A 
ATOM     11  C   UNL     1      49.755   7.005  15.406  0.00  0.00    +0.000 A 
ATOM     12  C   UNL     1      50.910   7.756  15.627  0.00  0.00    +0.000 A 
ATOM     13  C   UNL     1      51.419   8.500  14.579  0.00  0.00    +0.000 A 
ATOM     14  N   UNL     1      50.857   8.541  13.355  0.00  0.00    +0.000 NA
ATOM     15  C   UNL     1      49.728   7.810  13.179  0.00  0.00    +0.000 A 
ENDBRANCH   6  10
ENDBRANCH   1   4
BRANCH   1  16
ATOM     16  C   UNL     1      43.879   5.192  11.200  0.00  0.00    +0.000 C 
BRANCH  16  17
ATOM     17  N   UNL     1      43.775   4.872   9.764  0.00  0.00    +0.000 N 
ATOM     18  H   UNL     1      42.824   4.751   9.419  0.00  0.00    +0.000 HD
BRANCH  17  22
ATOM     19  C   UNL     1      46.446   2.273   7.798  0.00  0.00    +0.000 A 
ATOM     20  C   UNL     1      46.529   3.647   7.564  0.00  0.00    +0.000 A 
ATOM     21  C   UNL     1      45.660   4.521   8.224  0.00  0.00    +0.000 A 
ATOM     22  C   UNL     1      44.718   4.055   9.150  0.00  0.00    +0.000 A 
ATOM     23  C   UNL     1      44.635   2.671   9.354  0.00  0.00    +0.000 A 
ATOM     24  C   UNL     1      45.485   1.784   8.685  0.00  0.00    +0.000 A 
BRANCH  19  26
ATOM     25  N   UNL     1      48.430   1.820   6.467  0.00  0.00    +0.000 N 
ATOM     26  C   UNL     1      47.332   1.309   7.099  0.00  0.00    +0.000 C 
ATOM     27  O   UNL     1      47.116   0.105   7.114  0.00  0.00    +0.000 OA
ATOM     28  H   UNL     1      49.082   1.144   6.090  0.00  0.00    +0.000 HD
ATOM     29  H   UNL     1      48.772   2.754   6.645  0.00  0.00    +0.000 HD
ENDBRANCH  19  26
ENDBRANCH  17  22
ENDBRANCH  16  17
ENDBRANCH   1  16
TORSDOF 6
ENDMDL
MODEL 6
REMARK VINA RESULT:    -7.941      1.582      2.604
REMARK INTER + INTRA:         -11.641
REMARK INTER:                 -10.776
REMARK INTRA:                  -0.864
REMARK UNBOUND:                -0.914
REMARK  Name = 
REMARK  6 active torsions:
REMARK  status: ('A' for Active; 'I' for Inactive)
REMARK    1  A    between atoms: C_2  and  C_4
REMARK    2  A    between atoms: C_7  and  N_8
REMARK    3  A    between atoms: N_8  and  C_9
REMARK    4  A    between atoms: C_9  and  C_10
REMARK    5  A    between atoms: C_10  and  C_13
REMARK    6  A    between atoms: C_15  and  C_16
REMARK                            x       y       z     vdW  Elec       q    Type
REMARK                         _______ _______ _______ _____ _____    ______ ____
ROOT
ATOM      1  C   UNL     1      44.970   5.886  12.110  0.00  0.00    +0.000 C 
ATOM      2  F   UNL     1      44.248   5.659  13.247  0.00  0.00    +0.000 F 
ATOM      3  F   UNL     1      45.901   4.876  12.073  0.00  0.00    +0.000 F 
ENDROOT
BRANCH   1   4
ATOM      4  C   UNL     1      45.624   7.264  12.119  0.00  0.00    +0.000 A 
ATOM      5  C   UNL     1      47.006   7.363  11.956  0.00  0.00    +0.000 A 
ATOM      6  C   UNL     1      47.633   8.618  11.955  0.00  0.00    +0.000 A 
ATOM      7  C   UNL     1      46.813   9.739  12.146  0.00  0.00    +0.000 A 
ATOM      8  C   UNL     1      45.452   9.563  12.324  0.00  0.00    +0.000 A 
ATOM      9  N   UNL     1      44.845   8.363  12.310  0.00  0.00    +0.000 NA
BRANCH   6  10
ATOM     10  C   UNL     1      49.094   8.745  11.763  0.00  0.00    +0.000 A 
ATOM     11  C   UNL     1      49.887   7.673  11.325  0.00  0.00    +0.000 A 
ATOM     12  C   UNL     1      51.266   7.820  11.174  0.00  0.00    +0.000 A 
ATOM     13  C   UNL     1      51.829   9.051  11.452  0.00  0.00    +0.000 A 
ATOM     14  N   UNL     1      51.118  10.117  11.864  0.00  0.00    +0.000 NA
ATOM     15  C   UNL     1      49.781   9.937  12.014  0.00  0.00    +0.000 A 
ENDBRANCH   6  10
ENDBRANCH   1   4
BRANCH   1  16
ATOM     16  C   UNL     1      44.057   5.724  10.873  0.00  0.00    +0.000 C 
BRANCH  16  17
ATOM     17  N   UNL     1      43.794   4.318  10.512  0.00  0.00    +0.000 N 
ATOM     18  H   UNL     1      43.480   3.729  11.282  0.00  0.00    +0.000 HD
BRANCH  17  22
ATOM     19  C   UNL     1      46.401   2.465   7.769  0.00  0.00    +0.000 A 
ATOM     20  C   UNL     1      45.651   1.675   8.643  0.00  0.00    +0.000 A 
ATOM     21  C   UNL     1      44.769   2.278   9.545  0.00  0.00    +0.000 A 
ATOM     22  C   UNL     1      44.590   3.667   9.576  0.00  0.00    +0.000 A 
ATOM     23  C   UNL     1      45.369   4.443   8.708  0.00  0.00    +0.000 A 
ATOM     24  C   UNL     1      46.270   3.854   7.814  0.00  0.00    +0.000 A 
BRANCH  19  26
ATOM     25  N   UNL     1      48.430   2.640   6.441  0.00  0.00    +0.000 N 
ATOM     26  C   UNL     1      47.367   1.867   6.815  0.00  0.00    +0.000 C 
ATOM     27  O   UNL     1      47.245   0.720   6.405  0.00  0.00    +0.000 OA
ATOM     28  H   UNL     1      49.137   2.183   5.878  0.00  0.00    +0.000 HD
ATOM     29  H   UNL     1      48.696   3.475   6.943  0.00  0.00    +0.000 HD
ENDBRANCH  19  26
ENDBRANCH  17  22
ENDBRANCH  16  17
ENDBRANCH   1  16
TORSDOF 6
ENDMDL
MODEL 7
REMARK VINA RESULT:    -7.891      3.165      7.118
REMARK INTER + INTRA:         -11.573
REMARK INTER:                 -10.679
REMARK INTRA:                  -0.894
REMARK UNBOUND:                -0.914
REMARK  Name = 
REMARK  6 active torsions:
REMARK  status: ('A' for Active; 'I' for Inactive)
REMARK    1  A    between atoms: C_2  and  C_4
REMARK    2  A    between atoms: C_7  and  N_8
REMARK    3  A    between atoms: N_8  and  C_9
REMARK    4  A    between atoms: C_9  and  C_10
REMARK    5  A    between atoms: C_10  and  C_13
REMARK    6  A    between atoms: C_15  and  C_16
REMARK                            x       y       z     vdW  Elec       q    Type
REMARK                         _______ _______ _______ _____ _____    ______ ____
ROOT
ATOM      1  C   UNL     1      45.761   7.539  11.943  0.00  0.00    +0.000 C 
ATOM      2  F   UNL     1      45.324   7.851  13.198  0.00  0.00    +0.000 F 
ATOM      3  F   UNL     1      45.602   8.694  11.214  0.00  0.00    +0.000 F 
ENDROOT
BRANCH   1   4
ATOM      4  C   UNL     1      44.978   6.376  11.343  0.00  0.00    +0.000 A 
ATOM      5  C   UNL     1      45.611   5.523  10.439  0.00  0.00    +0.000 A 
ATOM      6  C   UNL     1      44.916   4.441   9.876  0.00  0.00    +0.000 A 
ATOM      7  C   UNL     1      43.574   4.285  10.248  0.00  0.00    +0.000 A 
ATOM      8  C   UNL     1      43.004   5.184  11.132  0.00  0.00    +0.000 A 
ATOM      9  N   UNL     1      43.672   6.213  11.686  0.00  0.00    +0.000 NA
BRANCH   6  10
ATOM     10  C   UNL     1      45.576   3.514   8.932  0.00  0.00    +0.000 A 
ATOM     11  C   UNL     1      46.268   3.967   7.798  0.00  0.00    +0.000 A 
ATOM     12  C   UNL     1      46.862   3.065   6.916  0.00  0.00    +0.000 A 
ATOM     13  C   UNL     1      46.765   1.715   7.193  0.00  0.00    +0.000 A 
ATOM     14  N   UNL     1      46.124   1.222   8.271  0.00  0.00    +0.000 NA
ATOM     15  C   UNL     1      45.546   2.126   9.101  0.00  0.00    +0.000 A 
ENDBRANCH   6  10
ENDBRANCH   1   4
BRANCH   1  16
ATOM     16  C   UNL     1      47.272   7.218  11.982  0.00  0.00    +0.000 C 
BRANCH  16  17
ATOM     17  N   UNL     1      47.873   7.362  13.321  0.00  0.00    +0.000 N 
ATOM     18  H   UNL     1      48.713   7.938  13.355  0.00  0.00    +0.000 HD
BRANCH  17  22
ATOM     19  C   UNL     1      47.748   4.293  16.205  0.00  0.00    +0.000 A 
ATOM     20  C   UNL     1      47.083   4.119  14.990  0.00  0.00    +0.000 A 
ATOM     21  C   UNL     1      47.133   5.123  14.018  0.00  0.00    +0.000 A 
ATOM     22  C   UNL     1      47.866   6.300  14.218  0.00  0.00    +0.000 A 
ATOM     23  C   UNL     1      48.507   6.466  15.453  0.00  0.00    +0.000 A 
ATOM     24  C   UNL     1      48.449   5.477  16.442  0.00  0.00    +0.000 A 
BRANCH  19  26
ATOM     25  N   UNL     1      48.877   2.958  17.895  0.00  0.00    +0.000 N 
ATOM     26  C   UNL     1      47.700   3.264  17.274  0.00  0.00    +0.000 C 
ATOM     27  O   UNL     1      46.650   2.736  17.615  0.00  0.00    +0.000 OA
ATOM     28  H   UNL     1      48.812   2.339  18.694  0.00  0.00    +0.000 HD
ATOM     29  H   UNL     1      49.698   3.543  17.820  0.00  0.00    +0.000 HD
ENDBRANCH  19  26
ENDBRANCH  17  22
ENDBRANCH  16  17
ENDBRANCH   1  16
TORSDOF 6
ENDMDL
MODEL 8
REMARK VINA RESULT:    -7.681      2.982      6.916
REMARK INTER + INTRA:         -11.289
REMARK INTER:                 -10.181
REMARK INTRA:                  -1.108
REMARK UNBOUND:                -0.914
REMARK  Name = 
REMARK  6 active torsions:
REMARK  status: ('A' for Active; 'I' for Inactive)
REMARK    1  A    between atoms: C_2  and  C_4
REMARK    2  A    between atoms: C_7  and  N_8
REMARK    3  A    between atoms: N_8  and  C_9
REMARK    4  A    between atoms: C_9  and  C_10
REMARK    5  A    between atoms: C_10  and  C_13
REMARK    6  A    between atoms: C_15  and  C_16
REMARK                            x       y       z     vdW  Elec       q    Type
REMARK                         _______ _______ _______ _____ _____    ______ ____
ROOT
ATOM      1  C   UNL     1      44.157   6.163  11.423  0.00  0.00    +0.000 C 
ATOM      2  F   UNL     1      42.892   6.679  11.395  0.00  0.00    +0.000 F 
ATOM      3  F   UNL     1      44.896   6.993  10.614  0.00  0.00    +0.000 F 
ENDROOT
BRANCH   1   4
ATOM      4  C   UNL     1      44.190   4.718  10.938  0.00  0.00    +0.000 A 
ATOM      5  C   UNL     1      44.968   4.390   9.828  0.00  0.00    +0.000 A 
ATOM      6  C   UNL     1      45.022   3.066   9.364  0.00  0.00    +0.000 A 
ATOM      7  C   UNL     1      44.249   2.120  10.050  0.00  0.00    +0.000 A 
ATOM      8  C   UNL     1      43.483   2.522  11.130  0.00  0.00    +0.000 A 
ATOM      9  N   UNL     1      43.441   3.787  11.588  0.00  0.00    +0.000 NA
BRANCH   6  10
ATOM     10  C   UNL     1      45.856   2.695   8.201  0.00  0.00    +0.000 A 
ATOM     11  C   UNL     1      46.125   3.593   7.156  0.00  0.00    +0.000 A 
ATOM     12  C   UNL     1      46.899   3.205   6.062  0.00  0.00    +0.000 A 
ATOM     13  C   UNL     1      47.407   1.919   6.040  0.00  0.00    +0.000 A 
ATOM     14  N   UNL     1      47.191   1.019   7.018  0.00  0.00    +0.000 NA
ATOM     15  C   UNL     1      46.423   1.424   8.060  0.00  0.00    +0.000 A 
ENDBRANCH   6  10
ENDBRANCH   1   4
BRANCH   1  16
ATOM     16  C   UNL     1      44.732   6.273  12.853  0.00  0.00    +0.000 C 
BRANCH  16  17
ATOM     17  N   UNL     1      45.953   5.472  13.063  0.00  0.00    +0.000 N 
ATOM     18  H   UNL     1      45.831   4.650  13.651  0.00  0.00    +0.000 HD
BRANCH  17  22
ATOM     19  C   UNL     1      49.604   7.556  13.356  0.00  0.00    +0.000 A 
ATOM     20  C   UNL     1      49.051   6.977  14.500  0.00  0.00    +0.000 A 
ATOM     21  C   UNL     1      47.850   6.267  14.412  0.00  0.00    +0.000 A 
ATOM     22  C   UNL     1      47.192   6.091  13.187  0.00  0.00    +0.000 A 
ATOM     23  C   UNL     1      47.750   6.700  12.056  0.00  0.00    +0.000 A 
ATOM     24  C   UNL     1      48.942   7.429  12.134  0.00  0.00    +0.000 A 
BRANCH  19  26
ATOM     25  N   UNL     1      51.818   8.046  12.478  0.00  0.00    +0.000 N 
ATOM     26  C   UNL     1      50.863   8.339  13.411  0.00  0.00    +0.000 C 
ATOM     27  O   UNL     1      51.033   9.234  14.228  0.00  0.00    +0.000 OA
ATOM     28  H   UNL     1      52.623   8.659  12.457  0.00  0.00    +0.000 HD
ATOM     29  H   UNL     1      51.617   7.504  11.649  0.00  0.00    +0.000 HD
ENDBRANCH  19  26
ENDBRANCH  17  22
ENDBRANCH  16  17
ENDBRANCH   1  16
TORSDOF 6
ENDMDL
MODEL 9
REMARK VINA RESULT:    -7.665      3.405      7.429
REMARK INTER + INTRA:         -11.268
REMARK INTER:                 -10.541
REMARK INTRA:                  -0.726
REMARK UNBOUND:                -0.914
REMARK  Name = 
REMARK  6 active torsions:
REMARK  status: ('A' for Active; 'I' for Inactive)
REMARK    1  A    between atoms: C_2  and  C_4
REMARK    2  A    between atoms: C_7  and  N_8
REMARK    3  A    between atoms: N_8  and  C_9
REMARK    4  A    between atoms: C_9  and  C_10
REMARK    5  A    between atoms: C_10  and  C_13
REMARK    6  A    between atoms: C_15  and  C_16
REMARK                            x       y       z     vdW  Elec       q    Type
REMARK                         _______ _______ _______ _____ _____    ______ ____
ROOT
ATOM      1  C   UNL     1      44.715   6.376  11.390  0.00  0.00    +0.000 C 
ATOM      2  F   UNL     1      43.537   7.064  11.319  0.00  0.00    +0.000 F 
ATOM      3  F   UNL     1      45.593   7.095  10.614  0.00  0.00    +0.000 F 
ENDROOT
BRANCH   1   4
ATOM      4  C   UNL     1      44.564   4.941  10.897  0.00  0.00    +0.000 A 
ATOM      5  C   UNL     1      45.285   4.525   9.779  0.00  0.00    +0.000 A 
ATOM      6  C   UNL     1      45.170   3.208   9.308  0.00  0.00    +0.000 A 
ATOM      7  C   UNL     1      44.290   2.361   9.996  0.00  0.00    +0.000 A 
ATOM      8  C   UNL     1      43.589   2.849  11.085  0.00  0.00    +0.000 A 
ATOM      9  N   UNL     1      43.709   4.106  11.549  0.00  0.00    +0.000 NA
BRANCH   6  10
ATOM     10  C   UNL     1      45.942   2.742   8.135  0.00  0.00    +0.000 A 
ATOM     11  C   UNL     1      46.211   3.575   7.038  0.00  0.00    +0.000 A 
ATOM     12  C   UNL     1      46.924   3.099   5.938  0.00  0.00    +0.000 A 
ATOM     13  C   UNL     1      47.373   1.792   5.962  0.00  0.00    +0.000 A 
ATOM     14  N   UNL     1      47.155   0.951   6.991  0.00  0.00    +0.000 NA
ATOM     15  C   UNL     1      46.446   1.441   8.039  0.00  0.00    +0.000 A 
ENDBRANCH   6  10
ENDBRANCH   1   4
BRANCH   1  16
ATOM     16  C   UNL     1      45.247   6.402  12.841  0.00  0.00    +0.000 C 
BRANCH  16  17
ATOM     17  N   UNL     1      46.621   5.884  12.977  0.00  0.00    +0.000 N 
ATOM     18  H   UNL     1      46.909   5.235  12.247  0.00  0.00    +0.000 HD
BRANCH  17  22
ATOM     19  C   UNL     1      48.320   4.847  16.690  0.00  0.00    +0.000 A 
ATOM     20  C   UNL     1      48.718   6.027  16.060  0.00  0.00    +0.000 A 
ATOM     21  C   UNL     1      48.148   6.392  14.837  0.00  0.00    +0.000 A 
ATOM     22  C   UNL     1      47.153   5.612  14.233  0.00  0.00    +0.000 A 
ATOM     23  C   UNL     1      46.784   4.419  14.869  0.00  0.00    +0.000 A 
ATOM     24  C   UNL     1      47.362   4.034  16.084  0.00  0.00    +0.000 A 
BRANCH  19  26
ATOM     25  N   UNL     1      48.234   3.471  18.694  0.00  0.00    +0.000 N 
ATOM     26  C   UNL     1      48.919   4.411  17.976  0.00  0.00    +0.000 C 
ATOM     27  O   UNL     1      49.997   4.841  18.366  0.00  0.00    +0.000 OA
ATOM     28  H   UNL     1      48.705   3.103  19.511  0.00  0.00    +0.000 HD
ATOM     29  H   UNL     1      47.490   2.919  18.292  0.00  0.00    +0.000 HD
ENDBRANCH  19  26
ENDBRANCH  17  22
ENDBRANCH  16  17
ENDBRANCH   1  16
TORSDOF 6
ENDMDL
