MODEL 1
REMARK VINA RESULT:    -9.215      0.000      0.000
REMARK INTER + INTRA:         -13.113
REMARK INTER:                 -11.908
REMARK INTRA:                  -1.205
REMARK UNBOUND:                -1.205
REMARK  Name = 
REMARK  5 active torsions:
REMARK  status: ('A' for Active; 'I' for Inactive)
REMARK    1  A    between atoms: C_2  and  C_4
REMARK    2  A    between atoms: C_7  and  N_8
REMARK    3  A    between atoms: N_8  and  C_9
REMARK    4  A    between atoms: C_9  and  C_10
REMARK    5  A    between atoms: C_14  and  C_15
REMARK                            x       y       z     vdW  Elec       q    Type
REMARK                         _______ _______ _______ _____ _____    ______ ____
ROOT
ATOM      1  C   UNL     1      43.820   4.867  11.497  0.00  0.00    +0.000 C 
ATOM      2  C   UNL     1      42.556   5.344  12.197  0.00  0.00    +0.000 C 
ATOM      3  C   UNL     1      43.118   6.150  11.078  0.00  0.00    +0.000 C 
ENDROOT
BRANCH   1   4
ATOM      4  C   UNL     1      45.182   5.057  12.156  0.00  0.00    +0.000 A 
ATOM      5  C   UNL     1      45.671   4.168  13.118  0.00  0.00    +0.000 A 
ATOM      6  C   UNL     1      46.933   4.371  13.652  0.00  0.00    +0.000 A 
ATOM      7  N   UNL     1      47.735   5.403  13.315  0.00  0.00    +0.000 NA
ATOM      8  C   UNL     1      47.259   6.296  12.415  0.00  0.00    +0.000 A 
ATOM      9  C   UNL     1      46.007   6.136  11.821  0.00  0.00    +0.000 A 
BRANCH   8  10
ATOM     10  C   UNL     1      48.142   7.429  12.077  0.00  0.00    +0.000 A 
ATOM     11  C   UNL     1      47.654   8.750  12.050  0.00  0.00    +0.000 A 
ATOM     12  C   UNL     1      48.494   9.833  11.770  0.00  0.00    +0.000 A 
ATOM     13  C   UNL     1      49.843   9.615  11.507  0.00  0.00    +0.000 A 
ATOM     14  C   UNL     1      50.333   8.317  11.513  0.00  0.00    +0.000 A 
ATOM     15  F   UNL     1      51.632   8.099  11.260  0.00  0.00    +0.000 F 
ATOM     16  C   UNL     1      49.502   7.236  11.786  0.00  0.00    +0.000 A 
ENDBRANCH   8  10
ENDBRANCH   1   4
BRANCH   1  17
ATOM     17  N   UNL     1      43.745   3.684  10.624  0.00  0.00    +0.000 N 
ATOM     18  H   UNL     1      43.206   2.885  10.941  0.00  0.00    +0.000 HD
BRANCH  17  22
ATOM     19  C   UNL     1      46.472   2.702   7.530  0.00  0.00    +0.000 A 
ATOM     20  C   UNL     1      46.057   4.023   7.693  0.00  0.00    +0.000 A 
ATOM     21  C   UNL     1      45.152   4.353   8.705  0.00  0.00    +0.000 A 
ATOM     22  C   UNL     1      44.664   3.389   9.597  0.00  0.00    +0.000 A 
ATOM     23  C   UNL     1      45.039   2.055   9.379  0.00  0.00    +0.000 A 
ATOM     24  C   UNL     1      45.932   1.709   8.356  0.00  0.00    +0.000 A 
BRANCH  19  26
ATOM     25  N   UNL     1      47.471   3.068   5.342  0.00  0.00    +0.000 N 
ATOM     26  C   UNL     1      47.457   2.317   6.488  0.00  0.00    +0.000 C 
ATOM     27  O   UNL     1      48.251   1.399   6.653  0.00  0.00    +0.000 OA
ATOM     28  H   UNL     1      48.218   2.870   4.689  0.00  0.00    +0.000 HD
ATOM     29  H   UNL     1      47.025   3.971   5.277  0.00  0.00    +0.000 HD
ENDBRANCH  19  26
ENDBRANCH  17  22
ENDBRANCH   1  17
TORSDOF 5
ENDMDL
MODEL 2
REMARK VINA RESULT:    -9.116      1.068      1.102
REMARK INTER + INTRA:         -12.986
REMARK INTER:                 -11.724
REMARK INTRA:                  -1.262
REMARK UNBOUND:                -1.205
REMARK  Name = 
REMARK  5 active torsions:
REMARK  status: ('A' for Active; 'I' for Inactive)
REMARK    1  A    between atoms: C_2  and  C_4
REMARK    2  A    between atoms: C_7  and  N_8
REMARK    3  A    between atoms: N_8  and  C_9
REMARK    4  A    between atoms: C_9  and  C_10
REMARK    5  A    between atoms: C_14  and  C_15
REMARK                            x       y       z     vdW  Elec       q    Type
REMARK                         _______ _______ _______ _____ _____    ______ ____
ROOT
ATOM      1  C   UNL     1      43.844   4.850  11.376  0.00  0.00    +0.000 C 
ATOM      2  C   UNL     1      42.592   5.394  12.047  0.00  0.00    +0.000 C 
ATOM      3  C   UNL     1      43.320   6.243  11.063  0.00  0.00    +0.000 C 
ENDROOT
BRANCH   1   4
ATOM      4  C   UNL     1      45.166   4.809  12.134  0.00  0.00    +0.000 A 
ATOM      5  C   UNL     1      45.549   3.701  12.898  0.00  0.00    +0.000 A 
ATOM      6  C   UNL     1      46.781   3.707  13.533  0.00  0.00    +0.000 A 
ATOM      7  N   UNL     1      47.651   4.737  13.479  0.00  0.00    +0.000 NA
ATOM      8  C   UNL     1      47.276   5.833  12.777  0.00  0.00    +0.000 A 
ATOM      9  C   UNL     1      46.061   5.883  12.095  0.00  0.00    +0.000 A 
BRANCH   8  10
ATOM     10  C   UNL     1      48.231   6.958  12.749  0.00  0.00    +0.000 A 
ATOM     11  C   UNL     1      48.319   7.812  11.632  0.00  0.00    +0.000 A 
ATOM     12  C   UNL     1      49.193   8.904  11.614  0.00  0.00    +0.000 A 
ATOM     13  C   UNL     1      50.004   9.162  12.716  0.00  0.00    +0.000 A 
ATOM     14  C   UNL     1      49.940   8.319  13.816  0.00  0.00    +0.000 A 
ATOM     15  F   UNL     1      50.719   8.560  14.880  0.00  0.00    +0.000 F 
ATOM     16  C   UNL     1      49.076   7.228  13.837  0.00  0.00    +0.000 A 
ENDBRANCH   8  10
ENDBRANCH   1   4
BRANCH   1  17
ATOM     17  N   UNL     1      43.704   3.782  10.372  0.00  0.00    +0.000 N 
ATOM     18  H   UNL     1      43.023   3.049  10.540  0.00  0.00    +0.000 HD
BRANCH  17  22
ATOM     19  C   UNL     1      46.619   2.688   7.495  0.00  0.00    +0.000 A 
ATOM     20  C   UNL     1      46.217   4.019   7.600  0.00  0.00    +0.000 A 
ATOM     21  C   UNL     1      45.250   4.386   8.540  0.00  0.00    +0.000 A 
ATOM     22  C   UNL     1      44.687   3.450   9.417  0.00  0.00    +0.000 A 
ATOM     23  C   UNL     1      45.052   2.106   9.254  0.00  0.00    +0.000 A 
ATOM     24  C   UNL     1      46.008   1.723   8.303  0.00  0.00    +0.000 A 
BRANCH  19  26
ATOM     25  N   UNL     1      47.823   3.034   5.409  0.00  0.00    +0.000 N 
ATOM     26  C   UNL     1      47.666   2.265   6.531  0.00  0.00    +0.000 C 
ATOM     27  O   UNL     1      48.388   1.297   6.741  0.00  0.00    +0.000 OA
ATOM     28  H   UNL     1      48.611   2.804   4.818  0.00  0.00    +0.000 HD
ATOM     29  H   UNL     1      47.438   3.964   5.328  0.00  0.00    +0.000 HD
ENDBRANCH  19  26
ENDBRANCH  17  22
ENDBRANCH   1  17
TORSDOF 5
ENDMDL
MODEL 3
REMARK VINA RESULT:    -9.017      2.546      3.830
REMARK INTER + INTRA:         -12.857
REMARK INTER:                 -12.347
REMARK INTRA:                  -0.510
REMARK UNBOUND:                -1.205
REMARK  Name = 
REMARK  5 active torsions:
REMARK  status: ('A' for Active; 'I' for Inactive)
REMARK    1  A    between atoms: C_2  and  C_4
REMARK    2  A    between atoms: C_7  and  N_8
REMARK    3  A    between atoms: N_8  and  C_9
REMARK    4  A    between atoms: C_9  and  C_10
REMARK    5  A    between atoms: C_14  and  C_15
REMARK                            x       y       z     vdW  Elec       q    Type
REMARK                         _______ _______ _______ _____ _____    ______ ____
ROOT
ATOM      1  C   UNL     1      43.921   4.983  11.429  0.00  0.00    +0.000 C 
ATOM      2  C   UNL     1      43.082   4.048  12.286  0.00  0.00    +0.000 C 
ATOM      3  C   UNL     1      42.685   5.478  12.162  0.00  0.00    +0.000 C 
ENDROOT
BRANCH   1   4
ATOM      4  C   UNL     1      45.248   5.523  11.953  0.00  0.00    +0.000 A 
ATOM      5  C   UNL     1      46.021   6.429  11.220  0.00  0.00    +0.000 A 
ATOM      6  C   UNL     1      47.198   6.914  11.767  0.00  0.00    +0.000 A 
ATOM      7  N   UNL     1      47.671   6.552  12.977  0.00  0.00    +0.000 NA
ATOM      8  C   UNL     1      46.955   5.644  13.681  0.00  0.00    +0.000 A 
ATOM      9  C   UNL     1      45.749   5.135  13.200  0.00  0.00    +0.000 A 
BRANCH   8  10
ATOM     10  C   UNL     1      47.501   5.244  14.992  0.00  0.00    +0.000 A 
ATOM     11  C   UNL     1      48.457   6.037  15.656  0.00  0.00    +0.000 A 
ATOM     12  C   UNL     1      48.950   5.686  16.917  0.00  0.00    +0.000 A 
ATOM     13  C   UNL     1      48.497   4.526  17.540  0.00  0.00    +0.000 A 
ATOM     14  C   UNL     1      47.569   3.727  16.891  0.00  0.00    +0.000 A 
ATOM     15  F   UNL     1      47.129   2.608  17.484  0.00  0.00    +0.000 F 
ATOM     16  C   UNL     1      47.079   4.069  15.634  0.00  0.00    +0.000 A 
ENDBRANCH   8  10
ENDBRANCH   1   4
BRANCH   1  17
ATOM     17  N   UNL     1      43.882   4.830   9.965  0.00  0.00    +0.000 N 
ATOM     18  H   UNL     1      43.046   5.125   9.472  0.00  0.00    +0.000 HD
BRANCH  17  22
ATOM     19  C   UNL     1      46.431   2.268   7.748  0.00  0.00    +0.000 A 
ATOM     20  C   UNL     1      45.551   1.726   8.685  0.00  0.00    +0.000 A 
ATOM     21  C   UNL     1      44.714   2.565   9.425  0.00  0.00    +0.000 A 
ATOM     22  C   UNL     1      44.707   3.952   9.231  0.00  0.00    +0.000 A 
ATOM     23  C   UNL     1      45.643   4.487   8.335  0.00  0.00    +0.000 A 
ATOM     24  C   UNL     1      46.501   3.658   7.599  0.00  0.00    +0.000 A 
BRANCH  19  26
ATOM     25  N   UNL     1      48.395   2.010   6.336  0.00  0.00    +0.000 N 
ATOM     26  C   UNL     1      47.313   1.407   6.919  0.00  0.00    +0.000 C 
ATOM     27  O   UNL     1      47.112   0.206   6.792  0.00  0.00    +0.000 OA
ATOM     28  H   UNL     1      49.049   1.395   5.869  0.00  0.00    +0.000 HD
ATOM     29  H   UNL     1      48.734   2.917   6.622  0.00  0.00    +0.000 HD
ENDBRANCH  19  26
ENDBRANCH  17  22
ENDBRANCH   1  17
TORSDOF 5
ENDMDL
MODEL 4
REMARK VINA RESULT:    -8.235      3.745      7.298
REMARK INTER + INTRA:         -11.847
REMARK INTER:                 -10.795
REMARK INTRA:                  -1.053
REMARK UNBOUND:                -1.205
REMARK  Name = 
REMARK  5 active torsions:
REMARK  status: ('A' for Active; 'I' for Inactive)
REMARK    1  A    between atoms: C_2  and  C_4
REMARK    2  A    between atoms: C_7  and  N_8
REMARK    3  A    between atoms: N_8  and  C_9
REMARK    4  A    between atoms: C_9  and  C_10
REMARK    5  A    between atoms: C_14  and  C_15
REMARK                            x       y       z     vdW  Elec       q    Type
REMARK                         _______ _______ _______ _____ _____    ______ ____
ROOT
ATOM      1  C   UNL     1      46.099   7.212  12.052  0.00  0.00    +0.000 C 
ATOM      2  C   UNL     1      46.010   8.682  11.671  0.00  0.00    +0.000 C 
ATOM      3  C   UNL     1      45.294   8.198  12.883  0.00  0.00    +0.000 C 
ENDROOT
BRANCH   1   4
ATOM      4  C   UNL     1      45.275   6.173  11.299  0.00  0.00    +0.000 A 
ATOM      5  C   UNL     1      43.911   5.985  11.547  0.00  0.00    +0.000 A 
ATOM      6  C   UNL     1      43.208   5.052  10.804  0.00  0.00    +0.000 A 
ATOM      7  N   UNL     1      43.762   4.280   9.846  0.00  0.00    +0.000 NA
ATOM      8  C   UNL     1      45.091   4.420   9.623  0.00  0.00    +0.000 A 
ATOM      9  C   UNL     1      45.852   5.358  10.319  0.00  0.00    +0.000 A 
BRANCH   8  10
ATOM     10  C   UNL     1      45.682   3.551   8.588  0.00  0.00    +0.000 A 
ATOM     11  C   UNL     1      46.247   4.093   7.417  0.00  0.00    +0.000 A 
ATOM     12  C   UNL     1      46.846   3.279   6.450  0.00  0.00    +0.000 A 
ATOM     13  C   UNL     1      46.888   1.899   6.633  0.00  0.00    +0.000 A 
ATOM     14  C   UNL     1      46.319   1.350   7.773  0.00  0.00    +0.000 A 
ATOM     15  F   UNL     1      46.355   0.023   7.957  0.00  0.00    +0.000 F 
ATOM     16  C   UNL     1      45.718   2.155   8.736  0.00  0.00    +0.000 A 
ENDBRANCH   8  10
ENDBRANCH   1   4
BRANCH   1  17
ATOM     17  N   UNL     1      47.371   6.691  12.579  0.00  0.00    +0.000 N 
ATOM     18  H   UNL     1      48.128   6.518  11.927  0.00  0.00    +0.000 HD
BRANCH  17  22
ATOM     19  C   UNL     1      47.773   4.608  16.250  0.00  0.00    +0.000 A 
ATOM     20  C   UNL     1      48.440   5.818  16.065  0.00  0.00    +0.000 A 
ATOM     21  C   UNL     1      48.320   6.506  14.854  0.00  0.00    +0.000 A 
ATOM     22  C   UNL     1      47.510   6.028  13.816  0.00  0.00    +0.000 A 
ATOM     23  C   UNL     1      46.899   4.778  13.992  0.00  0.00    +0.000 A 
ATOM     24  C   UNL     1      47.027   4.069  15.195  0.00  0.00    +0.000 A 
BRANCH  19  26
ATOM     25  N   UNL     1      47.012   2.790  17.677  0.00  0.00    +0.000 N 
ATOM     26  C   UNL     1      47.850   3.863  17.532  0.00  0.00    +0.000 C 
ATOM     27  O   UNL     1      48.652   4.164  18.408  0.00  0.00    +0.000 OA
ATOM     28  H   UNL     1      47.152   2.224  18.504  0.00  0.00    +0.000 HD
ATOM     29  H   UNL     1      46.536   2.362  16.897  0.00  0.00    +0.000 HD
ENDBRANCH  19  26
ENDBRANCH  17  22
ENDBRANCH   1  17
TORSDOF 5
ENDMDL
MODEL 5
REMARK VINA RESULT:    -8.046      1.498      2.037
REMARK INTER + INTRA:         -11.602
REMARK INTER:                 -10.876
REMARK INTRA:                  -0.726
REMARK UNBOUND:                -1.205
REMARK  Name = 
REMARK  5 active torsions:
REMARK  status: ('A' for Active; 'I' for Inactive)
REMARK    1  A    between atoms: C_2  and  C_4
REMARK    2  A    between atoms: C_7  and  N_8
REMARK    3  A    between atoms: N_8  and  C_9
REMARK    4  A    between atoms: C_9  and  C_10
REMARK    5  A    between atoms: C_14  and  C_15
REMARK                            x       y       z     vdW  Elec       q    Type
REMARK                         _______ _______ _______ _____ _____    ______ ____
ROOT
ATOM      1  C   UNL     1      44.012   5.184  11.507  0.00  0.00    +0.000 C 
ATOM      2  C   UNL     1      44.220   4.123  12.577  0.00  0.00    +0.000 C 
ATOM      3  C   UNL     1      42.954   4.907  12.564  0.00  0.00    +0.000 C 
ENDROOT
BRANCH   1   4
ATOM      4  C   UNL     1      44.706   6.537  11.621  0.00  0.00    +0.000 A 
ATOM      5  C   UNL     1      44.017   7.741  11.443  0.00  0.00    +0.000 A 
ATOM      6  C   UNL     1      44.694   8.940  11.598  0.00  0.00    +0.000 A 
ATOM      7  N   UNL     1      46.006   9.030  11.898  0.00  0.00    +0.000 NA
ATOM      8  C   UNL     1      46.696   7.872  12.033  0.00  0.00    +0.000 A 
ATOM      9  C   UNL     1      46.070   6.632  11.914  0.00  0.00    +0.000 A 
BRANCH   8  10
ATOM     10  C   UNL     1      48.135   7.992  12.338  0.00  0.00    +0.000 A 
ATOM     11  C   UNL     1      48.579   8.343  13.628  0.00  0.00    +0.000 A 
ATOM     12  C   UNL     1      49.941   8.420  13.936  0.00  0.00    +0.000 A 
ATOM     13  C   UNL     1      50.891   8.150  12.954  0.00  0.00    +0.000 A 
ATOM     14  C   UNL     1      50.468   7.821  11.675  0.00  0.00    +0.000 A 
ATOM     15  F   UNL     1      51.376   7.560  10.725  0.00  0.00    +0.000 F 
ATOM     16  C   UNL     1      49.114   7.747  11.362  0.00  0.00    +0.000 A 
ENDBRANCH   8  10
ENDBRANCH   1   4
BRANCH   1  17
ATOM     17  N   UNL     1      43.776   4.754  10.118  0.00  0.00    +0.000 N 
ATOM     18  H   UNL     1      42.819   4.680   9.793  0.00  0.00    +0.000 HD
BRANCH  17  22
ATOM     19  C   UNL     1      46.522   2.559   7.748  0.00  0.00    +0.000 A 
ATOM     20  C   UNL     1      46.515   3.952   7.686  0.00  0.00    +0.000 A 
ATOM     21  C   UNL     1      45.607   4.683   8.458  0.00  0.00    +0.000 A 
ATOM     22  C   UNL     1      44.711   4.051   9.331  0.00  0.00    +0.000 A 
ATOM     23  C   UNL     1      44.685   2.649   9.332  0.00  0.00    +0.000 A 
ATOM     24  C   UNL     1      45.579   1.905   8.549  0.00  0.00    +0.000 A 
BRANCH  19  26
ATOM     25  N   UNL     1      48.459   2.435   6.281  0.00  0.00    +0.000 N 
ATOM     26  C   UNL     1      47.492   1.750   6.968  0.00  0.00    +0.000 C 
ATOM     27  O   UNL     1      47.462   0.525   6.967  0.00  0.00    +0.000 OA
ATOM     28  H   UNL     1      49.180   1.873   5.847  0.00  0.00    +0.000 HD
ATOM     29  H   UNL     1      48.673   3.405   6.463  0.00  0.00    +0.000 HD
ENDBRANCH  19  26
ENDBRANCH  17  22
ENDBRANCH   1  17
TORSDOF 5
ENDMDL
MODEL 6
REMARK VINA RESULT:    -7.910      3.440      7.245
REMARK INTER + INTRA:         -11.426
REMARK INTER:                 -10.436
REMARK INTRA:                  -0.990
REMARK UNBOUND:                -1.205
REMARK  Name = 
REMARK  5 active torsions:
REMARK  status: ('A' for Active; 'I' for Inactive)
REMARK    1  A    between atoms: C_2  and  C_4
REMARK    2  A    between atoms: C_7  and  N_8
REMARK    3  A    between atoms: N_8  and  C_9
REMARK    4  A    between atoms: C_9  and  C_10
REMARK    5  A    between atoms: C_14  and  C_15
REMARK                            x       y       z     vdW  Elec       q    Type
REMARK                         _______ _______ _______ _____ _____    ______ ____
ROOT
ATOM      1  C   UNL     1      46.346   7.392  12.228  0.00  0.00    +0.000 C 
ATOM      2  C   UNL     1      46.414   8.855  11.815  0.00  0.00    +0.000 C 
ATOM      3  C   UNL     1      45.650   8.476  13.037  0.00  0.00    +0.000 C 
ENDROOT
BRANCH   1   4
ATOM      4  C   UNL     1      45.416   6.430  11.497  0.00  0.00    +0.000 A 
ATOM      5  C   UNL     1      44.036   6.418  11.721  0.00  0.00    +0.000 A 
ATOM      6  C   UNL     1      43.238   5.546  10.998  0.00  0.00    +0.000 A 
ATOM      7  N   UNL     1      43.712   4.675  10.083  0.00  0.00    +0.000 NA
ATOM      8  C   UNL     1      45.052   4.646   9.885  0.00  0.00    +0.000 A 
ATOM      9  C   UNL     1      45.908   5.513  10.563  0.00  0.00    +0.000 A 
BRANCH   8  10
ATOM     10  C   UNL     1      45.553   3.670   8.898  0.00  0.00    +0.000 A 
ATOM     11  C   UNL     1      45.540   2.288   9.169  0.00  0.00    +0.000 A 
ATOM     12  C   UNL     1      45.975   1.353   8.223  0.00  0.00    +0.000 A 
ATOM     13  C   UNL     1      46.438   1.786   6.983  0.00  0.00    +0.000 A 
ATOM     14  C   UNL     1      46.473   3.145   6.710  0.00  0.00    +0.000 A 
ATOM     15  F   UNL     1      46.918   3.569   5.518  0.00  0.00    +0.000 F 
ATOM     16  C   UNL     1      46.045   4.079   7.649  0.00  0.00    +0.000 A 
ENDBRANCH   8  10
ENDBRANCH   1   4
BRANCH   1  17
ATOM     17  N   UNL     1      47.556   6.751  12.769  0.00  0.00    +0.000 N 
ATOM     18  H   UNL     1      48.335   6.584  12.141  0.00  0.00    +0.000 HD
BRANCH  17  22
ATOM     19  C   UNL     1      47.651   4.354  16.265  0.00  0.00    +0.000 A 
ATOM     20  C   UNL     1      48.321   5.577  16.247  0.00  0.00    +0.000 A 
ATOM     21  C   UNL     1      48.302   6.368  15.095  0.00  0.00    +0.000 A 
ATOM     22  C   UNL     1      47.592   5.982  13.951  0.00  0.00    +0.000 A 
ATOM     23  C   UNL     1      46.979   4.721  13.962  0.00  0.00    +0.000 A 
ATOM     24  C   UNL     1      47.007   3.909  15.105  0.00  0.00    +0.000 A 
BRANCH  19  26
ATOM     25  N   UNL     1      48.591   3.727  18.419  0.00  0.00    +0.000 N 
ATOM     26  C   UNL     1      47.622   3.500  17.479  0.00  0.00    +0.000 C 
ATOM     27  O   UNL     1      46.751   2.657  17.659  0.00  0.00    +0.000 OA
ATOM     28  H   UNL     1      48.495   3.220  19.290  0.00  0.00    +0.000 HD
ATOM     29  H   UNL     1      49.154   4.566  18.430  0.00  0.00    +0.000 HD
ENDBRANCH  19  26
ENDBRANCH  17  22
ENDBRANCH   1  17
TORSDOF 5
ENDMDL
MODEL 7
REMARK VINA RESULT:    -7.579      2.929      3.651
REMARK INTER + INTRA:         -10.999
REMARK INTER:                 -10.185
REMARK INTRA:                  -0.814
REMARK UNBOUND:                -1.205
REMARK  Name = 
REMARK  5 active torsions:
REMARK  status: ('A' for Active; 'I' for Inactive)
REMARK    1  A    between atoms: C_2  and  C_4
REMARK    2  A    between atoms: C_7  and  N_8
REMARK    3  A    between atoms: N_8  and  C_9
REMARK    4  A    between atoms: C_9  and  C_10
REMARK    5  A    between atoms: C_14  and  C_15
REMARK                            x       y       z     vdW  Elec       q    Type
REMARK                         _______ _______ _______ _____ _____    ______ ____
ROOT
ATOM      1  C   UNL     1      44.176   3.983  11.820  0.00  0.00    +0.000 C 
ATOM      2  C   UNL     1      44.351   2.863  12.835  0.00  0.00    +0.000 C 
ATOM      3  C   UNL     1      43.149   3.740  12.915  0.00  0.00    +0.000 C 
ENDROOT
BRANCH   1   4
ATOM      4  C   UNL     1      44.977   5.274  11.955  0.00  0.00    +0.000 A 
ATOM      5  C   UNL     1      46.291   5.285  12.433  0.00  0.00    +0.000 A 
ATOM      6  C   UNL     1      46.981   6.485  12.497  0.00  0.00    +0.000 A 
ATOM      7  N   UNL     1      46.455   7.675  12.137  0.00  0.00    +0.000 NA
ATOM      8  C   UNL     1      45.169   7.686  11.712  0.00  0.00    +0.000 A 
ATOM      9  C   UNL     1      44.428   6.510  11.601  0.00  0.00    +0.000 A 
BRANCH   8  10
ATOM     10  C   UNL     1      44.606   9.000  11.346  0.00  0.00    +0.000 A 
ATOM     11  C   UNL     1      45.343  10.186  11.533  0.00  0.00    +0.000 A 
ATOM     12  C   UNL     1      44.832  11.431  11.151  0.00  0.00    +0.000 A 
ATOM     13  C   UNL     1      43.567  11.515  10.578  0.00  0.00    +0.000 A 
ATOM     14  C   UNL     1      42.823  10.358  10.404  0.00  0.00    +0.000 A 
ATOM     15  F   UNL     1      41.603  10.431   9.853  0.00  0.00    +0.000 F 
ATOM     16  C   UNL     1      43.324   9.117  10.786  0.00  0.00    +0.000 A 
ENDBRANCH   8  10
ENDBRANCH   1   4
BRANCH   1  17
ATOM     17  N   UNL     1      43.846   3.635  10.428  0.00  0.00    +0.000 N 
ATOM     18  H   UNL     1      42.907   3.313  10.222  0.00  0.00    +0.000 HD
BRANCH  17  22
ATOM     19  C   UNL     1      46.666   2.573   7.445  0.00  0.00    +0.000 A 
ATOM     20  C   UNL     1      46.287   3.907   7.595  0.00  0.00    +0.000 A 
ATOM     21  C   UNL     1      45.352   4.263   8.571  0.00  0.00    +0.000 A 
ATOM     22  C   UNL     1      44.798   3.313   9.438  0.00  0.00    +0.000 A 
ATOM     23  C   UNL     1      45.137   1.969   9.231  0.00  0.00    +0.000 A 
ATOM     24  C   UNL     1      46.061   1.596   8.245  0.00  0.00    +0.000 A 
BRANCH  19  26
ATOM     25  N   UNL     1      48.853   2.865   6.421  0.00  0.00    +0.000 N 
ATOM     26  C   UNL     1      47.680   2.160   6.443  0.00  0.00    +0.000 C 
ATOM     27  O   UNL     1      47.500   1.207   5.694  0.00  0.00    +0.000 OA
ATOM     28  H   UNL     1      49.579   2.505   5.815  0.00  0.00    +0.000 HD
ATOM     29  H   UNL     1      49.139   3.472   7.177  0.00  0.00    +0.000 HD
ENDBRANCH  19  26
ENDBRANCH  17  22
ENDBRANCH   1  17
TORSDOF 5
ENDMDL
MODEL 8
REMARK VINA RESULT:    -6.915      3.241      6.900
REMARK INTER + INTRA:         -10.141
REMARK INTER:                  -9.091
REMARK INTRA:                  -1.050
REMARK UNBOUND:                -1.205
REMARK  Name = 
REMARK  5 active torsions:
REMARK  status: ('A' for Active; 'I' for Inactive)
REMARK    1  A    between atoms: C_2  and  C_4
REMARK    2  A    between atoms: C_7  and  N_8
REMARK    3  A    between atoms: N_8  and  C_9
REMARK    4  A    between atoms: C_9  and  C_10
REMARK    5  A    between atoms: C_14  and  C_15
REMARK                            x       y       z     vdW  Elec       q    Type
REMARK                         _______ _______ _______ _____ _____    ______ ____
ROOT
ATOM      1  C   UNL     1      46.046   5.092  13.443  0.00  0.00    +0.000 C 
ATOM      2  C   UNL     1      45.875   4.314  14.738  0.00  0.00    +0.000 C 
ATOM      3  C   UNL     1      47.050   4.033  13.868  0.00  0.00    +0.000 C 
ENDROOT
BRANCH   1   4
ATOM      4  C   UNL     1      45.209   4.740  12.218  0.00  0.00    +0.000 A 
ATOM      5  C   UNL     1      43.839   5.015  12.151  0.00  0.00    +0.000 A 
ATOM      6  C   UNL     1      43.140   4.707  10.996  0.00  0.00    +0.000 A 
ATOM      7  N   UNL     1      43.696   4.129   9.910  0.00  0.00    +0.000 NA
ATOM      8  C   UNL     1      45.013   3.819   9.976  0.00  0.00    +0.000 A 
ATOM      9  C   UNL     1      45.780   4.124  11.099  0.00  0.00    +0.000 A 
BRANCH   8  10
ATOM     10  C   UNL     1      45.597   3.167   8.787  0.00  0.00    +0.000 A 
ATOM     11  C   UNL     1      45.960   3.915   7.651  0.00  0.00    +0.000 A 
ATOM     12  C   UNL     1      46.552   3.311   6.536  0.00  0.00    +0.000 A 
ATOM     13  C   UNL     1      46.789   1.939   6.535  0.00  0.00    +0.000 A 
ATOM     14  C   UNL     1      46.420   1.187   7.641  0.00  0.00    +0.000 A 
ATOM     15  F   UNL     1      46.645  -0.134   7.647  0.00  0.00    +0.000 F 
ATOM     16  C   UNL     1      45.827   1.783   8.750  0.00  0.00    +0.000 A 
ENDBRANCH   8  10
ENDBRANCH   1   4
BRANCH   1  17
ATOM     17  N   UNL     1      46.422   6.515  13.513  0.00  0.00    +0.000 N 
ATOM     18  H   UNL     1      45.682   7.208  13.540  0.00  0.00    +0.000 HD
BRANCH  17  22
ATOM     19  C   UNL     1      50.162   8.104  12.305  0.00  0.00    +0.000 A 
ATOM     20  C   UNL     1      49.941   7.802  13.649  0.00  0.00    +0.000 A 
ATOM     21  C   UNL     1      48.707   7.286  14.056  0.00  0.00    +0.000 A 
ATOM     22  C   UNL     1      47.681   7.027  13.138  0.00  0.00    +0.000 A 
ATOM     23  C   UNL     1      47.895   7.398  11.803  0.00  0.00    +0.000 A 
ATOM     24  C   UNL     1      49.122   7.934  11.385  0.00  0.00    +0.000 A 
BRANCH  19  26
ATOM     25  N   UNL     1      52.555   7.803  11.982  0.00  0.00    +0.000 N 
ATOM     26  C   UNL     1      51.469   8.623  11.829  0.00  0.00    +0.000 C 
ATOM     27  O   UNL     1      51.574   9.717  11.287  0.00  0.00    +0.000 OA
ATOM     28  H   UNL     1      53.416   8.118  11.554  0.00  0.00    +0.000 HD
ATOM     29  H   UNL     1      52.468   6.816  12.179  0.00  0.00    +0.000 HD
ENDBRANCH  19  26
ENDBRANCH  17  22
ENDBRANCH   1  17
TORSDOF 5
ENDMDL
MODEL 9
REMARK VINA RESULT:    -6.883      3.731      6.027
REMARK INTER + INTRA:         -10.100
REMARK INTER:                  -9.082
REMARK INTRA:                  -1.018
REMARK UNBOUND:                -1.205
REMARK  Name = 
REMARK  5 active torsions:
REMARK  status: ('A' for Active; 'I' for Inactive)
REMARK    1  A    between atoms: C_2  and  C_4
REMARK    2  A    between atoms: C_7  and  N_8
REMARK    3  A    between atoms: N_8  and  C_9
REMARK    4  A    between atoms: C_9  and  C_10
REMARK    5  A    between atoms: C_14  and  C_15
REMARK                            x       y       z     vdW  Elec       q    Type
REMARK                         _______ _______ _______ _____ _____    ______ ____
ROOT
ATOM      1  C   UNL     1      47.820   8.167  12.580  0.00  0.00    +0.000 C 
ATOM      2  C   UNL     1      48.651   9.092  11.703  0.00  0.00    +0.000 C 
ATOM      3  C   UNL     1      48.872   7.621  11.627  0.00  0.00    +0.000 C 
ENDROOT
BRANCH   1   4
ATOM      4  C   UNL     1      48.145   8.018  14.062  0.00  0.00    +0.000 A 
ATOM      5  C   UNL     1      48.278   9.124  14.907  0.00  0.00    +0.000 A 
ATOM      6  C   UNL     1      48.535   8.923  16.254  0.00  0.00    +0.000 A 
ATOM      7  N   UNL     1      48.687   7.706  16.818  0.00  0.00    +0.000 NA
ATOM      8  C   UNL     1      48.602   6.627  16.004  0.00  0.00    +0.000 A 
ATOM      9  C   UNL     1      48.321   6.758  14.644  0.00  0.00    +0.000 A 
BRANCH   8  10
ATOM     10  C   UNL     1      48.794   5.307  16.635  0.00  0.00    +0.000 A 
ATOM     11  C   UNL     1      50.067   4.883  17.065  0.00  0.00    +0.000 A 
ATOM     12  C   UNL     1      50.251   3.651  17.701  0.00  0.00    +0.000 A 
ATOM     13  C   UNL     1      49.161   2.812  17.916  0.00  0.00    +0.000 A 
ATOM     14  C   UNL     1      47.905   3.208  17.482  0.00  0.00    +0.000 A 
ATOM     15  F   UNL     1      46.851   2.405  17.685  0.00  0.00    +0.000 F 
ATOM     16  C   UNL     1      47.717   4.431  16.845  0.00  0.00    +0.000 A 
ENDBRANCH   8  10
ENDBRANCH   1   4
BRANCH   1  17
ATOM     17  N   UNL     1      46.394   7.982  12.265  0.00  0.00    +0.000 N 
ATOM     18  H   UNL     1      45.734   8.680  12.590  0.00  0.00    +0.000 HD
BRANCH  17  22
ATOM     19  C   UNL     1      44.557   4.285  11.300  0.00  0.00    +0.000 A 
ATOM     20  C   UNL     1      45.238   4.997  10.313  0.00  0.00    +0.000 A 
ATOM     21  C   UNL     1      45.838   6.221  10.621  0.00  0.00    +0.000 A 
ATOM     22  C   UNL     1      45.806   6.748  11.919  0.00  0.00    +0.000 A 
ATOM     23  C   UNL     1      45.062   6.054  12.883  0.00  0.00    +0.000 A 
ATOM     24  C   UNL     1      44.440   4.834  12.582  0.00  0.00    +0.000 A 
BRANCH  19  26
ATOM     25  N   UNL     1      44.491   2.219  10.017  0.00  0.00    +0.000 N 
ATOM     26  C   UNL     1      43.934   2.967  11.019  0.00  0.00    +0.000 C 
ATOM     27  O   UNL     1      42.991   2.543  11.676  0.00  0.00    +0.000 OA
ATOM     28  H   UNL     1      44.132   1.279   9.910  0.00  0.00    +0.000 HD
ATOM     29  H   UNL     1      45.407   2.412   9.638  0.00  0.00    +0.000 HD
ENDBRANCH  19  26
ENDBRANCH  17  22
ENDBRANCH   1  17
TORSDOF 5
ENDMDL
