MODEL 1
REMARK VINA RESULT:    -9.321      0.000      0.000
REMARK INTER + INTRA:         -14.368
REMARK INTER:                 -13.135
REMARK INTRA:                  -1.234
REMARK UNBOUND:                -1.234
REMARK  Name = 
REMARK  7 active torsions:
REMARK  status: ('A' for Active; 'I' for Inactive)
REMARK    1  A    between atoms: C_2  and  C_4
REMARK    2  A    between atoms: C_7  and  N_8
REMARK    3  A    between atoms: N_8  and  C_9
REMARK    4  A    between atoms: C_9  and  C_10
REMARK    5  A    between atoms: C_10  and  C_13
REMARK    6  A    between atoms: C_15  and  C_16
REMARK    7  A    between atoms: C_19  and  C_20
REMARK                            x       y       z     vdW  Elec       q    Type
REMARK                         _______ _______ _______ _____ _____    ______ ____
ROOT
ATOM      1  C   UNL     1      43.407   5.530  11.861  0.00  0.00    +0.000 C 
ATOM      2  F   UNL     1      42.718   6.629  11.403  0.00  0.00    +0.000 F 
ATOM      3  F   UNL     1      42.761   5.182  13.021  0.00  0.00    +0.000 F 
ENDROOT
BRANCH   1   4
ATOM      4  C   UNL     1      44.867   5.867  12.132  0.00  0.00    +0.000 A 
ATOM      5  C   UNL     1      45.456   5.353  13.292  0.00  0.00    +0.000 A 
ATOM      6  C   UNL     1      46.795   5.638  13.595  0.00  0.00    +0.000 A 
ATOM      7  C   UNL     1      47.488   6.460  12.698  0.00  0.00    +0.000 A 
ATOM      8  C   UNL     1      46.842   6.929  11.567  0.00  0.00    +0.000 A 
ATOM      9  N   UNL     1      45.557   6.650  11.265  0.00  0.00    +0.000 NA
BRANCH   6  10
ATOM     10  C   UNL     1      47.452   5.112  14.808  0.00  0.00    +0.000 A 
ATOM     11  C   UNL     1      48.262   5.894  15.630  0.00  0.00    +0.000 A 
ATOM     12  C   UNL     1      48.870   5.317  16.745  0.00  0.00    +0.000 A 
ATOM     13  C   UNL     1      48.659   3.966  17.027  0.00  0.00    +0.000 A 
ATOM     14  C   UNL     1      47.829   3.263  16.168  0.00  0.00    +0.000 A 
ATOM     15  N   UNL     1      47.225   3.803  15.082  0.00  0.00    +0.000 NA
BRANCH  13  16
ATOM     16  C   UNL     1      49.285   3.273  18.195  0.00  0.00    +0.000 C 
ATOM     17  F   UNL     1      50.201   4.038  18.851  0.00  0.00    +0.000 F 
ATOM     18  F   UNL     1      48.371   2.901  19.132  0.00  0.00    +0.000 F 
ATOM     19  F   UNL     1      49.940   2.134  17.837  0.00  0.00    +0.000 F 
ENDBRANCH  13  16
ENDBRANCH   6  10
ENDBRANCH   1   4
BRANCH   1  20
ATOM     20  C   UNL     1      43.207   4.395  10.827  0.00  0.00    +0.000 C 
BRANCH  20  21
ATOM     21  N   UNL     1      43.712   4.786   9.486  0.00  0.00    +0.000 N 
ATOM     22  H   UNL     1      44.126   5.716   9.496  0.00  0.00    +0.000 HD
BRANCH  21  26
ATOM     23  C   UNL     1      46.240   1.991   7.857  0.00  0.00    +0.000 A 
ATOM     24  C   UNL     1      46.309   3.318   7.463  0.00  0.00    +0.000 A 
ATOM     25  N   UNL     1      45.481   4.274   7.966  0.00  0.00    +0.000 NA
ATOM     26  C   UNL     1      44.570   3.867   8.875  0.00  0.00    +0.000 A 
ATOM     27  C   UNL     1      44.519   2.518   9.260  0.00  0.00    +0.000 A 
ATOM     28  N   UNL     1      45.332   1.546   8.768  0.00  0.00    +0.000 NA
BRANCH  23  30
ATOM     29  N   UNL     1      46.950  -0.310   7.630  0.00  0.00    +0.000 N 
ATOM     30  C   UNL     1      47.189   0.994   7.290  0.00  0.00    +0.000 C 
ATOM     31  O   UNL     1      48.123   1.315   6.568  0.00  0.00    +0.000 OA
ATOM     32  H   UNL     1      47.562  -1.036   7.285  0.00  0.00    +0.000 HD
ATOM     33  H   UNL     1      46.169  -0.541   8.235  0.00  0.00    +0.000 HD
ENDBRANCH  23  30
ENDBRANCH  21  26
ENDBRANCH  20  21
ENDBRANCH   1  20
TORSDOF 7
ENDMDL
MODEL 2
REMARK VINA RESULT:    -9.130      0.949      1.192
REMARK INTER + INTRA:         -14.100
REMARK INTER:                 -12.858
REMARK INTRA:                  -1.242
REMARK UNBOUND:                -1.234
REMARK  Name = 
REMARK  7 active torsions:
REMARK  status: ('A' for Active; 'I' for Inactive)
REMARK    1  A    between atoms: C_2  and  C_4
REMARK    2  A    between atoms: C_7  and  N_8
REMARK    3  A    between atoms: N_8  and  C_9
REMARK    4  A    between atoms: C_9  and  C_10
REMARK    5  A    between atoms: C_10  and  C_13
REMARK    6  A    between atoms: C_15  and  C_16
REMARK    7  A    between atoms: C_19  and  C_20
REMARK                            x       y       z     vdW  Elec       q    Type
REMARK                         _______ _______ _______ _____ _____    ______ ____
ROOT
ATOM      1  C   UNL     1      43.508   5.527  11.992  0.00  0.00    +0.000 C 
ATOM      2  F   UNL     1      42.862   6.644  11.514  0.00  0.00    +0.000 F 
ATOM      3  F   UNL     1      42.872   5.246  13.175  0.00  0.00    +0.000 F 
ENDROOT
BRANCH   1   4
ATOM      4  C   UNL     1      44.988   5.803  12.224  0.00  0.00    +0.000 A 
ATOM      5  C   UNL     1      45.549   5.403  13.440  0.00  0.00    +0.000 A 
ATOM      6  C   UNL     1      46.905   5.639  13.710  0.00  0.00    +0.000 A 
ATOM      7  C   UNL     1      47.644   6.297  12.720  0.00  0.00    +0.000 A 
ATOM      8  C   UNL     1      47.023   6.660  11.536  0.00  0.00    +0.000 A 
ATOM      9  N   UNL     1      45.722   6.427  11.267  0.00  0.00    +0.000 NA
BRANCH   6  10
ATOM     10  C   UNL     1      47.533   5.230  14.982  0.00  0.00    +0.000 A 
ATOM     11  C   UNL     1      47.146   4.091  15.686  0.00  0.00    +0.000 A 
ATOM     12  C   UNL     1      47.770   3.785  16.895  0.00  0.00    +0.000 A 
ATOM     13  C   UNL     1      48.776   4.620  17.385  0.00  0.00    +0.000 A 
ATOM     14  C   UNL     1      49.112   5.724  16.618  0.00  0.00    +0.000 A 
ATOM     15  N   UNL     1      48.522   6.038  15.439  0.00  0.00    +0.000 NA
BRANCH  13  16
ATOM     16  C   UNL     1      49.483   4.367  18.678  0.00  0.00    +0.000 C 
ATOM     17  F   UNL     1      49.862   5.506  19.320  0.00  0.00    +0.000 F 
ATOM     18  F   UNL     1      48.717   3.676  19.566  0.00  0.00    +0.000 F 
ATOM     19  F   UNL     1      50.621   3.635  18.517  0.00  0.00    +0.000 F 
ENDBRANCH  13  16
ENDBRANCH   6  10
ENDBRANCH   1   4
BRANCH   1  20
ATOM     20  C   UNL     1      43.234   4.373  10.998  0.00  0.00    +0.000 C 
BRANCH  20  21
ATOM     21  N   UNL     1      43.630   4.741   9.615  0.00  0.00    +0.000 N 
ATOM     22  H   UNL     1      43.967   5.699   9.562  0.00  0.00    +0.000 HD
BRANCH  21  26
ATOM     23  C   UNL     1      46.275   2.076   7.953  0.00  0.00    +0.000 A 
ATOM     24  C   UNL     1      46.257   3.400   7.543  0.00  0.00    +0.000 A 
ATOM     25  N   UNL     1      45.388   4.313   8.056  0.00  0.00    +0.000 NA
ATOM     26  C   UNL     1      44.524   3.865   8.992  0.00  0.00    +0.000 A 
ATOM     27  C   UNL     1      44.561   2.520   9.392  0.00  0.00    +0.000 A 
ATOM     28  N   UNL     1      45.416   1.591   8.891  0.00  0.00    +0.000 NA
BRANCH  23  30
ATOM     29  N   UNL     1      48.283   1.702   6.657  0.00  0.00    +0.000 N 
ATOM     30  C   UNL     1      47.266   1.129   7.372  0.00  0.00    +0.000 C 
ATOM     31  O   UNL     1      47.180  -0.083   7.521  0.00  0.00    +0.000 OA
ATOM     32  H   UNL     1      48.984   1.115   6.229  0.00  0.00    +0.000 HD
ATOM     33  H   UNL     1      48.321   2.710   6.550  0.00  0.00    +0.000 HD
ENDBRANCH  23  30
ENDBRANCH  21  26
ENDBRANCH  20  21
ENDBRANCH   1  20
TORSDOF 7
ENDMDL
MODEL 3
REMARK VINA RESULT:    -8.761      3.597      4.923
REMARK INTER + INTRA:         -13.580
REMARK INTER:                 -12.474
REMARK INTRA:                  -1.106
REMARK UNBOUND:                -1.234
REMARK  Name = 
REMARK  7 active torsions:
REMARK  status: ('A' for Active; 'I' for Inactive)
REMARK    1  A    between atoms: C_2  and  C_4
REMARK    2  A    between atoms: C_7  and  N_8
REMARK    3  A    between atoms: N_8  and  C_9
REMARK    4  A    between atoms: C_9  and  C_10
REMARK    5  A    between atoms: C_10  and  C_13
REMARK    6  A    between atoms: C_15  and  C_16
REMARK    7  A    between atoms: C_19  and  C_20
REMARK                            x       y       z     vdW  Elec       q    Type
REMARK                         _______ _______ _______ _____ _____    ______ ____
ROOT
ATOM      1  C   UNL     1      43.514   5.331  12.215  0.00  0.00    +0.000 C 
ATOM      2  F   UNL     1      43.161   6.564  11.719  0.00  0.00    +0.000 F 
ATOM      3  F   UNL     1      42.605   5.093  13.215  0.00  0.00    +0.000 F 
ENDROOT
BRANCH   1   4
ATOM      4  C   UNL     1      44.935   5.343  12.765  0.00  0.00    +0.000 A 
ATOM      5  C   UNL     1      45.798   6.354  12.332  0.00  0.00    +0.000 A 
ATOM      6  C   UNL     1      47.120   6.408  12.800  0.00  0.00    +0.000 A 
ATOM      7  C   UNL     1      47.519   5.405  13.692  0.00  0.00    +0.000 A 
ATOM      8  C   UNL     1      46.608   4.438  14.080  0.00  0.00    +0.000 A 
ATOM      9  N   UNL     1      45.333   4.387  13.641  0.00  0.00    +0.000 NA
BRANCH   6  10
ATOM     10  C   UNL     1      48.060   7.461  12.369  0.00  0.00    +0.000 A 
ATOM     11  C   UNL     1      47.651   8.750  12.031  0.00  0.00    +0.000 A 
ATOM     12  C   UNL     1      48.598   9.683  11.607  0.00  0.00    +0.000 A 
ATOM     13  C   UNL     1      49.943   9.316  11.528  0.00  0.00    +0.000 A 
ATOM     14  C   UNL     1      50.269   8.020  11.895  0.00  0.00    +0.000 A 
ATOM     15  N   UNL     1      49.366   7.099  12.313  0.00  0.00    +0.000 NA
BRANCH  13  16
ATOM     16  C   UNL     1      51.014  10.254  11.071  0.00  0.00    +0.000 C 
ATOM     17  F   UNL     1      52.180   9.629  10.747  0.00  0.00    +0.000 F 
ATOM     18  F   UNL     1      50.652  10.962   9.966  0.00  0.00    +0.000 F 
ATOM     19  F   UNL     1      51.339  11.177  12.018  0.00  0.00    +0.000 F 
ENDBRANCH  13  16
ENDBRANCH   6  10
ENDBRANCH   1   4
BRANCH   1  20
ATOM     20  C   UNL     1      43.288   4.296  11.086  0.00  0.00    +0.000 C 
BRANCH  20  21
ATOM     21  N   UNL     1      43.725   4.823   9.769  0.00  0.00    +0.000 N 
ATOM     22  H   UNL     1      44.077   5.775   9.843  0.00  0.00    +0.000 HD
BRANCH  21  26
ATOM     23  C   UNL     1      46.372   2.335   7.856  0.00  0.00    +0.000 A 
ATOM     24  C   UNL     1      46.382   3.698   7.610  0.00  0.00    +0.000 A 
ATOM     25  N   UNL     1      45.514   4.557   8.210  0.00  0.00    +0.000 NA
ATOM     26  C   UNL     1      44.622   4.014   9.065  0.00  0.00    +0.000 A 
ATOM     27  C   UNL     1      44.630   2.631   9.300  0.00  0.00    +0.000 A 
ATOM     28  N   UNL     1      45.484   1.755   8.709  0.00  0.00    +0.000 NA
BRANCH  23  30
ATOM     29  N   UNL     1      48.337   2.087   6.467  0.00  0.00    +0.000 N 
ATOM     30  C   UNL     1      47.363   1.448   7.187  0.00  0.00    +0.000 C 
ATOM     31  O   UNL     1      47.314   0.229   7.271  0.00  0.00    +0.000 OA
ATOM     32  H   UNL     1      49.036   1.544   5.981  0.00  0.00    +0.000 HD
ATOM     33  H   UNL     1      48.345   3.100   6.415  0.00  0.00    +0.000 HD
ENDBRANCH  23  30
ENDBRANCH  21  26
ENDBRANCH  20  21
ENDBRANCH   1  20
TORSDOF 7
ENDMDL
MODEL 4
REMARK VINA RESULT:    -8.446      4.169      8.152
REMARK INTER + INTRA:         -13.136
REMARK INTER:                 -12.103
REMARK INTRA:                  -1.033
REMARK UNBOUND:                -1.234
REMARK  Name = 
REMARK  7 active torsions:
REMARK  status: ('A' for Active; 'I' for Inactive)
REMARK    1  A    between atoms: C_2  and  C_4
REMARK    2  A    between atoms: C_7  and  N_8
REMARK    3  A    between atoms: N_8  and  C_9
REMARK    4  A    between atoms: C_9  and  C_10
REMARK    5  A    between atoms: C_10  and  C_13
REMARK    6  A    between atoms: C_15  and  C_16
REMARK    7  A    between atoms: C_19  and  C_20
REMARK                            x       y       z     vdW  Elec       q    Type
REMARK                         _______ _______ _______ _____ _____    ______ ____
ROOT
ATOM      1  C   UNL     1      45.756   8.231  12.496  0.00  0.00    +0.000 C 
ATOM      2  F   UNL     1      44.855   9.200  12.870  0.00  0.00    +0.000 F 
ATOM      3  F   UNL     1      46.381   8.754  11.391  0.00  0.00    +0.000 F 
ENDROOT
BRANCH   1   4
ATOM      4  C   UNL     1      45.052   6.924  12.153  0.00  0.00    +0.000 A 
ATOM      5  C   UNL     1      45.531   6.184  11.068  0.00  0.00    +0.000 A 
ATOM      6  C   UNL     1      44.916   4.978  10.703  0.00  0.00    +0.000 A 
ATOM      7  C   UNL     1      43.810   4.574  11.461  0.00  0.00    +0.000 A 
ATOM      8  C   UNL     1      43.395   5.355  12.527  0.00  0.00    +0.000 A 
ATOM      9  N   UNL     1      43.989   6.511  12.889  0.00  0.00    +0.000 NA
BRANCH   6  10
ATOM     10  C   UNL     1      45.393   4.168   9.564  0.00  0.00    +0.000 A 
ATOM     11  C   UNL     1      45.238   2.785   9.501  0.00  0.00    +0.000 A 
ATOM     12  C   UNL     1      45.740   2.087   8.403  0.00  0.00    +0.000 A 
ATOM     13  C   UNL     1      46.390   2.780   7.380  0.00  0.00    +0.000 A 
ATOM     14  C   UNL     1      46.491   4.156   7.513  0.00  0.00    +0.000 A 
ATOM     15  N   UNL     1      46.007   4.855   8.568  0.00  0.00    +0.000 NA
BRANCH  13  16
ATOM     16  C   UNL     1      46.966   2.101   6.178  0.00  0.00    +0.000 C 
ATOM     17  F   UNL     1      46.377   2.478   5.010  0.00  0.00    +0.000 F 
ATOM     18  F   UNL     1      48.295   2.352   6.024  0.00  0.00    +0.000 F 
ATOM     19  F   UNL     1      46.844   0.746   6.235  0.00  0.00    +0.000 F 
ENDBRANCH  13  16
ENDBRANCH   6  10
ENDBRANCH   1   4
BRANCH   1  20
ATOM     20  C   UNL     1      46.796   8.102  13.635  0.00  0.00    +0.000 C 
BRANCH  20  21
ATOM     21  N   UNL     1      47.726   6.969  13.398  0.00  0.00    +0.000 N 
ATOM     22  H   UNL     1      48.660   7.292  13.158  0.00  0.00    +0.000 HD
BRANCH  21  26
ATOM     23  C   UNL     1      47.691   4.115  16.350  0.00  0.00    +0.000 A 
ATOM     24  C   UNL     1      48.477   5.250  16.476  0.00  0.00    +0.000 A 
ATOM     25  N   UNL     1      48.530   6.213  15.516  0.00  0.00    +0.000 NA
ATOM     26  C   UNL     1      47.778   6.010  14.414  0.00  0.00    +0.000 A 
ATOM     27  C   UNL     1      46.989   4.854  14.308  0.00  0.00    +0.000 A 
ATOM     28  N   UNL     1      46.924   3.878  15.252  0.00  0.00    +0.000 NA
BRANCH  23  30
ATOM     29  N   UNL     1      48.854   2.860  18.060  0.00  0.00    +0.000 N 
ATOM     30  C   UNL     1      47.656   3.108  17.445  0.00  0.00    +0.000 C 
ATOM     31  O   UNL     1      46.627   2.535  17.777  0.00  0.00    +0.000 OA
ATOM     32  H   UNL     1      48.901   2.180  18.805  0.00  0.00    +0.000 HD
ATOM     33  H   UNL     1      49.689   3.350  17.757  0.00  0.00    +0.000 HD
ENDBRANCH  23  30
ENDBRANCH  21  26
ENDBRANCH  20  21
ENDBRANCH   1  20
TORSDOF 7
ENDMDL
MODEL 5
REMARK VINA RESULT:    -8.280      2.349      2.966
REMARK INTER + INTRA:         -12.902
REMARK INTER:                 -11.657
REMARK INTRA:                  -1.245
REMARK UNBOUND:                -1.234
REMARK  Name = 
REMARK  7 active torsions:
REMARK  status: ('A' for Active; 'I' for Inactive)
REMARK    1  A    between atoms: C_2  and  C_4
REMARK    2  A    between atoms: C_7  and  N_8
REMARK    3  A    between atoms: N_8  and  C_9
REMARK    4  A    between atoms: C_9  and  C_10
REMARK    5  A    between atoms: C_10  and  C_13
REMARK    6  A    between atoms: C_15  and  C_16
REMARK    7  A    between atoms: C_19  and  C_20
REMARK                            x       y       z     vdW  Elec       q    Type
REMARK                         _______ _______ _______ _____ _____    ______ ____
ROOT
ATOM      1  C   UNL     1      43.866   4.939  12.355  0.00  0.00    +0.000 C 
ATOM      2  F   UNL     1      42.827   5.064  13.248  0.00  0.00    +0.000 F 
ATOM      3  F   UNL     1      44.628   3.915  12.859  0.00  0.00    +0.000 F 
ENDROOT
BRANCH   1   4
ATOM      4  C   UNL     1      44.676   6.226  12.266  0.00  0.00    +0.000 A 
ATOM      5  C   UNL     1      45.932   6.255  12.880  0.00  0.00    +0.000 A 
ATOM      6  C   UNL     1      46.717   7.416  12.836  0.00  0.00    +0.000 A 
ATOM      7  C   UNL     1      46.177   8.524  12.171  0.00  0.00    +0.000 A 
ATOM      8  C   UNL     1      44.928   8.420  11.581  0.00  0.00    +0.000 A 
ATOM      9  N   UNL     1      44.172   7.302  11.611  0.00  0.00    +0.000 NA
BRANCH   6  10
ATOM     10  C   UNL     1      48.049   7.486  13.470  0.00  0.00    +0.000 A 
ATOM     11  C   UNL     1      49.164   8.028  12.833  0.00  0.00    +0.000 A 
ATOM     12  C   UNL     1      50.395   8.033  13.489  0.00  0.00    +0.000 A 
ATOM     13  C   UNL     1      50.496   7.498  14.775  0.00  0.00    +0.000 A 
ATOM     14  C   UNL     1      49.338   6.992  15.343  0.00  0.00    +0.000 A 
ATOM     15  N   UNL     1      48.131   6.980  14.726  0.00  0.00    +0.000 NA
BRANCH  13  16
ATOM     16  C   UNL     1      51.782   7.456  15.537  0.00  0.00    +0.000 C 
ATOM     17  F   UNL     1      52.883   7.599  14.749  0.00  0.00    +0.000 F 
ATOM     18  F   UNL     1      51.865   8.437  16.476  0.00  0.00    +0.000 F 
ATOM     19  F   UNL     1      51.954   6.282  16.206  0.00  0.00    +0.000 F 
ENDBRANCH  13  16
ENDBRANCH   6  10
ENDBRANCH   1   4
BRANCH   1  20
ATOM     20  C   UNL     1      43.262   4.484  11.004  0.00  0.00    +0.000 C 
BRANCH  20  21
ATOM     21  N   UNL     1      44.041   5.010   9.855  0.00  0.00    +0.000 N 
ATOM     22  H   UNL     1      44.620   5.803  10.124  0.00  0.00    +0.000 HD
BRANCH  21  26
ATOM     23  C   UNL     1      46.259   2.122   7.956  0.00  0.00    +0.000 A 
ATOM     24  C   UNL     1      46.401   3.458   7.615  0.00  0.00    +0.000 A 
ATOM     25  N   UNL     1      45.676   4.445   8.208  0.00  0.00    +0.000 NA
ATOM     26  C   UNL     1      44.792   4.062   9.153  0.00  0.00    +0.000 A 
ATOM     27  C   UNL     1      44.666   2.704   9.483  0.00  0.00    +0.000 A 
ATOM     28  N   UNL     1      45.375   1.701   8.902  0.00  0.00    +0.000 NA
BRANCH  23  30
ATOM     29  N   UNL     1      46.852  -0.205   7.667  0.00  0.00    +0.000 N 
ATOM     30  C   UNL     1      47.097   1.089   7.290  0.00  0.00    +0.000 C 
ATOM     31  O   UNL     1      47.951   1.371   6.461  0.00  0.00    +0.000 OA
ATOM     32  H   UNL     1      47.392  -0.954   7.259  0.00  0.00    +0.000 HD
ATOM     33  H   UNL     1      46.139  -0.403   8.361  0.00  0.00    +0.000 HD
ENDBRANCH  23  30
ENDBRANCH  21  26
ENDBRANCH  20  21
ENDBRANCH   1  20
TORSDOF 7
ENDMDL
MODEL 6
REMARK VINA RESULT:    -8.173      3.290      4.038
REMARK INTER + INTRA:         -12.752
REMARK INTER:                 -11.430
REMARK INTRA:                  -1.322
REMARK UNBOUND:                -1.234
REMARK  Name = 
REMARK  7 active torsions:
REMARK  status: ('A' for Active; 'I' for Inactive)
REMARK    1  A    between atoms: C_2  and  C_4
REMARK    2  A    between atoms: C_7  and  N_8
REMARK    3  A    between atoms: N_8  and  C_9
REMARK    4  A    between atoms: C_9  and  C_10
REMARK    5  A    between atoms: C_10  and  C_13
REMARK    6  A    between atoms: C_15  and  C_16
REMARK    7  A    between atoms: C_19  and  C_20
REMARK                            x       y       z     vdW  Elec       q    Type
REMARK                         _______ _______ _______ _____ _____    ______ ____
ROOT
ATOM      1  C   UNL     1      44.406   4.447  12.230  0.00  0.00    +0.000 C 
ATOM      2  F   UNL     1      43.728   4.291  13.417  0.00  0.00    +0.000 F 
ATOM      3  F   UNL     1      45.447   3.556  12.313  0.00  0.00    +0.000 F 
ENDROOT
BRANCH   1   4
ATOM      4  C   UNL     1      44.923   5.871  12.072  0.00  0.00    +0.000 A 
ATOM      5  C   UNL     1      46.271   6.116  12.349  0.00  0.00    +0.000 A 
ATOM      6  C   UNL     1      46.798   7.410  12.228  0.00  0.00    +0.000 A 
ATOM      7  C   UNL     1      45.912   8.422  11.838  0.00  0.00    +0.000 A 
ATOM      8  C   UNL     1      44.590   8.105  11.575  0.00  0.00    +0.000 A 
ATOM      9  N   UNL     1      44.080   6.860  11.680  0.00  0.00    +0.000 NA
BRANCH   6  10
ATOM     10  C   UNL     1      48.216   7.708  12.509  0.00  0.00    +0.000 A 
ATOM     11  C   UNL     1      49.196   7.732  11.519  0.00  0.00    +0.000 A 
ATOM     12  C   UNL     1      50.521   7.995  11.869  0.00  0.00    +0.000 A 
ATOM     13  C   UNL     1      50.849   8.234  13.204  0.00  0.00    +0.000 A 
ATOM     14  C   UNL     1      49.814   8.207  14.125  0.00  0.00    +0.000 A 
ATOM     15  N   UNL     1      48.521   7.957  13.808  0.00  0.00    +0.000 NA
BRANCH  13  16
ATOM     16  C   UNL     1      52.247   8.511  13.659  0.00  0.00    +0.000 C 
ATOM     17  F   UNL     1      52.677   7.662  14.633  0.00  0.00    +0.000 F 
ATOM     18  F   UNL     1      53.154   8.412  12.650  0.00  0.00    +0.000 F 
ATOM     19  F   UNL     1      52.390   9.766  14.170  0.00  0.00    +0.000 F 
ENDBRANCH  13  16
ENDBRANCH   6  10
ENDBRANCH   1   4
BRANCH   1  20
ATOM     20  C   UNL     1      43.459   3.994  11.093  0.00  0.00    +0.000 C 
BRANCH  20  21
ATOM     21  N   UNL     1      43.794   4.659   9.809  0.00  0.00    +0.000 N 
ATOM     22  H   UNL     1      44.041   5.637   9.944  0.00  0.00    +0.000 HD
BRANCH  21  26
ATOM     23  C   UNL     1      46.628   2.617   7.650  0.00  0.00    +0.000 A 
ATOM     24  C   UNL     1      46.558   4.000   7.590  0.00  0.00    +0.000 A 
ATOM     25  N   UNL     1      45.626   4.715   8.277  0.00  0.00    +0.000 NA
ATOM     26  C   UNL     1      44.753   4.009   9.026  0.00  0.00    +0.000 A 
ATOM     27  C   UNL     1      44.843   2.609   9.072  0.00  0.00    +0.000 A 
ATOM     28  N   UNL     1      45.762   1.874   8.392  0.00  0.00    +0.000 NA
BRANCH  23  30
ATOM     29  N   UNL     1      48.660   2.675   6.339  0.00  0.00    +0.000 N 
ATOM     30  C   UNL     1      47.685   1.891   6.895  0.00  0.00    +0.000 C 
ATOM     31  O   UNL     1      47.686   0.673   6.774  0.00  0.00    +0.000 OA
ATOM     32  H   UNL     1      49.403   2.246   5.806  0.00  0.00    +0.000 HD
ATOM     33  H   UNL     1      48.626   3.683   6.455  0.00  0.00    +0.000 HD
ENDBRANCH  23  30
ENDBRANCH  21  26
ENDBRANCH  20  21
ENDBRANCH   1  20
TORSDOF 7
ENDMDL
MODEL 7
REMARK VINA RESULT:    -7.843      4.218      8.659
REMARK INTER + INTRA:         -12.286
REMARK INTER:                 -11.330
REMARK INTRA:                  -0.956
REMARK UNBOUND:                -1.234
REMARK  Name = 
REMARK  7 active torsions:
REMARK  status: ('A' for Active; 'I' for Inactive)
REMARK    1  A    between atoms: C_2  and  C_4
REMARK    2  A    between atoms: C_7  and  N_8
REMARK    3  A    between atoms: N_8  and  C_9
REMARK    4  A    between atoms: C_9  and  C_10
REMARK    5  A    between atoms: C_10  and  C_13
REMARK    6  A    between atoms: C_15  and  C_16
REMARK    7  A    between atoms: C_19  and  C_20
REMARK                            x       y       z     vdW  Elec       q    Type
REMARK                         _______ _______ _______ _____ _____    ______ ____
ROOT
ATOM      1  C   UNL     1      46.216   7.837  12.801  0.00  0.00    +0.000 C 
ATOM      2  F   UNL     1      45.499   8.734  13.558  0.00  0.00    +0.000 F 
ATOM      3  F   UNL     1      46.743   8.594  11.784  0.00  0.00    +0.000 F 
ENDROOT
BRANCH   1   4
ATOM      4  C   UNL     1      45.318   6.737  12.250  0.00  0.00    +0.000 A 
ATOM      5  C   UNL     1      45.791   5.981  11.172  0.00  0.00    +0.000 A 
ATOM      6  C   UNL     1      45.002   4.961  10.620  0.00  0.00    +0.000 A 
ATOM      7  C   UNL     1      43.738   4.758  11.187  0.00  0.00    +0.000 A 
ATOM      8  C   UNL     1      43.339   5.541  12.257  0.00  0.00    +0.000 A 
ATOM      9  N   UNL     1      44.097   6.517  12.799  0.00  0.00    +0.000 NA
BRANCH   6  10
ATOM     10  C   UNL     1      45.466   4.141   9.483  0.00  0.00    +0.000 A 
ATOM     11  C   UNL     1      45.320   2.756   9.439  0.00  0.00    +0.000 A 
ATOM     12  C   UNL     1      45.809   2.048   8.341  0.00  0.00    +0.000 A 
ATOM     13  C   UNL     1      46.436   2.733   7.299  0.00  0.00    +0.000 A 
ATOM     14  C   UNL     1      46.529   4.112   7.414  0.00  0.00    +0.000 A 
ATOM     15  N   UNL     1      46.057   4.820   8.468  0.00  0.00    +0.000 NA
BRANCH  13  16
ATOM     16  C   UNL     1      46.997   2.045   6.096  0.00  0.00    +0.000 C 
ATOM     17  F   UNL     1      46.834   0.693   6.121  0.00  0.00    +0.000 F 
ATOM     18  F   UNL     1      46.422   2.468   4.937  0.00  0.00    +0.000 F 
ATOM     19  F   UNL     1      48.335   2.255   5.950  0.00  0.00    +0.000 F 
ENDBRANCH  13  16
ENDBRANCH   6  10
ENDBRANCH   1   4
BRANCH   1  20
ATOM     20  C   UNL     1      47.379   7.315  13.680  0.00  0.00    +0.000 C 
BRANCH  20  21
ATOM     21  N   UNL     1      47.056   5.998  14.283  0.00  0.00    +0.000 N 
ATOM     22  H   UNL     1      46.973   5.270  13.577  0.00  0.00    +0.000 HD
BRANCH  21  26
ATOM     23  C   UNL     1      49.375   4.737  17.428  0.00  0.00    +0.000 A 
ATOM     24  C   UNL     1      49.732   5.856  16.693  0.00  0.00    +0.000 A 
ATOM     25  N   UNL     1      49.001   6.300  15.635  0.00  0.00    +0.000 NA
ATOM     26  C   UNL     1      47.899   5.588  15.321  0.00  0.00    +0.000 A 
ATOM     27  C   UNL     1      47.555   4.458  16.080  0.00  0.00    +0.000 A 
ATOM     28  N   UNL     1      48.272   3.995  17.137  0.00  0.00    +0.000 NA
BRANCH  23  30
ATOM     29  N   UNL     1      51.097   3.307  18.346  0.00  0.00    +0.000 N 
ATOM     30  C   UNL     1      50.201   4.313  18.592  0.00  0.00    +0.000 C 
ATOM     31  O   UNL     1      50.090   4.826  19.697  0.00  0.00    +0.000 OA
ATOM     32  H   UNL     1      51.682   2.966  19.094  0.00  0.00    +0.000 HD
ATOM     33  H   UNL     1      51.159   2.901  17.418  0.00  0.00    +0.000 HD
ENDBRANCH  23  30
ENDBRANCH  21  26
ENDBRANCH  20  21
ENDBRANCH   1  20
TORSDOF 7
ENDMDL
MODEL 8
REMARK VINA RESULT:    -7.170      4.753      6.014
REMARK INTER + INTRA:         -11.337
REMARK INTER:                 -10.384
REMARK INTRA:                  -0.954
REMARK UNBOUND:                -1.234
REMARK  Name = 
REMARK  7 active torsions:
REMARK  status: ('A' for Active; 'I' for Inactive)
REMARK    1  A    between atoms: C_2  and  C_4
REMARK    2  A    between atoms: C_7  and  N_8
REMARK    3  A    between atoms: N_8  and  C_9
REMARK    4  A    between atoms: C_9  and  C_10
REMARK    5  A    between atoms: C_10  and  C_13
REMARK    6  A    between atoms: C_15  and  C_16
REMARK    7  A    between atoms: C_19  and  C_20
REMARK                            x       y       z     vdW  Elec       q    Type
REMARK                         _______ _______ _______ _____ _____    ______ ____
ROOT
ATOM      1  C   UNL     1      45.425   6.561  11.911  0.00  0.00    +0.000 C 
ATOM      2  F   UNL     1      45.281   7.354  10.797  0.00  0.00    +0.000 F 
ATOM      3  F   UNL     1      44.439   6.990  12.764  0.00  0.00    +0.000 F 
ENDROOT
BRANCH   1   4
ATOM      4  C   UNL     1      46.801   6.737  12.540  0.00  0.00    +0.000 A 
ATOM      5  C   UNL     1      47.799   7.353  11.778  0.00  0.00    +0.000 A 
ATOM      6  C   UNL     1      49.086   7.533  12.305  0.00  0.00    +0.000 A 
ATOM      7  C   UNL     1      49.313   7.059  13.602  0.00  0.00    +0.000 A 
ATOM      8  C   UNL     1      48.276   6.464  14.301  0.00  0.00    +0.000 A 
ATOM      9  N   UNL     1      47.033   6.296  13.803  0.00  0.00    +0.000 NA
BRANCH   6  10
ATOM     10  C   UNL     1      50.165   8.180  11.532  0.00  0.00    +0.000 A 
ATOM     11  C   UNL     1      51.133   7.461  10.834  0.00  0.00    +0.000 A 
ATOM     12  C   UNL     1      52.136   8.145  10.148  0.00  0.00    +0.000 A 
ATOM     13  C   UNL     1      52.159   9.541  10.166  0.00  0.00    +0.000 A 
ATOM     14  C   UNL     1      51.152  10.181  10.872  0.00  0.00    +0.000 A 
ATOM     15  N   UNL     1      50.166   9.537  11.541  0.00  0.00    +0.000 NA
BRANCH  13  16
ATOM     16  C   UNL     1      53.208  10.345   9.467  0.00  0.00    +0.000 C 
ATOM     17  F   UNL     1      53.504  11.514  10.099  0.00  0.00    +0.000 F 
ATOM     18  F   UNL     1      54.387   9.675   9.349  0.00  0.00    +0.000 F 
ATOM     19  F   UNL     1      52.844  10.689   8.200  0.00  0.00    +0.000 F 
ENDBRANCH  13  16
ENDBRANCH   6  10
ENDBRANCH   1   4
BRANCH   1  20
ATOM     20  C   UNL     1      45.112   5.105  11.488  0.00  0.00    +0.000 C 
BRANCH  20  21
ATOM     21  N   UNL     1      44.512   5.051  10.131  0.00  0.00    +0.000 N 
ATOM     22  H   UNL     1      44.331   5.982   9.761  0.00  0.00    +0.000 HD
BRANCH  21  26
ATOM     23  C   UNL     1      46.569   2.630   7.529  0.00  0.00    +0.000 A 
ATOM     24  C   UNL     1      46.671   4.009   7.440  0.00  0.00    +0.000 A 
ATOM     25  N   UNL     1      45.997   4.849   8.271  0.00  0.00    +0.000 NA
ATOM     26  C   UNL     1      45.203   4.272   9.198  0.00  0.00    +0.000 A 
ATOM     27  C   UNL     1      45.115   2.873   9.272  0.00  0.00    +0.000 A 
ATOM     28  N   UNL     1      45.777   2.016   8.450  0.00  0.00    +0.000 NA
BRANCH  23  30
ATOM     29  N   UNL     1      48.271   2.408   5.825  0.00  0.00    +0.000 N 
ATOM     30  C   UNL     1      47.351   1.762   6.607  0.00  0.00    +0.000 C 
ATOM     31  O   UNL     1      47.185   0.551   6.547  0.00  0.00    +0.000 OA
ATOM     32  H   UNL     1      48.829   1.879   5.171  0.00  0.00    +0.000 HD
ATOM     33  H   UNL     1      48.380   3.414   5.898  0.00  0.00    +0.000 HD
ENDBRANCH  23  30
ENDBRANCH  21  26
ENDBRANCH  20  21
ENDBRANCH   1  20
TORSDOF 7
ENDMDL
MODEL 9
REMARK VINA RESULT:    -6.986      4.244      8.070
REMARK INTER + INTRA:         -11.078
REMARK INTER:                  -9.806
REMARK INTRA:                  -1.273
REMARK UNBOUND:                -1.234
REMARK  Name = 
REMARK  7 active torsions:
REMARK  status: ('A' for Active; 'I' for Inactive)
REMARK    1  A    between atoms: C_2  and  C_4
REMARK    2  A    between atoms: C_7  and  N_8
REMARK    3  A    between atoms: N_8  and  C_9
REMARK    4  A    between atoms: C_9  and  C_10
REMARK    5  A    between atoms: C_10  and  C_13
REMARK    6  A    between atoms: C_15  and  C_16
REMARK    7  A    between atoms: C_19  and  C_20
REMARK                            x       y       z     vdW  Elec       q    Type
REMARK                         _______ _______ _______ _____ _____    ______ ____
ROOT
ATOM      1  C   UNL     1      48.826   9.270  16.090  0.00  0.00    +0.000 C 
ATOM      2  F   UNL     1      47.518   9.278  16.516  0.00  0.00    +0.000 F 
ATOM      3  F   UNL     1      49.164  10.598  16.003  0.00  0.00    +0.000 F 
ENDROOT
BRANCH   1   4
ATOM      4  C   UNL     1      48.963   8.585  14.737  0.00  0.00    +0.000 A 
ATOM      5  C   UNL     1      47.930   7.740  14.321  0.00  0.00    +0.000 A 
ATOM      6  C   UNL     1      48.007   7.077  13.087  0.00  0.00    +0.000 A 
ATOM      7  C   UNL     1      49.159   7.294  12.321  0.00  0.00    +0.000 A 
ATOM      8  C   UNL     1      50.140   8.149  12.794  0.00  0.00    +0.000 A 
ATOM      9  N   UNL     1      50.066   8.797  13.976  0.00  0.00    +0.000 NA
BRANCH   6  10
ATOM     10  C   UNL     1      46.936   6.179  12.612  0.00  0.00    +0.000 A 
ATOM     11  C   UNL     1      46.364   6.286  11.346  0.00  0.00    +0.000 A 
ATOM     12  C   UNL     1      45.337   5.415  10.981  0.00  0.00    +0.000 A 
ATOM     13  C   UNL     1      44.896   4.447  11.884  0.00  0.00    +0.000 A 
ATOM     14  C   UNL     1      45.527   4.398  13.117  0.00  0.00    +0.000 A 
ATOM     15  N   UNL     1      46.528   5.230  13.492  0.00  0.00    +0.000 NA
BRANCH  13  16
ATOM     16  C   UNL     1      43.792   3.487  11.571  0.00  0.00    +0.000 C 
ATOM     17  F   UNL     1      44.005   2.771  10.433  0.00  0.00    +0.000 F 
ATOM     18  F   UNL     1      43.603   2.570  12.559  0.00  0.00    +0.000 F 
ATOM     19  F   UNL     1      42.593   4.108  11.401  0.00  0.00    +0.000 F 
ENDBRANCH  13  16
ENDBRANCH   6  10
ENDBRANCH   1   4
BRANCH   1  20
ATOM     20  C   UNL     1      49.673   8.619  17.210  0.00  0.00    +0.000 C 
BRANCH  20  21
ATOM     21  N   UNL     1      48.857   7.703  18.047  0.00  0.00    +0.000 N 
ATOM     22  H   UNL     1      47.865   7.921  17.985  0.00  0.00    +0.000 HD
BRANCH  21  26
ATOM     23  C   UNL     1      49.628   3.742  17.287  0.00  0.00    +0.000 A 
ATOM     24  C   UNL     1      48.383   4.143  17.745  0.00  0.00    +0.000 A 
ATOM     25  N   UNL     1      48.089   5.442  18.024  0.00  0.00    +0.000 NA
ATOM     26  C   UNL     1      49.081   6.339  17.838  0.00  0.00    +0.000 A 
ATOM     27  C   UNL     1      50.333   5.911  17.372  0.00  0.00    +0.000 A 
ATOM     28  N   UNL     1      50.650   4.619  17.092  0.00  0.00    +0.000 NA
BRANCH  23  30
ATOM     29  N   UNL     1      50.772   1.674  17.801  0.00  0.00    +0.000 N 
ATOM     30  C   UNL     1      49.882   2.309  16.976  0.00  0.00    +0.000 C 
ATOM     31  O   UNL     1      49.336   1.732  16.045  0.00  0.00    +0.000 OA
ATOM     32  H   UNL     1      50.996   0.703  17.640  0.00  0.00    +0.000 HD
ATOM     33  H   UNL     1      51.210   2.184  18.561  0.00  0.00    +0.000 HD
ENDBRANCH  23  30
ENDBRANCH  21  26
ENDBRANCH  20  21
ENDBRANCH   1  20
TORSDOF 7
ENDMDL
