MODEL 1
REMARK VINA RESULT:    -9.343      0.000      0.000
REMARK INTER + INTRA:         -11.687
REMARK INTER:                 -11.528
REMARK INTRA:                  -0.159
REMARK UNBOUND:                -0.159
REMARK  Name = 
REMARK  4 active torsions:
REMARK  status: ('A' for Active; 'I' for Inactive)
REMARK    1  A    between atoms: C_2  and  C_4
REMARK    2  A    between atoms: N_8  and  C_9
REMARK    3  A    between atoms: C_9  and  C_10
REMARK    4  A    between atoms: C_14  and  C_15
REMARK                            x       y       z     vdW  Elec       q    Type
REMARK                         _______ _______ _______ _____ _____    ______ ____
ROOT
ATOM      1  C   UNL     1      44.028   4.716  11.709  0.00  0.00    +0.000 C 
ATOM      2  C   UNL     1      42.743   5.068  12.422  0.00  0.00    +0.000 C 
ATOM      3  C   UNL     1      43.060   5.730  11.121  0.00  0.00    +0.000 C 
ENDROOT
BRANCH   1   8
ATOM      4  C   UNL     1      46.387   2.730   7.579  0.00  0.00    +0.000 A 
ATOM      5  C   UNL     1      46.176   4.049   7.977  0.00  0.00    +0.000 A 
ATOM      6  C   UNL     1      45.366   4.295   9.076  0.00  0.00    +0.000 A 
ATOM      7  C   UNL     1      44.828   3.238   9.810  0.00  0.00    +0.000 A 
ATOM      8  N   UNL     1      44.109   3.435  10.989  0.00  0.00    +0.000 N 
ATOM      9  N   UNL     1      44.982   1.961   9.405  0.00  0.00    +0.000 NA
ATOM     10  C   UNL     1      45.730   1.736   8.293  0.00  0.00    +0.000 A 
ATOM     11  H   UNL     1      43.875   2.553  11.428  0.00  0.00    +0.000 HD
BRANCH   4  13
ATOM     12  N   UNL     1      47.192   3.179   5.349  0.00  0.00    +0.000 N 
ATOM     13  C   UNL     1      47.272   2.377   6.448  0.00  0.00    +0.000 C 
ATOM     14  O   UNL     1      48.049   1.441   6.518  0.00  0.00    +0.000 OA
ATOM     15  H   UNL     1      47.877   3.014   4.624  0.00  0.00    +0.000 HD
ATOM     16  H   UNL     1      46.749   4.092   5.364  0.00  0.00    +0.000 HD
ENDBRANCH   4  13
ENDBRANCH   1   8
BRANCH   1  17
ATOM     17  C   UNL     1      45.369   5.174  12.297  0.00  0.00    +0.000 A 
ATOM     18  C   UNL     1      45.882   6.450  12.054  0.00  0.00    +0.000 A 
ATOM     19  C   UNL     1      46.874   6.951  12.886  0.00  0.00    +0.000 A 
ATOM     20  N   UNL     1      47.394   6.279  13.938  0.00  0.00    +0.000 NA
ATOM     21  C   UNL     1      46.953   5.012  14.147  0.00  0.00    +0.000 A 
ATOM     22  C   UNL     1      46.012   4.427  13.298  0.00  0.00    +0.000 A 
BRANCH  21  23
ATOM     23  C   UNL     1      47.404   4.314  15.378  0.00  0.00    +0.000 A 
ATOM     24  C   UNL     1      47.358   4.910  16.638  0.00  0.00    +0.000 A 
ATOM     25  C   UNL     1      47.774   4.182  17.756  0.00  0.00    +0.000 A 
ATOM     26  C   UNL     1      48.220   2.881  17.596  0.00  0.00    +0.000 A 
ATOM     27  C   UNL     1      48.220   2.347  16.324  0.00  0.00    +0.000 A 
ATOM     28  N   UNL     1      47.821   3.022  15.224  0.00  0.00    +0.000 NA
ENDBRANCH  21  23
ENDBRANCH   1  17
TORSDOF 4
ENDMDL
MODEL 2
REMARK VINA RESULT:    -8.786      1.709      3.742
REMARK INTER + INTRA:         -10.999
REMARK INTER:                 -10.845
REMARK INTRA:                  -0.154
REMARK UNBOUND:                -0.159
REMARK  Name = 
REMARK  4 active torsions:
REMARK  status: ('A' for Active; 'I' for Inactive)
REMARK    1  A    between atoms: C_2  and  C_4
REMARK    2  A    between atoms: N_8  and  C_9
REMARK    3  A    between atoms: C_9  and  C_10
REMARK    4  A    between atoms: C_14  and  C_15
REMARK                            x       y       z     vdW  Elec       q    Type
REMARK                         _______ _______ _______ _____ _____    ______ ____
ROOT
ATOM      1  C   UNL     1      43.848   4.829  11.659  0.00  0.00    +0.000 C 
ATOM      2  C   UNL     1      42.497   5.313  12.133  0.00  0.00    +0.000 C 
ATOM      3  C   UNL     1      43.119   5.948  10.933  0.00  0.00    +0.000 C 
ENDROOT
BRANCH   1   8
ATOM      4  C   UNL     1      46.363   2.808   7.640  0.00  0.00    +0.000 A 
ATOM      5  C   UNL     1      46.174   4.129   8.042  0.00  0.00    +0.000 A 
ATOM      6  C   UNL     1      45.314   4.391   9.098  0.00  0.00    +0.000 A 
ATOM      7  C   UNL     1      44.701   3.345   9.788  0.00  0.00    +0.000 A 
ATOM      8  N   UNL     1      43.925   3.554  10.928  0.00  0.00    +0.000 N 
ATOM      9  N   UNL     1      44.834   2.068   9.376  0.00  0.00    +0.000 NA
ATOM     10  C   UNL     1      45.634   1.829   8.304  0.00  0.00    +0.000 A 
ATOM     11  H   UNL     1      43.637   2.675  11.343  0.00  0.00    +0.000 HD
BRANCH   4  13
ATOM     12  N   UNL     1      47.149   3.109   5.379  0.00  0.00    +0.000 N 
ATOM     13  C   UNL     1      47.296   2.437   6.554  0.00  0.00    +0.000 C 
ATOM     14  O   UNL     1      48.166   1.601   6.723  0.00  0.00    +0.000 OA
ATOM     15  H   UNL     1      47.858   2.945   4.677  0.00  0.00    +0.000 HD
ATOM     16  H   UNL     1      46.612   3.967   5.298  0.00  0.00    +0.000 HD
ENDBRANCH   4  13
ENDBRANCH   1   8
BRANCH   1  17
ATOM     17  C   UNL     1      45.097   5.131  12.497  0.00  0.00    +0.000 A 
ATOM     18  C   UNL     1      45.731   4.144  13.254  0.00  0.00    +0.000 A 
ATOM     19  C   UNL     1      47.037   4.350  13.679  0.00  0.00    +0.000 A 
ATOM     20  N   UNL     1      47.756   5.463  13.408  0.00  0.00    +0.000 NA
ATOM     21  C   UNL     1      47.131   6.459  12.729  0.00  0.00    +0.000 A 
ATOM     22  C   UNL     1      45.796   6.339  12.343  0.00  0.00    +0.000 A 
BRANCH  21  23
ATOM     23  C   UNL     1      47.947   7.623  12.298  0.00  0.00    +0.000 A 
ATOM     24  C   UNL     1      49.287   7.506  11.928  0.00  0.00    +0.000 A 
ATOM     25  C   UNL     1      49.983   8.642  11.506  0.00  0.00    +0.000 A 
ATOM     26  C   UNL     1      49.332   9.863  11.459  0.00  0.00    +0.000 A 
ATOM     27  C   UNL     1      48.001   9.903  11.819  0.00  0.00    +0.000 A 
ATOM     28  N   UNL     1      47.299   8.824  12.227  0.00  0.00    +0.000 NA
ENDBRANCH  21  23
ENDBRANCH   1  17
TORSDOF 4
ENDMDL
MODEL 3
REMARK VINA RESULT:    -7.280      3.312      7.182
REMARK INTER + INTRA:          -9.141
REMARK INTER:                  -8.902
REMARK INTRA:                  -0.239
REMARK UNBOUND:                -0.159
REMARK  Name = 
REMARK  4 active torsions:
REMARK  status: ('A' for Active; 'I' for Inactive)
REMARK    1  A    between atoms: C_2  and  C_4
REMARK    2  A    between atoms: N_8  and  C_9
REMARK    3  A    between atoms: C_9  and  C_10
REMARK    4  A    between atoms: C_14  and  C_15
REMARK                            x       y       z     vdW  Elec       q    Type
REMARK                         _______ _______ _______ _____ _____    ______ ____
ROOT
ATOM      1  C   UNL     1      45.059   5.947  12.305  0.00  0.00    +0.000 C 
ATOM      2  C   UNL     1      44.846   7.130  11.389  0.00  0.00    +0.000 C 
ATOM      3  C   UNL     1      43.875   6.881  12.497  0.00  0.00    +0.000 C 
ENDROOT
BRANCH   1   8
ATOM      4  C   UNL     1      49.827   7.825  12.861  0.00  0.00    +0.000 A 
ATOM      5  C   UNL     1      49.066   7.555  11.724  0.00  0.00    +0.000 A 
ATOM      6  C   UNL     1      47.851   6.903  11.871  0.00  0.00    +0.000 A 
ATOM      7  C   UNL     1      47.368   6.583  13.139  0.00  0.00    +0.000 A 
ATOM      8  N   UNL     1      46.100   6.035  13.341  0.00  0.00    +0.000 N 
ATOM      9  N   UNL     1      48.116   6.790  14.241  0.00  0.00    +0.000 NA
ATOM     10  C   UNL     1      49.331   7.378  14.080  0.00  0.00    +0.000 A 
ATOM     11  H   UNL     1      45.889   5.953  14.328  0.00  0.00    +0.000 HD
BRANCH   4  13
ATOM     12  N   UNL     1      52.081   8.141  13.661  0.00  0.00    +0.000 N 
ATOM     13  C   UNL     1      51.111   8.556  12.799  0.00  0.00    +0.000 C 
ATOM     14  O   UNL     1      51.291   9.455  11.997  0.00  0.00    +0.000 OA
ATOM     15  H   UNL     1      52.995   8.557  13.539  0.00  0.00    +0.000 HD
ATOM     16  H   UNL     1      52.041   7.251  14.148  0.00  0.00    +0.000 HD
ENDBRANCH   4  13
ENDBRANCH   1   8
BRANCH   1  17
ATOM     17  C   UNL     1      44.848   4.526  11.768  0.00  0.00    +0.000 A 
ATOM     18  C   UNL     1      43.758   3.746  12.161  0.00  0.00    +0.000 A 
ATOM     19  C   UNL     1      43.397   2.649  11.389  0.00  0.00    +0.000 A 
ATOM     20  N   UNL     1      44.037   2.272  10.259  0.00  0.00    +0.000 NA
ATOM     21  C   UNL     1      45.137   2.982   9.900  0.00  0.00    +0.000 A 
ATOM     22  C   UNL     1      45.593   4.047  10.678  0.00  0.00    +0.000 A 
BRANCH  21  23
ATOM     23  C   UNL     1      45.765   2.674   8.589  0.00  0.00    +0.000 A 
ATOM     24  C   UNL     1      45.976   3.646   7.612  0.00  0.00    +0.000 A 
ATOM     25  C   UNL     1      46.598   3.287   6.412  0.00  0.00    +0.000 A 
ATOM     26  C   UNL     1      46.997   1.976   6.216  0.00  0.00    +0.000 A 
ATOM     27  C   UNL     1      46.775   1.070   7.233  0.00  0.00    +0.000 A 
ATOM     28  N   UNL     1      46.181   1.385   8.405  0.00  0.00    +0.000 NA
ENDBRANCH  21  23
ENDBRANCH   1  17
TORSDOF 4
ENDMDL
MODEL 4
REMARK VINA RESULT:    -7.240      3.035      7.643
REMARK INTER + INTRA:          -9.092
REMARK INTER:                  -9.061
REMARK INTRA:                  -0.032
REMARK UNBOUND:                -0.159
REMARK  Name = 
REMARK  4 active torsions:
REMARK  status: ('A' for Active; 'I' for Inactive)
REMARK    1  A    between atoms: C_2  and  C_4
REMARK    2  A    between atoms: N_8  and  C_9
REMARK    3  A    between atoms: C_9  and  C_10
REMARK    4  A    between atoms: C_14  and  C_15
REMARK                            x       y       z     vdW  Elec       q    Type
REMARK                         _______ _______ _______ _____ _____    ______ ____
ROOT
ATOM      1  C   UNL     1      48.362   7.594  12.810  0.00  0.00    +0.000 C 
ATOM      2  C   UNL     1      49.484   7.184  11.884  0.00  0.00    +0.000 C 
ATOM      3  C   UNL     1      49.154   8.634  12.034  0.00  0.00    +0.000 C 
ENDROOT
BRANCH   1   8
ATOM      4  C   UNL     1      47.857   4.359  16.791  0.00  0.00    +0.000 A 
ATOM      5  C   UNL     1      47.312   4.338  15.508  0.00  0.00    +0.000 A 
ATOM      6  C   UNL     1      47.504   5.435  14.681  0.00  0.00    +0.000 A 
ATOM      7  C   UNL     1      48.285   6.510  15.102  0.00  0.00    +0.000 A 
ATOM      8  N   UNL     1      48.604   7.578  14.262  0.00  0.00    +0.000 N 
ATOM      9  N   UNL     1      48.774   6.566  16.357  0.00  0.00    +0.000 NA
ATOM     10  C   UNL     1      48.531   5.511  17.178  0.00  0.00    +0.000 A 
ATOM     11  H   UNL     1      49.250   8.217  14.709  0.00  0.00    +0.000 HD
BRANCH   4  13
ATOM     12  N   UNL     1      48.787   3.017  18.567  0.00  0.00    +0.000 N 
ATOM     13  C   UNL     1      47.739   3.214  17.720  0.00  0.00    +0.000 C 
ATOM     14  O   UNL     1      46.742   2.514  17.741  0.00  0.00    +0.000 OA
ATOM     15  H   UNL     1      48.658   2.313  19.282  0.00  0.00    +0.000 HD
ATOM     16  H   UNL     1      49.497   3.722  18.739  0.00  0.00    +0.000 HD
ENDBRANCH   4  13
ENDBRANCH   1   8
BRANCH   1  17
ATOM     17  C   UNL     1      46.911   7.278  12.427  0.00  0.00    +0.000 A 
ATOM     18  C   UNL     1      45.910   8.251  12.472  0.00  0.00    +0.000 A 
ATOM     19  C   UNL     1      44.728   8.040  11.774  0.00  0.00    +0.000 A 
ATOM     20  N   UNL     1      44.469   6.936  11.037  0.00  0.00    +0.000 NA
ATOM     21  C   UNL     1      45.405   5.953  11.037  0.00  0.00    +0.000 A 
ATOM     22  C   UNL     1      46.579   6.076  11.781  0.00  0.00    +0.000 A 
BRANCH  21  23
ATOM     23  C   UNL     1      45.202   4.801  10.120  0.00  0.00    +0.000 A 
ATOM     24  C   UNL     1      45.646   4.807   8.798  0.00  0.00    +0.000 A 
ATOM     25  C   UNL     1      45.444   3.675   8.003  0.00  0.00    +0.000 A 
ATOM     26  C   UNL     1      44.811   2.567   8.541  0.00  0.00    +0.000 A 
ATOM     27  C   UNL     1      44.416   2.623   9.861  0.00  0.00    +0.000 A 
ATOM     28  N   UNL     1      44.600   3.698  10.658  0.00  0.00    +0.000 NA
ENDBRANCH  21  23
ENDBRANCH   1  17
TORSDOF 4
ENDMDL
MODEL 5
REMARK VINA RESULT:    -6.711      2.845      4.376
REMARK INTER + INTRA:          -8.439
REMARK INTER:                  -8.660
REMARK INTRA:                   0.221
REMARK UNBOUND:                -0.159
REMARK  Name = 
REMARK  4 active torsions:
REMARK  status: ('A' for Active; 'I' for Inactive)
REMARK    1  A    between atoms: C_2  and  C_4
REMARK    2  A    between atoms: N_8  and  C_9
REMARK    3  A    between atoms: C_9  and  C_10
REMARK    4  A    between atoms: C_14  and  C_15
REMARK                            x       y       z     vdW  Elec       q    Type
REMARK                         _______ _______ _______ _____ _____    ______ ____
ROOT
ATOM      1  C   UNL     1      47.156   8.244  13.141  0.00  0.00    +0.000 C 
ATOM      2  C   UNL     1      47.317   9.514  12.338  0.00  0.00    +0.000 C 
ATOM      3  C   UNL     1      47.686   8.206  11.717  0.00  0.00    +0.000 C 
ENDROOT
BRANCH   1   8
ATOM      4  C   UNL     1      44.388   4.188  11.575  0.00  0.00    +0.000 A 
ATOM      5  C   UNL     1      45.571   4.743  11.089  0.00  0.00    +0.000 A 
ATOM      6  C   UNL     1      46.017   5.942  11.623  0.00  0.00    +0.000 A 
ATOM      7  C   UNL     1      45.329   6.548  12.674  0.00  0.00    +0.000 A 
ATOM      8  N   UNL     1      45.804   7.690  13.321  0.00  0.00    +0.000 N 
ATOM      9  N   UNL     1      44.157   6.050  13.118  0.00  0.00    +0.000 NA
ATOM     10  C   UNL     1      43.700   4.904  12.547  0.00  0.00    +0.000 A 
ATOM     11  H   UNL     1      45.221   7.933  14.112  0.00  0.00    +0.000 HD
BRANCH   4  13
ATOM     12  N   UNL     1      44.510   2.342  10.026  0.00  0.00    +0.000 N 
ATOM     13  C   UNL     1      43.866   2.890  11.094  0.00  0.00    +0.000 C 
ATOM     14  O   UNL     1      42.935   2.335  11.650  0.00  0.00    +0.000 OA
ATOM     15  H   UNL     1      44.234   1.403   9.771  0.00  0.00    +0.000 HD
ATOM     16  H   UNL     1      45.425   2.654   9.714  0.00  0.00    +0.000 HD
ENDBRANCH   4  13
ENDBRANCH   1   8
BRANCH   1  17
ATOM     17  C   UNL     1      48.091   7.973  14.326  0.00  0.00    +0.000 A 
ATOM     18  C   UNL     1      48.582   9.007  15.127  0.00  0.00    +0.000 A 
ATOM     19  C   UNL     1      49.097   8.707  16.380  0.00  0.00    +0.000 A 
ATOM     20  N   UNL     1      49.161   7.458  16.896  0.00  0.00    +0.000 NA
ATOM     21  C   UNL     1      48.748   6.436  16.103  0.00  0.00    +0.000 A 
ATOM     22  C   UNL     1      48.292   6.669  14.805  0.00  0.00    +0.000 A 
BRANCH  21  23
ATOM     23  C   UNL     1      48.675   5.078  16.703  0.00  0.00    +0.000 A 
ATOM     24  C   UNL     1      47.466   4.415  16.913  0.00  0.00    +0.000 A 
ATOM     25  C   UNL     1      47.477   3.127  17.457  0.00  0.00    +0.000 A 
ATOM     26  C   UNL     1      48.686   2.530  17.774  0.00  0.00    +0.000 A 
ATOM     27  C   UNL     1      49.844   3.236  17.521  0.00  0.00    +0.000 A 
ATOM     28  N   UNL     1      49.868   4.479  16.993  0.00  0.00    +0.000 NA
ENDBRANCH  21  23
ENDBRANCH   1  17
TORSDOF 4
ENDMDL
MODEL 6
REMARK VINA RESULT:    -6.608      3.870      5.442
REMARK INTER + INTRA:          -8.312
REMARK INTER:                  -8.012
REMARK INTRA:                  -0.299
REMARK UNBOUND:                -0.159
REMARK  Name = 
REMARK  4 active torsions:
REMARK  status: ('A' for Active; 'I' for Inactive)
REMARK    1  A    between atoms: C_2  and  C_4
REMARK    2  A    between atoms: N_8  and  C_9
REMARK    3  A    between atoms: C_9  and  C_10
REMARK    4  A    between atoms: C_14  and  C_15
REMARK                            x       y       z     vdW  Elec       q    Type
REMARK                         _______ _______ _______ _____ _____    ______ ____
ROOT
ATOM      1  C   UNL     1      48.997   8.448  12.610  0.00  0.00    +0.000 C 
ATOM      2  C   UNL     1      50.038   9.220  11.833  0.00  0.00    +0.000 C 
ATOM      3  C   UNL     1      49.973   7.734  11.689  0.00  0.00    +0.000 C 
ENDROOT
BRANCH   1   8
ATOM      4  C   UNL     1      44.830   5.414  12.649  0.00  0.00    +0.000 A 
ATOM      5  C   UNL     1      46.178   5.137  12.875  0.00  0.00    +0.000 A 
ATOM      6  C   UNL     1      47.114   6.135  12.648  0.00  0.00    +0.000 A 
ATOM      7  C   UNL     1      46.708   7.412  12.266  0.00  0.00    +0.000 A 
ATOM      8  N   UNL     1      47.602   8.477  12.143  0.00  0.00    +0.000 N 
ATOM      9  N   UNL     1      45.414   7.679  11.994  0.00  0.00    +0.000 NA
ATOM     10  C   UNL     1      44.512   6.677  12.164  0.00  0.00    +0.000 A 
ATOM     11  H   UNL     1      47.116   9.343  11.945  0.00  0.00    +0.000 HD
BRANCH   4  13
ATOM     12  N   UNL     1      44.112   3.114  12.766  0.00  0.00    +0.000 N 
ATOM     13  C   UNL     1      43.764   4.423  12.909  0.00  0.00    +0.000 C 
ATOM     14  O   UNL     1      42.650   4.767  13.264  0.00  0.00    +0.000 OA
ATOM     15  H   UNL     1      43.423   2.433  13.058  0.00  0.00    +0.000 HD
ATOM     16  H   UNL     1      45.077   2.802  12.721  0.00  0.00    +0.000 HD
ENDBRANCH   4  13
ENDBRANCH   1   8
BRANCH   1  17
ATOM     17  C   UNL     1      49.130   8.320  14.133  0.00  0.00    +0.000 A 
ATOM     18  C   UNL     1      48.797   9.370  14.992  0.00  0.00    +0.000 A 
ATOM     19  C   UNL     1      48.570   9.100  16.334  0.00  0.00    +0.000 A 
ATOM     20  N   UNL     1      48.649   7.868  16.885  0.00  0.00    +0.000 NA
ATOM     21  C   UNL     1      49.035   6.848  16.077  0.00  0.00    +0.000 A 
ATOM     22  C   UNL     1      49.352   7.071  14.736  0.00  0.00    +0.000 A 
BRANCH  21  23
ATOM     23  C   UNL     1      48.987   5.469  16.628  0.00  0.00    +0.000 A 
ATOM     24  C   UNL     1      47.808   4.726  16.691  0.00  0.00    +0.000 A 
ATOM     25  C   UNL     1      47.845   3.424  17.197  0.00  0.00    +0.000 A 
ATOM     26  C   UNL     1      49.050   2.891  17.623  0.00  0.00    +0.000 A 
ATOM     27  C   UNL     1      50.180   3.674  17.514  0.00  0.00    +0.000 A 
ATOM     28  N   UNL     1      50.180   4.934  17.026  0.00  0.00    +0.000 NA
ENDBRANCH  21  23
ENDBRANCH   1  17
TORSDOF 4
ENDMDL
MODEL 7
REMARK VINA RESULT:    -6.597      4.256      7.366
REMARK INTER + INTRA:          -8.299
REMARK INTER:                  -7.535
REMARK INTRA:                  -0.764
REMARK UNBOUND:                -0.159
REMARK  Name = 
REMARK  4 active torsions:
REMARK  status: ('A' for Active; 'I' for Inactive)
REMARK    1  A    between atoms: C_2  and  C_4
REMARK    2  A    between atoms: N_8  and  C_9
REMARK    3  A    between atoms: C_9  and  C_10
REMARK    4  A    between atoms: C_14  and  C_15
REMARK                            x       y       z     vdW  Elec       q    Type
REMARK                         _______ _______ _______ _____ _____    ______ ____
ROOT
ATOM      1  C   UNL     1      48.514   7.259  13.604  0.00  0.00    +0.000 C 
ATOM      2  C   UNL     1      48.819   8.206  14.742  0.00  0.00    +0.000 C 
ATOM      3  C   UNL     1      48.796   6.735  15.003  0.00  0.00    +0.000 C 
ENDROOT
BRANCH   1   8
ATOM      4  C   UNL     1      51.579   9.877  10.392  0.00  0.00    +0.000 A 
ATOM      5  C   UNL     1      50.419  10.248  11.070  0.00  0.00    +0.000 A 
ATOM      6  C   UNL     1      49.708   9.278  11.760  0.00  0.00    +0.000 A 
ATOM      7  C   UNL     1      50.182   7.969  11.830  0.00  0.00    +0.000 A 
ATOM      8  N   UNL     1      49.565   6.989  12.610  0.00  0.00    +0.000 N 
ATOM      9  N   UNL     1      51.274   7.585  11.137  0.00  0.00    +0.000 NA
ATOM     10  C   UNL     1      51.930   8.533  10.417  0.00  0.00    +0.000 A 
ATOM     11  H   UNL     1      50.098   6.128  12.608  0.00  0.00    +0.000 HD
BRANCH   4  13
ATOM     12  N   UNL     1      53.507  11.327  10.345  0.00  0.00    +0.000 N 
ATOM     13  C   UNL     1      52.422  10.856   9.671  0.00  0.00    +0.000 C 
ATOM     14  O   UNL     1      52.169  11.188   8.526  0.00  0.00    +0.000 OA
ATOM     15  H   UNL     1      54.149  11.902   9.814  0.00  0.00    +0.000 HD
ATOM     16  H   UNL     1      53.871  10.884  11.182  0.00  0.00    +0.000 HD
ENDBRANCH   4  13
ENDBRANCH   1   8
BRANCH   1  17
ATOM     17  C   UNL     1      47.095   7.204  13.025  0.00  0.00    +0.000 A 
ATOM     18  C   UNL     1      46.281   8.338  12.963  0.00  0.00    +0.000 A 
ATOM     19  C   UNL     1      45.185   8.339  12.111  0.00  0.00    +0.000 A 
ATOM     20  N   UNL     1      44.838   7.299  11.318  0.00  0.00    +0.000 NA
ATOM     21  C   UNL     1      45.581   6.167  11.416  0.00  0.00    +0.000 A 
ATOM     22  C   UNL     1      46.648   6.080  12.311  0.00  0.00    +0.000 A 
BRANCH  21  23
ATOM     23  C   UNL     1      45.306   5.071  10.452  0.00  0.00    +0.000 A 
ATOM     24  C   UNL     1      45.743   5.108   9.128  0.00  0.00    +0.000 A 
ATOM     25  C   UNL     1      45.470   4.026   8.286  0.00  0.00    +0.000 A 
ATOM     26  C   UNL     1      44.775   2.935   8.779  0.00  0.00    +0.000 A 
ATOM     27  C   UNL     1      44.390   2.956  10.104  0.00  0.00    +0.000 A 
ATOM     28  N   UNL     1      44.641   3.983  10.945  0.00  0.00    +0.000 NA
ENDBRANCH  21  23
ENDBRANCH   1  17
TORSDOF 4
ENDMDL
MODEL 8
REMARK VINA RESULT:    -6.583      4.113      8.599
REMARK INTER + INTRA:          -8.281
REMARK INTER:                  -7.891
REMARK INTRA:                  -0.390
REMARK UNBOUND:                -0.159
REMARK  Name = 
REMARK  4 active torsions:
REMARK  status: ('A' for Active; 'I' for Inactive)
REMARK    1  A    between atoms: C_2  and  C_4
REMARK    2  A    between atoms: N_8  and  C_9
REMARK    3  A    between atoms: C_9  and  C_10
REMARK    4  A    between atoms: C_14  and  C_15
REMARK                            x       y       z     vdW  Elec       q    Type
REMARK                         _______ _______ _______ _____ _____    ______ ____
ROOT
ATOM      1  C   UNL     1      48.493   4.390  17.458  0.00  0.00    +0.000 C 
ATOM      2  C   UNL     1      48.846   4.989  18.800  0.00  0.00    +0.000 C 
ATOM      3  C   UNL     1      47.506   4.355  18.613  0.00  0.00    +0.000 C 
ENDROOT
BRANCH   1   8
ATOM      4  C   UNL     1      52.958   1.861  17.941  0.00  0.00    +0.000 A 
ATOM      5  C   UNL     1      52.640   3.211  18.082  0.00  0.00    +0.000 A 
ATOM      6  C   UNL     1      51.366   3.638  17.742  0.00  0.00    +0.000 A 
ATOM      7  C   UNL     1      50.399   2.722  17.329  0.00  0.00    +0.000 A 
ATOM      8  N   UNL     1      49.074   3.088  17.091  0.00  0.00    +0.000 N 
ATOM      9  N   UNL     1      50.708   1.423  17.138  0.00  0.00    +0.000 NA
ATOM     10  C   UNL     1      51.977   1.027  17.420  0.00  0.00    +0.000 A 
ATOM     11  H   UNL     1      48.500   2.278  16.888  0.00  0.00    +0.000 HD
BRANCH   4  13
ATOM     12  N   UNL     1      54.269   0.105  18.951  0.00  0.00    +0.000 N 
ATOM     13  C   UNL     1      54.278   1.315  18.324  0.00  0.00    +0.000 C 
ATOM     14  O   UNL     1      55.311   1.904  18.058  0.00  0.00    +0.000 OA
ATOM     15  H   UNL     1      55.171  -0.326  19.106  0.00  0.00    +0.000 HD
ATOM     16  H   UNL     1      53.459  -0.508  18.953  0.00  0.00    +0.000 HD
ENDBRANCH   4  13
ENDBRANCH   1   8
BRANCH   1  17
ATOM     17  C   UNL     1      48.250   5.312  16.257  0.00  0.00    +0.000 A 
ATOM     18  C   UNL     1      49.154   6.320  15.909  0.00  0.00    +0.000 A 
ATOM     19  C   UNL     1      49.101   6.867  14.634  0.00  0.00    +0.000 A 
ATOM     20  N   UNL     1      48.219   6.488  13.682  0.00  0.00    +0.000 NA
ATOM     21  C   UNL     1      47.293   5.556  14.025  0.00  0.00    +0.000 A 
ATOM     22  C   UNL     1      47.249   5.026  15.316  0.00  0.00    +0.000 A 
BRANCH  21  23
ATOM     23  C   UNL     1      46.412   5.024  12.953  0.00  0.00    +0.000 A 
ATOM     24  C   UNL     1      46.089   5.759  11.813  0.00  0.00    +0.000 A 
ATOM     25  C   UNL     1      45.277   5.182  10.833  0.00  0.00    +0.000 A 
ATOM     26  C   UNL     1      44.810   3.890  11.008  0.00  0.00    +0.000 A 
ATOM     27  C   UNL     1      45.185   3.213  12.150  0.00  0.00    +0.000 A 
ATOM     28  N   UNL     1      45.972   3.740  13.113  0.00  0.00    +0.000 NA
ENDBRANCH  21  23
ENDBRANCH   1  17
TORSDOF 4
ENDMDL
MODEL 9
REMARK VINA RESULT:    -6.380      3.963      8.469
REMARK INTER + INTRA:          -8.030
REMARK INTER:                  -7.906
REMARK INTRA:                  -0.125
REMARK UNBOUND:                -0.159
REMARK  Name = 
REMARK  4 active torsions:
REMARK  status: ('A' for Active; 'I' for Inactive)
REMARK    1  A    between atoms: C_2  and  C_4
REMARK    2  A    between atoms: N_8  and  C_9
REMARK    3  A    between atoms: C_9  and  C_10
REMARK    4  A    between atoms: C_14  and  C_15
REMARK                            x       y       z     vdW  Elec       q    Type
REMARK                         _______ _______ _______ _____ _____    ______ ____
ROOT
ATOM      1  C   UNL     1      48.927   7.789  12.586  0.00  0.00    +0.000 C 
ATOM      2  C   UNL     1      49.756   8.123  11.368  0.00  0.00    +0.000 C 
ATOM      3  C   UNL     1      49.495   9.185  12.386  0.00  0.00    +0.000 C 
ENDROOT
BRANCH   1   8
ATOM      4  C   UNL     1      48.775   7.496  17.730  0.00  0.00    +0.000 A 
ATOM      5  C   UNL     1      48.346   8.487  16.847  0.00  0.00    +0.000 A 
ATOM      6  C   UNL     1      48.655   8.363  15.501  0.00  0.00    +0.000 A 
ATOM      7  C   UNL     1      49.322   7.233  15.029  0.00  0.00    +0.000 A 
ATOM      8  N   UNL     1      49.547   7.010  13.670  0.00  0.00    +0.000 N 
ATOM      9  N   UNL     1      49.787   6.294  15.878  0.00  0.00    +0.000 NA
ATOM     10  C   UNL     1      49.529   6.456  17.202  0.00  0.00    +0.000 A 
ATOM     11  H   UNL     1      49.965   6.101  13.512  0.00  0.00    +0.000 HD
BRANCH   4  13
ATOM     12  N   UNL     1      47.819   8.648  19.623  0.00  0.00    +0.000 N 
ATOM     13  C   UNL     1      48.450   7.528  19.172  0.00  0.00    +0.000 C 
ATOM     14  O   UNL     1      48.706   6.585  19.901  0.00  0.00    +0.000 OA
ATOM     15  H   UNL     1      47.490   8.622  20.579  0.00  0.00    +0.000 HD
ATOM     16  H   UNL     1      47.379   9.319  19.002  0.00  0.00    +0.000 HD
ENDBRANCH   4  13
ENDBRANCH   1   8
BRANCH   1  17
ATOM     17  C   UNL     1      47.423   7.533  12.431  0.00  0.00    +0.000 A 
ATOM     18  C   UNL     1      46.483   8.555  12.583  0.00  0.00    +0.000 A 
ATOM     19  C   UNL     1      45.203   8.380  12.074  0.00  0.00    +0.000 A 
ATOM     20  N   UNL     1      44.790   7.267  11.426  0.00  0.00    +0.000 NA
ATOM     21  C   UNL     1      45.671   6.240  11.328  0.00  0.00    +0.000 A 
ATOM     22  C   UNL     1      46.947   6.328  11.888  0.00  0.00    +0.000 A 
BRANCH  21  23
ATOM     23  C   UNL     1      45.285   5.070  10.497  0.00  0.00    +0.000 A 
ATOM     24  C   UNL     1      45.663   4.942   9.161  0.00  0.00    +0.000 A 
ATOM     25  C   UNL     1      45.286   3.799   8.449  0.00  0.00    +0.000 A 
ATOM     26  C   UNL     1      44.547   2.814   9.082  0.00  0.00    +0.000 A 
ATOM     27  C   UNL     1      44.225   2.997  10.411  0.00  0.00    +0.000 A 
ATOM     28  N   UNL     1      44.578   4.086  11.128  0.00  0.00    +0.000 NA
ENDBRANCH  21  23
ENDBRANCH   1  17
TORSDOF 4
ENDMDL
