MODEL 1
REMARK VINA RESULT:    -9.229      0.000      0.000
REMARK INTER + INTRA:         -13.114
REMARK INTER:                 -12.196
REMARK INTRA:                  -0.918
REMARK UNBOUND:                -0.918
REMARK  Name = 
REMARK  6 active torsions:
REMARK  status: ('A' for Active; 'I' for Inactive)
REMARK    1  A    between atoms: C_2  and  C_19
REMARK    2  A    between atoms: N_3  and  C_4
REMARK    3  A    between atoms: C_4  and  C_5
REMARK    4  A    between atoms: C_8  and  C_9
REMARK    5  A    between atoms: C_9  and  C_10
REMARK    6  A    between atoms: C_14  and  O_15
REMARK                            x       y       z     vdW  Elec       q    Type
REMARK                         _______ _______ _______ _____ _____    ______ ____
ROOT
ATOM      1  C   UNL     1      46.201   7.535  12.805  0.00  0.00    +0.000 C 
ENDROOT
BRANCH   1   2
ATOM      2  C   UNL     1      45.748   6.443  11.872  0.00  0.00    +0.000 A 
ATOM      3  C   UNL     1      44.888   5.438  12.328  0.00  0.00    +0.000 A 
ATOM      4  C   UNL     1      44.435   4.442  11.460  0.00  0.00    +0.000 A 
ATOM      5  C   UNL     1      44.849   4.419  10.121  0.00  0.00    +0.000 A 
ATOM      6  C   UNL     1      45.739   5.405   9.674  0.00  0.00    +0.000 A 
ATOM      7  C   UNL     1      46.193   6.401  10.544  0.00  0.00    +0.000 A 
BRANCH   5   8
ATOM      8  C   UNL     1      44.353   3.345   9.180  0.00  0.00    +0.000 C 
BRANCH   8   9
ATOM      9  C   UNL     1      45.411   2.747   8.280  0.00  0.00    +0.000 A 
ATOM     10  C   UNL     1      45.944   3.484   7.212  0.00  0.00    +0.000 A 
ATOM     11  C   UNL     1      46.876   2.908   6.343  0.00  0.00    +0.000 A 
ATOM     12  C   UNL     1      47.302   1.595   6.543  0.00  0.00    +0.000 A 
ATOM     13  C   UNL     1      46.801   0.873   7.621  0.00  0.00    +0.000 A 
ATOM     14  C   UNL     1      45.862   1.434   8.484  0.00  0.00    +0.000 A 
BRANCH  13  15
ATOM     15  O   UNL     1      47.205  -0.406   7.865  0.00  0.00    +0.000 OA
ATOM     16  H   UNL     1      48.076  -0.374   8.294  0.00  0.00    +0.000 HD
ENDBRANCH  13  15
ENDBRANCH   8   9
ENDBRANCH   5   8
ENDBRANCH   1   2
BRANCH   1  19
ATOM     17  O   UNL     1      48.913   6.794  13.037  0.00  0.00    +0.000 OA
ATOM     18  C   UNL     1      48.183   6.709  14.021  0.00  0.00    +0.000 C 
ATOM     19  N   UNL     1      46.845   6.993  13.974  0.00  0.00    +0.000 N 
ATOM     20  H   UNL     1      46.326   7.079  14.840  0.00  0.00    +0.000 HD
BRANCH  18  21
ATOM     21  C   UNL     1      48.693   6.237  15.314  0.00  0.00    +0.000 A 
ATOM     22  C   UNL     1      49.721   6.927  15.945  0.00  0.00    +0.000 A 
ATOM     23  S   UNL     1      50.196   6.236  17.431  0.00  0.00    +0.000 S 
ATOM     24  C   UNL     1      49.015   5.016  17.304  0.00  0.00    +0.000 A 
ATOM     25  N   UNL     1      48.861   4.088  18.287  0.00  0.00    +0.000 NA
ATOM     26  C   UNL     1      47.903   3.251  18.080  0.00  0.00    +0.000 A 
ATOM     27  N   UNL     1      47.097   3.242  16.973  0.00  0.00    +0.000 N 
ATOM     28  C   UNL     1      47.269   4.106  15.921  0.00  0.00    +0.000 A 
ATOM     29  O   UNL     1      46.626   3.974  14.884  0.00  0.00    +0.000 OA
ATOM     30  C   UNL     1      48.293   5.112  16.127  0.00  0.00    +0.000 A 
ATOM     31  H   UNL     1      46.386   2.533  16.855  0.00  0.00    +0.000 HD
ENDBRANCH  18  21
ENDBRANCH   1  19
TORSDOF 6
ENDMDL
MODEL 2
REMARK VINA RESULT:    -8.838      0.972      1.606
REMARK INTER + INTRA:         -12.597
REMARK INTER:                 -11.853
REMARK INTRA:                  -0.744
REMARK UNBOUND:                -0.918
REMARK  Name = 
REMARK  6 active torsions:
REMARK  status: ('A' for Active; 'I' for Inactive)
REMARK    1  A    between atoms: C_2  and  C_19
REMARK    2  A    between atoms: N_3  and  C_4
REMARK    3  A    between atoms: C_4  and  C_5
REMARK    4  A    between atoms: C_8  and  C_9
REMARK    5  A    between atoms: C_9  and  C_10
REMARK    6  A    between atoms: C_14  and  O_15
REMARK                            x       y       z     vdW  Elec       q    Type
REMARK                         _______ _______ _______ _____ _____    ______ ____
ROOT
ATOM      1  C   UNL     1      46.436   7.387  12.709  0.00  0.00    +0.000 C 
ENDROOT
BRANCH   1   2
ATOM      2  C   UNL     1      45.898   6.274  11.850  0.00  0.00    +0.000 A 
ATOM      3  C   UNL     1      46.077   6.304  10.463  0.00  0.00    +0.000 A 
ATOM      4  C   UNL     1      45.612   5.258   9.663  0.00  0.00    +0.000 A 
ATOM      5  C   UNL     1      44.940   4.168  10.232  0.00  0.00    +0.000 A 
ATOM      6  C   UNL     1      44.729   4.155  11.617  0.00  0.00    +0.000 A 
ATOM      7  C   UNL     1      45.194   5.203  12.417  0.00  0.00    +0.000 A 
BRANCH   5   8
ATOM      8  C   UNL     1      44.443   3.033   9.367  0.00  0.00    +0.000 C 
BRANCH   8   9
ATOM      9  C   UNL     1      45.420   2.556   8.316  0.00  0.00    +0.000 A 
ATOM     10  C   UNL     1      45.987   1.275   8.393  0.00  0.00    +0.000 A 
ATOM     11  C   UNL     1      46.938   0.858   7.456  0.00  0.00    +0.000 A 
ATOM     12  C   UNL     1      47.318   1.708   6.418  0.00  0.00    +0.000 A 
ATOM     13  C   UNL     1      46.733   2.966   6.320  0.00  0.00    +0.000 A 
ATOM     14  C   UNL     1      45.795   3.395   7.256  0.00  0.00    +0.000 A 
BRANCH  13  15
ATOM     15  O   UNL     1      47.060   3.822   5.309  0.00  0.00    +0.000 OA
ATOM     16  H   UNL     1      47.962   3.615   5.014  0.00  0.00    +0.000 HD
ENDBRANCH  13  15
ENDBRANCH   8   9
ENDBRANCH   5   8
ENDBRANCH   1   2
BRANCH   1  19
ATOM     17  O   UNL     1      49.107   6.656  13.242  0.00  0.00    +0.000 OA
ATOM     18  C   UNL     1      48.280   6.604  14.148  0.00  0.00    +0.000 C 
ATOM     19  N   UNL     1      46.954   6.886  13.955  0.00  0.00    +0.000 N 
ATOM     20  H   UNL     1      46.350   7.000  14.761  0.00  0.00    +0.000 HD
BRANCH  18  21
ATOM     21  C   UNL     1      48.654   6.175  15.502  0.00  0.00    +0.000 A 
ATOM     22  C   UNL     1      49.536   6.944  16.251  0.00  0.00    +0.000 A 
ATOM     23  S   UNL     1      49.866   6.296  17.794  0.00  0.00    +0.000 S 
ATOM     24  C   UNL     1      48.809   4.988  17.532  0.00  0.00    +0.000 A 
ATOM     25  N   UNL     1      48.600   4.053  18.498  0.00  0.00    +0.000 NA
ATOM     26  C   UNL     1      47.743   3.144  18.180  0.00  0.00    +0.000 A 
ATOM     27  N   UNL     1      47.089   3.070  16.979  0.00  0.00    +0.000 N 
ATOM     28  C   UNL     1      47.330   3.943  15.947  0.00  0.00    +0.000 A 
ATOM     29  O   UNL     1      46.837   3.759  14.838  0.00  0.00    +0.000 OA
ATOM     30  C   UNL     1      48.239   5.025  16.271  0.00  0.00    +0.000 A 
ATOM     31  H   UNL     1      46.456   2.308  16.780  0.00  0.00    +0.000 HD
ENDBRANCH  18  21
ENDBRANCH   1  19
TORSDOF 6
ENDMDL
MODEL 3
REMARK VINA RESULT:    -8.777      1.577      2.273
REMARK INTER + INTRA:         -12.517
REMARK INTER:                 -11.650
REMARK INTRA:                  -0.866
REMARK UNBOUND:                -0.918
REMARK  Name = 
REMARK  6 active torsions:
REMARK  status: ('A' for Active; 'I' for Inactive)
REMARK    1  A    between atoms: C_2  and  C_19
REMARK    2  A    between atoms: N_3  and  C_4
REMARK    3  A    between atoms: C_4  and  C_5
REMARK    4  A    between atoms: C_8  and  C_9
REMARK    5  A    between atoms: C_9  and  C_10
REMARK    6  A    between atoms: C_14  and  O_15
REMARK                            x       y       z     vdW  Elec       q    Type
REMARK                         _______ _______ _______ _____ _____    ______ ____
ROOT
ATOM      1  C   UNL     1      46.599   6.724  13.227  0.00  0.00    +0.000 C 
ENDROOT
BRANCH   1   2
ATOM      2  C   UNL     1      46.041   5.920  12.083  0.00  0.00    +0.000 A 
ATOM      3  C   UNL     1      46.257   6.331  10.762  0.00  0.00    +0.000 A 
ATOM      4  C   UNL     1      45.773   5.571   9.695  0.00  0.00    +0.000 A 
ATOM      5  C   UNL     1      45.047   4.395   9.925  0.00  0.00    +0.000 A 
ATOM      6  C   UNL     1      44.801   4.004  11.248  0.00  0.00    +0.000 A 
ATOM      7  C   UNL     1      45.285   4.765  12.316  0.00  0.00    +0.000 A 
BRANCH   5   8
ATOM      8  C   UNL     1      44.530   3.570   8.769  0.00  0.00    +0.000 C 
BRANCH   8   9
ATOM      9  C   UNL     1      45.593   2.844   7.977  0.00  0.00    +0.000 A 
ATOM     10  C   UNL     1      46.234   3.469   6.897  0.00  0.00    +0.000 A 
ATOM     11  C   UNL     1      47.172   2.776   6.126  0.00  0.00    +0.000 A 
ATOM     12  C   UNL     1      47.497   1.456   6.437  0.00  0.00    +0.000 A 
ATOM     13  C   UNL     1      46.888   0.845   7.527  0.00  0.00    +0.000 A 
ATOM     14  C   UNL     1      45.942   1.523   8.293  0.00  0.00    +0.000 A 
BRANCH  13  15
ATOM     15  O   UNL     1      47.190  -0.438   7.880  0.00  0.00    +0.000 OA
ATOM     16  H   UNL     1      46.363  -0.898   8.097  0.00  0.00    +0.000 HD
ENDBRANCH  13  15
ENDBRANCH   8   9
ENDBRANCH   5   8
ENDBRANCH   1   2
BRANCH   1  19
ATOM     17  O   UNL     1      49.061   6.296  14.536  0.00  0.00    +0.000 OA
ATOM     18  C   UNL     1      48.041   5.789  14.997  0.00  0.00    +0.000 C 
ATOM     19  N   UNL     1      46.820   5.902  14.389  0.00  0.00    +0.000 N 
ATOM     20  H   UNL     1      45.987   5.622  14.893  0.00  0.00    +0.000 HD
BRANCH  18  21
ATOM     21  C   UNL     1      48.076   4.972  16.217  0.00  0.00    +0.000 A 
ATOM     22  C   UNL     1      47.702   3.635  16.164  0.00  0.00    +0.000 A 
ATOM     23  S   UNL     1      47.795   2.840  17.670  0.00  0.00    +0.000 S 
ATOM     24  C   UNL     1      48.378   4.243  18.438  0.00  0.00    +0.000 A 
ATOM     25  N   UNL     1      48.698   4.236  19.760  0.00  0.00    +0.000 NA
ATOM     26  C   UNL     1      49.167   5.353  20.199  0.00  0.00    +0.000 A 
ATOM     27  N   UNL     1      49.329   6.485  19.444  0.00  0.00    +0.000 N 
ATOM     28  C   UNL     1      48.944   6.562  18.129  0.00  0.00    +0.000 A 
ATOM     29  O   UNL     1      48.966   7.631  17.527  0.00  0.00    +0.000 OA
ATOM     30  C   UNL     1      48.467   5.314  17.565  0.00  0.00    +0.000 A 
ATOM     31  H   UNL     1      49.668   7.341  19.860  0.00  0.00    +0.000 HD
ENDBRANCH  18  21
ENDBRANCH   1  19
TORSDOF 6
ENDMDL
MODEL 4
REMARK VINA RESULT:    -8.397      2.174      3.742
REMARK INTER + INTRA:         -12.015
REMARK INTER:                 -10.981
REMARK INTRA:                  -1.034
REMARK UNBOUND:                -0.918
REMARK  Name = 
REMARK  6 active torsions:
REMARK  status: ('A' for Active; 'I' for Inactive)
REMARK    1  A    between atoms: C_2  and  C_19
REMARK    2  A    between atoms: N_3  and  C_4
REMARK    3  A    between atoms: C_4  and  C_5
REMARK    4  A    between atoms: C_8  and  C_9
REMARK    5  A    between atoms: C_9  and  C_10
REMARK    6  A    between atoms: C_14  and  O_15
REMARK                            x       y       z     vdW  Elec       q    Type
REMARK                         _______ _______ _______ _____ _____    ______ ____
ROOT
ATOM      1  C   UNL     1      46.367   5.032  14.292  0.00  0.00    +0.000 C 
ENDROOT
BRANCH   1   2
ATOM      2  C   UNL     1      45.912   4.769  12.881  0.00  0.00    +0.000 A 
ATOM      3  C   UNL     1      46.019   5.769  11.908  0.00  0.00    +0.000 A 
ATOM      4  C   UNL     1      45.632   5.522  10.589  0.00  0.00    +0.000 A 
ATOM      5  C   UNL     1      45.112   4.274  10.219  0.00  0.00    +0.000 A 
ATOM      6  C   UNL     1      44.972   3.285  11.201  0.00  0.00    +0.000 A 
ATOM      7  C   UNL     1      45.358   3.533  12.522  0.00  0.00    +0.000 A 
BRANCH   5   8
ATOM      8  C   UNL     1      44.700   4.005   8.791  0.00  0.00    +0.000 C 
BRANCH   8   9
ATOM      9  C   UNL     1      45.659   3.143   8.001  0.00  0.00    +0.000 A 
ATOM     10  C   UNL     1      46.356   3.669   6.902  0.00  0.00    +0.000 A 
ATOM     11  C   UNL     1      47.195   2.855   6.135  0.00  0.00    +0.000 A 
ATOM     12  C   UNL     1      47.365   1.512   6.468  0.00  0.00    +0.000 A 
ATOM     13  C   UNL     1      46.702   0.997   7.576  0.00  0.00    +0.000 A 
ATOM     14  C   UNL     1      45.854   1.796   8.339  0.00  0.00    +0.000 A 
BRANCH  13  15
ATOM     15  O   UNL     1      46.855  -0.306   7.951  0.00  0.00    +0.000 OA
ATOM     16  H   UNL     1      46.878  -0.344   8.920  0.00  0.00    +0.000 HD
ENDBRANCH  13  15
ENDBRANCH   8   9
ENDBRANCH   5   8
ENDBRANCH   1   2
BRANCH   1  19
ATOM     17  O   UNL     1      48.681   5.370  15.869  0.00  0.00    +0.000 OA
ATOM     18  C   UNL     1      48.329   6.278  15.120  0.00  0.00    +0.000 C 
ATOM     19  N   UNL     1      47.187   6.213  14.368  0.00  0.00    +0.000 N 
ATOM     20  H   UNL     1      47.034   6.902  13.640  0.00  0.00    +0.000 HD
BRANCH  18  21
ATOM     21  C   UNL     1      49.090   7.530  15.025  0.00  0.00    +0.000 A 
ATOM     22  C   UNL     1      49.302   8.299  16.163  0.00  0.00    +0.000 A 
ATOM     23  S   UNL     1      50.195   9.722  15.869  0.00  0.00    +0.000 S 
ATOM     24  C   UNL     1      50.368   9.339  14.219  0.00  0.00    +0.000 A 
ATOM     25  N   UNL     1      51.073  10.148  13.384  0.00  0.00    +0.000 NA
ATOM     26  C   UNL     1      51.159   9.716  12.172  0.00  0.00    +0.000 A 
ATOM     27  N   UNL     1      50.588   8.559  11.713  0.00  0.00    +0.000 N 
ATOM     28  C   UNL     1      49.800   7.755  12.499  0.00  0.00    +0.000 A 
ATOM     29  O   UNL     1      49.186   6.808  12.017  0.00  0.00    +0.000 OA
ATOM     30  C   UNL     1      49.722   8.160  13.889  0.00  0.00    +0.000 A 
ATOM     31  H   UNL     1      50.662   8.296  10.740  0.00  0.00    +0.000 HD
ENDBRANCH  18  21
ENDBRANCH   1  19
TORSDOF 6
ENDMDL
MODEL 5
REMARK VINA RESULT:    -8.386      1.415      1.965
REMARK INTER + INTRA:         -12.001
REMARK INTER:                 -10.917
REMARK INTRA:                  -1.084
REMARK UNBOUND:                -0.918
REMARK  Name = 
REMARK  6 active torsions:
REMARK  status: ('A' for Active; 'I' for Inactive)
REMARK    1  A    between atoms: C_2  and  C_19
REMARK    2  A    between atoms: N_3  and  C_4
REMARK    3  A    between atoms: C_4  and  C_5
REMARK    4  A    between atoms: C_8  and  C_9
REMARK    5  A    between atoms: C_9  and  C_10
REMARK    6  A    between atoms: C_14  and  O_15
REMARK                            x       y       z     vdW  Elec       q    Type
REMARK                         _______ _______ _______ _____ _____    ______ ____
ROOT
ATOM      1  C   UNL     1      47.292   8.283  13.622  0.00  0.00    +0.000 C 
ENDROOT
BRANCH   1   2
ATOM      2  C   UNL     1      46.448   7.379  12.763  0.00  0.00    +0.000 A 
ATOM      3  C   UNL     1      46.811   6.040  12.579  0.00  0.00    +0.000 A 
ATOM      4  C   UNL     1      46.014   5.186  11.813  0.00  0.00    +0.000 A 
ATOM      5  C   UNL     1      44.846   5.658  11.200  0.00  0.00    +0.000 A 
ATOM      6  C   UNL     1      44.501   7.007  11.355  0.00  0.00    +0.000 A 
ATOM      7  C   UNL     1      45.300   7.862  12.121  0.00  0.00    +0.000 A 
BRANCH   5   8
ATOM      8  C   UNL     1      43.980   4.732  10.377  0.00  0.00    +0.000 C 
BRANCH   8   9
ATOM      9  C   UNL     1      44.732   3.850   9.406  0.00  0.00    +0.000 A 
ATOM     10  C   UNL     1      44.729   2.455   9.554  0.00  0.00    +0.000 A 
ATOM     11  C   UNL     1      45.475   1.645   8.693  0.00  0.00    +0.000 A 
ATOM     12  C   UNL     1      46.217   2.216   7.660  0.00  0.00    +0.000 A 
ATOM     13  C   UNL     1      46.195   3.597   7.490  0.00  0.00    +0.000 A 
ATOM     14  C   UNL     1      45.465   4.413   8.351  0.00  0.00    +0.000 A 
BRANCH  13  15
ATOM     15  O   UNL     1      46.889   4.197   6.480  0.00  0.00    +0.000 OA
ATOM     16  H   UNL     1      46.314   4.244   5.700  0.00  0.00    +0.000 HD
ENDBRANCH  13  15
ENDBRANCH   8   9
ENDBRANCH   5   8
ENDBRANCH   1   2
BRANCH   1  19
ATOM     17  O   UNL     1      49.847   7.155  14.020  0.00  0.00    +0.000 OA
ATOM     18  C   UNL     1      49.032   7.130  14.938  0.00  0.00    +0.000 C 
ATOM     19  N   UNL     1      47.754   7.603  14.804  0.00  0.00    +0.000 N 
ATOM     20  H   UNL     1      47.181   7.723  15.632  0.00  0.00    +0.000 HD
BRANCH  18  21
ATOM     21  C   UNL     1      49.361   6.532  16.238  0.00  0.00    +0.000 A 
ATOM     22  C   UNL     1      50.256   7.173  17.086  0.00  0.00    +0.000 A 
ATOM     23  S   UNL     1      50.530   6.337  18.548  0.00  0.00    +0.000 S 
ATOM     24  C   UNL     1      49.430   5.111  18.117  0.00  0.00    +0.000 A 
ATOM     25  N   UNL     1      49.167   4.079  18.963  0.00  0.00    +0.000 NA
ATOM     26  C   UNL     1      48.284   3.247  18.527  0.00  0.00    +0.000 A 
ATOM     27  N   UNL     1      47.653   3.339  17.314  0.00  0.00    +0.000 N 
ATOM     28  C   UNL     1      47.947   4.317  16.396  0.00  0.00    +0.000 A 
ATOM     29  O   UNL     1      47.472   4.283  15.266  0.00  0.00    +0.000 OA
ATOM     30  C   UNL     1      48.888   5.317  16.860  0.00  0.00    +0.000 A 
ATOM     31  H   UNL     1      46.997   2.631  17.017  0.00  0.00    +0.000 HD
ENDBRANCH  18  21
ENDBRANCH   1  19
TORSDOF 6
ENDMDL
MODEL 6
REMARK VINA RESULT:    -8.236      2.089      2.649
REMARK INTER + INTRA:         -11.802
REMARK INTER:                 -10.645
REMARK INTRA:                  -1.157
REMARK UNBOUND:                -0.918
REMARK  Name = 
REMARK  6 active torsions:
REMARK  status: ('A' for Active; 'I' for Inactive)
REMARK    1  A    between atoms: C_2  and  C_19
REMARK    2  A    between atoms: N_3  and  C_4
REMARK    3  A    between atoms: C_4  and  C_5
REMARK    4  A    between atoms: C_8  and  C_9
REMARK    5  A    between atoms: C_9  and  C_10
REMARK    6  A    between atoms: C_14  and  O_15
REMARK                            x       y       z     vdW  Elec       q    Type
REMARK                         _______ _______ _______ _____ _____    ______ ____
ROOT
ATOM      1  C   UNL     1      45.977   6.024  13.622  0.00  0.00    +0.000 C 
ENDROOT
BRANCH   1   2
ATOM      2  C   UNL     1      45.659   5.436  12.272  0.00  0.00    +0.000 A 
ATOM      3  C   UNL     1      44.971   4.222  12.177  0.00  0.00    +0.000 A 
ATOM      4  C   UNL     1      44.642   3.688  10.929  0.00  0.00    +0.000 A 
ATOM      5  C   UNL     1      45.010   4.349   9.749  0.00  0.00    +0.000 A 
ATOM      6  C   UNL     1      45.730   5.547   9.845  0.00  0.00    +0.000 A 
ATOM      7  C   UNL     1      46.061   6.080  11.094  0.00  0.00    +0.000 A 
BRANCH   5   8
ATOM      8  C   UNL     1      44.647   3.775   8.399  0.00  0.00    +0.000 C 
BRANCH   8   9
ATOM      9  C   UNL     1      45.738   2.963   7.736  0.00  0.00    +0.000 A 
ATOM     10  C   UNL     1      46.502   3.507   6.693  0.00  0.00    +0.000 A 
ATOM     11  C   UNL     1      47.468   2.735   6.039  0.00  0.00    +0.000 A 
ATOM     12  C   UNL     1      47.696   1.417   6.433  0.00  0.00    +0.000 A 
ATOM     13  C   UNL     1      46.963   0.886   7.489  0.00  0.00    +0.000 A 
ATOM     14  C   UNL     1      45.990   1.643   8.137  0.00  0.00    +0.000 A 
BRANCH  13  15
ATOM     15  O   UNL     1      47.167  -0.392   7.920  0.00  0.00    +0.000 OA
ATOM     16  H   UNL     1      47.011  -0.994   7.175  0.00  0.00    +0.000 HD
ENDBRANCH  13  15
ENDBRANCH   8   9
ENDBRANCH   5   8
ENDBRANCH   1   2
BRANCH   1  19
ATOM     17  O   UNL     1      47.056   8.620  13.849  0.00  0.00    +0.000 OA
ATOM     18  C   UNL     1      47.811   7.652  13.892  0.00  0.00    +0.000 C 
ATOM     19  N   UNL     1      47.372   6.366  13.731  0.00  0.00    +0.000 N 
ATOM     20  H   UNL     1      47.997   5.598  13.949  0.00  0.00    +0.000 HD
BRANCH  18  21
ATOM     21  C   UNL     1      49.260   7.819  14.065  0.00  0.00    +0.000 A 
ATOM     22  C   UNL     1      49.975   8.613  13.178  0.00  0.00    +0.000 A 
ATOM     23  S   UNL     1      51.644   8.688  13.522  0.00  0.00    +0.000 S 
ATOM     24  C   UNL     1      51.462   7.697  14.893  0.00  0.00    +0.000 A 
ATOM     25  N   UNL     1      52.529   7.388  15.679  0.00  0.00    +0.000 NA
ATOM     26  C   UNL     1      52.240   6.665  16.706  0.00  0.00    +0.000 A 
ATOM     27  N   UNL     1      50.987   6.204  17.011  0.00  0.00    +0.000 N 
ATOM     28  C   UNL     1      49.898   6.421  16.204  0.00  0.00    +0.000 A 
ATOM     29  O   UNL     1      48.825   5.871  16.431  0.00  0.00    +0.000 OA
ATOM     30  C   UNL     1      50.152   7.283  15.066  0.00  0.00    +0.000 A 
ATOM     31  H   UNL     1      50.835   5.609  17.814  0.00  0.00    +0.000 HD
ENDBRANCH  18  21
ENDBRANCH   1  19
TORSDOF 6
ENDMDL
MODEL 7
REMARK VINA RESULT:    -8.076      2.448      3.614
REMARK INTER + INTRA:         -11.591
REMARK INTER:                 -10.718
REMARK INTRA:                  -0.873
REMARK UNBOUND:                -0.918
REMARK  Name = 
REMARK  6 active torsions:
REMARK  status: ('A' for Active; 'I' for Inactive)
REMARK    1  A    between atoms: C_2  and  C_19
REMARK    2  A    between atoms: N_3  and  C_4
REMARK    3  A    between atoms: C_4  and  C_5
REMARK    4  A    between atoms: C_8  and  C_9
REMARK    5  A    between atoms: C_9  and  C_10
REMARK    6  A    between atoms: C_14  and  O_15
REMARK                            x       y       z     vdW  Elec       q    Type
REMARK                         _______ _______ _______ _____ _____    ______ ____
ROOT
ATOM      1  C   UNL     1      46.124   5.466  13.884  0.00  0.00    +0.000 C 
ENDROOT
BRANCH   1   2
ATOM      2  C   UNL     1      45.717   5.067  12.490  0.00  0.00    +0.000 A 
ATOM      3  C   UNL     1      46.001   5.906  11.407  0.00  0.00    +0.000 A 
ATOM      4  C   UNL     1      45.659   5.527  10.107  0.00  0.00    +0.000 A 
ATOM      5  C   UNL     1      45.009   4.310   9.864  0.00  0.00    +0.000 A 
ATOM      6  C   UNL     1      44.693   3.487  10.954  0.00  0.00    +0.000 A 
ATOM      7  C   UNL     1      45.035   3.867  12.255  0.00  0.00    +0.000 A 
BRANCH   5   8
ATOM      8  C   UNL     1      44.645   3.897   8.457  0.00  0.00    +0.000 C 
BRANCH   8   9
ATOM      9  C   UNL     1      45.675   3.039   7.757  0.00  0.00    +0.000 A 
ATOM     10  C   UNL     1      46.372   3.522   6.640  0.00  0.00    +0.000 A 
ATOM     11  C   UNL     1      47.278   2.706   5.956  0.00  0.00    +0.000 A 
ATOM     12  C   UNL     1      47.514   1.403   6.392  0.00  0.00    +0.000 A 
ATOM     13  C   UNL     1      46.849   0.931   7.519  0.00  0.00    +0.000 A 
ATOM     14  C   UNL     1      45.935   1.733   8.199  0.00  0.00    +0.000 A 
BRANCH  13  15
ATOM     15  O   UNL     1      47.064  -0.330   7.993  0.00  0.00    +0.000 OA
ATOM     16  H   UNL     1      48.010  -0.424   8.189  0.00  0.00    +0.000 HD
ENDBRANCH  13  15
ENDBRANCH   8   9
ENDBRANCH   5   8
ENDBRANCH   1   2
BRANCH   1  19
ATOM     17  O   UNL     1      48.610   5.550  15.214  0.00  0.00    +0.000 OA
ATOM     18  C   UNL     1      48.282   6.492  14.497  0.00  0.00    +0.000 C 
ATOM     19  N   UNL     1      47.069   6.552  13.866  0.00  0.00    +0.000 N 
ATOM     20  H   UNL     1      46.916   7.255  13.152  0.00  0.00    +0.000 HD
BRANCH  18  21
ATOM     21  C   UNL     1      49.159   7.655  14.313  0.00  0.00    +0.000 A 
ATOM     22  C   UNL     1      49.863   7.809  13.125  0.00  0.00    +0.000 A 
ATOM     23  S   UNL     1      50.837   9.208  13.086  0.00  0.00    +0.000 S 
ATOM     24  C   UNL     1      50.320   9.680  14.637  0.00  0.00    +0.000 A 
ATOM     25  N   UNL     1      50.762  10.837  15.200  0.00  0.00    +0.000 NA
ATOM     26  C   UNL     1      50.257  11.091  16.359  0.00  0.00    +0.000 A 
ATOM     27  N   UNL     1      49.366  10.286  17.017  0.00  0.00    +0.000 N 
ATOM     28  C   UNL     1      48.955   9.072  16.524  0.00  0.00    +0.000 A 
ATOM     29  O   UNL     1      48.274   8.312  17.205  0.00  0.00    +0.000 OA
ATOM     30  C   UNL     1      49.444   8.764  15.194  0.00  0.00    +0.000 A 
ATOM     31  H   UNL     1      49.036  10.525  17.941  0.00  0.00    +0.000 HD
ENDBRANCH  18  21
ENDBRANCH   1  19
TORSDOF 6
ENDMDL
MODEL 8
REMARK VINA RESULT:    -8.026      1.890      2.688
REMARK INTER + INTRA:         -11.525
REMARK INTER:                 -10.660
REMARK INTRA:                  -0.865
REMARK UNBOUND:                -0.918
REMARK  Name = 
REMARK  6 active torsions:
REMARK  status: ('A' for Active; 'I' for Inactive)
REMARK    1  A    between atoms: C_2  and  C_19
REMARK    2  A    between atoms: N_3  and  C_4
REMARK    3  A    between atoms: C_4  and  C_5
REMARK    4  A    between atoms: C_8  and  C_9
REMARK    5  A    between atoms: C_9  and  C_10
REMARK    6  A    between atoms: C_14  and  O_15
REMARK                            x       y       z     vdW  Elec       q    Type
REMARK                         _______ _______ _______ _____ _____    ______ ____
ROOT
ATOM      1  C   UNL     1      47.257   7.084  13.645  0.00  0.00    +0.000 C 
ENDROOT
BRANCH   1   2
ATOM      2  C   UNL     1      46.518   6.249  12.635  0.00  0.00    +0.000 A 
ATOM      3  C   UNL     1      46.150   6.797  11.401  0.00  0.00    +0.000 A 
ATOM      4  C   UNL     1      45.495   6.017  10.444  0.00  0.00    +0.000 A 
ATOM      5  C   UNL     1      45.177   4.678  10.709  0.00  0.00    +0.000 A 
ATOM      6  C   UNL     1      45.514   4.141  11.958  0.00  0.00    +0.000 A 
ATOM      7  C   UNL     1      46.169   4.921  12.916  0.00  0.00    +0.000 A 
BRANCH   5   8
ATOM      8  C   UNL     1      44.475   3.834   9.671  0.00  0.00    +0.000 C 
BRANCH   8   9
ATOM      9  C   UNL     1      45.389   3.155   8.675  0.00  0.00    +0.000 A 
ATOM     10  C   UNL     1      45.967   3.881   7.622  0.00  0.00    +0.000 A 
ATOM     11  C   UNL     1      46.761   3.240   6.667  0.00  0.00    +0.000 A 
ATOM     12  C   UNL     1      47.005   1.870   6.762  0.00  0.00    +0.000 A 
ATOM     13  C   UNL     1      46.460   1.155   7.824  0.00  0.00    +0.000 A 
ATOM     14  C   UNL     1      45.657   1.782   8.773  0.00  0.00    +0.000 A 
BRANCH  13  15
ATOM     15  O   UNL     1      46.689  -0.182   7.968  0.00  0.00    +0.000 OA
ATOM     16  H   UNL     1      45.997  -0.664   7.487  0.00  0.00    +0.000 HD
ENDBRANCH  13  15
ENDBRANCH   8   9
ENDBRANCH   5   8
ENDBRANCH   1   2
BRANCH   1  19
ATOM     17  O   UNL     1      48.651   7.987  15.926  0.00  0.00    +0.000 OA
ATOM     18  C   UNL     1      48.510   6.780  15.749  0.00  0.00    +0.000 C 
ATOM     19  N   UNL     1      47.898   6.262  14.639  0.00  0.00    +0.000 N 
ATOM     20  H   UNL     1      47.650   5.280  14.622  0.00  0.00    +0.000 HD
BRANCH  18  21
ATOM     21  C   UNL     1      49.046   5.799  16.702  0.00  0.00    +0.000 A 
ATOM     22  C   UNL     1      48.178   4.965  17.396  0.00  0.00    +0.000 A 
ATOM     23  S   UNL     1      48.968   3.896  18.465  0.00  0.00    +0.000 S 
ATOM     24  C   UNL     1      50.500   4.480  18.005  0.00  0.00    +0.000 A 
ATOM     25  N   UNL     1      51.637   3.954  18.535  0.00  0.00    +0.000 NA
ATOM     26  C   UNL     1      52.725   4.461  18.067  0.00  0.00    +0.000 A 
ATOM     27  N   UNL     1      52.784   5.460  17.132  0.00  0.00    +0.000 N 
ATOM     28  C   UNL     1      51.664   6.076  16.631  0.00  0.00    +0.000 A 
ATOM     29  O   UNL     1      51.757   7.063  15.909  0.00  0.00    +0.000 OA
ATOM     30  C   UNL     1      50.409   5.502  17.076  0.00  0.00    +0.000 A 
ATOM     31  H   UNL     1      53.672   5.839  16.834  0.00  0.00    +0.000 HD
ENDBRANCH  18  21
ENDBRANCH   1  19
TORSDOF 6
ENDMDL
MODEL 9
REMARK VINA RESULT:    -7.916      2.798      3.665
REMARK INTER + INTRA:         -11.379
REMARK INTER:                 -10.257
REMARK INTRA:                  -1.122
REMARK UNBOUND:                -0.918
REMARK  Name = 
REMARK  6 active torsions:
REMARK  status: ('A' for Active; 'I' for Inactive)
REMARK    1  A    between atoms: C_2  and  C_19
REMARK    2  A    between atoms: N_3  and  C_4
REMARK    3  A    between atoms: C_4  and  C_5
REMARK    4  A    between atoms: C_8  and  C_9
REMARK    5  A    between atoms: C_9  and  C_10
REMARK    6  A    between atoms: C_14  and  O_15
REMARK                            x       y       z     vdW  Elec       q    Type
REMARK                         _______ _______ _______ _____ _____    ______ ____
ROOT
ATOM      1  C   UNL     1      48.595   7.070  14.253  0.00  0.00    +0.000 C 
ENDROOT
BRANCH   1   2
ATOM      2  C   UNL     1      47.516   6.491  13.376  0.00  0.00    +0.000 A 
ATOM      3  C   UNL     1      46.985   7.243  12.322  0.00  0.00    +0.000 A 
ATOM      4  C   UNL     1      46.010   6.700  11.483  0.00  0.00    +0.000 A 
ATOM      5  C   UNL     1      45.531   5.400  11.691  0.00  0.00    +0.000 A 
ATOM      6  C   UNL     1      46.037   4.660  12.768  0.00  0.00    +0.000 A 
ATOM      7  C   UNL     1      47.013   5.204  13.608  0.00  0.00    +0.000 A 
BRANCH   5   8
ATOM      8  C   UNL     1      44.481   4.811  10.778  0.00  0.00    +0.000 C 
BRANCH   8   9
ATOM      9  C   UNL     1      45.017   3.928   9.673  0.00  0.00    +0.000 A 
ATOM     10  C   UNL     1      44.907   2.532   9.754  0.00  0.00    +0.000 A 
ATOM     11  C   UNL     1      45.458   1.715   8.762  0.00  0.00    +0.000 A 
ATOM     12  C   UNL     1      46.108   2.283   7.668  0.00  0.00    +0.000 A 
ATOM     13  C   UNL     1      46.190   3.668   7.568  0.00  0.00    +0.000 A 
ATOM     14  C   UNL     1      45.655   4.489   8.557  0.00  0.00    +0.000 A 
BRANCH  13  15
ATOM     15  O   UNL     1      46.798   4.266   6.504  0.00  0.00    +0.000 OA
ATOM     16  H   UNL     1      47.751   4.084   6.555  0.00  0.00    +0.000 HD
ENDBRANCH  13  15
ENDBRANCH   8   9
ENDBRANCH   5   8
ENDBRANCH   1   2
BRANCH   1  19
ATOM     17  O   UNL     1      50.315   5.966  16.197  0.00  0.00    +0.000 OA
ATOM     18  C   UNL     1      49.211   6.381  16.540  0.00  0.00    +0.000 C 
ATOM     19  N   UNL     1      48.298   6.876  15.648  0.00  0.00    +0.000 N 
ATOM     20  H   UNL     1      47.480   7.365  15.996  0.00  0.00    +0.000 HD
BRANCH  18  21
ATOM     21  C   UNL     1      48.772   6.319  17.940  0.00  0.00    +0.000 A 
ATOM     22  C   UNL     1      48.905   5.136  18.654  0.00  0.00    +0.000 A 
ATOM     23  S   UNL     1      48.338   5.240  20.260  0.00  0.00    +0.000 S 
ATOM     24  C   UNL     1      47.934   6.882  20.069  0.00  0.00    +0.000 A 
ATOM     25  N   UNL     1      47.417   7.600  21.103  0.00  0.00    +0.000 NA
ATOM     26  C   UNL     1      47.198   8.841  20.831  0.00  0.00    +0.000 A 
ATOM     27  N   UNL     1      47.428   9.427  19.615  0.00  0.00    +0.000 N 
ATOM     28  C   UNL     1      47.870   8.724  18.522  0.00  0.00    +0.000 A 
ATOM     29  O   UNL     1      47.924   9.249  17.414  0.00  0.00    +0.000 OA
ATOM     30  C   UNL     1      48.194   7.336  18.788  0.00  0.00    +0.000 A 
ATOM     31  H   UNL     1      47.199  10.399  19.457  0.00  0.00    +0.000 HD
ENDBRANCH  18  21
ENDBRANCH   1  19
TORSDOF 6
ENDMDL
