MODEL 1
REMARK VINA RESULT:    -9.210      0.000      0.000
REMARK INTER + INTRA:         -14.120
REMARK INTER:                 -12.979
REMARK INTRA:                  -1.141
REMARK UNBOUND:                -1.141
REMARK  Name = 
REMARK  10 active torsions:
REMARK  status: ('A' for Active; 'I' for Inactive)
REMARK    1  A    between atoms: C_1  and  C_2
REMARK    2  A    between atoms: C_4  and  O_5
REMARK    3  A    between atoms: O_5  and  C_6
REMARK    4  A    between atoms: C_6  and  C_7
REMARK    5  A    between atoms: C_7  and  C_8
REMARK    6  A    between atoms: C_7  and  C_9
REMARK    7  A    between atoms: C_7  and  C_10
REMARK    8  A    between atoms: C_12  and  O_13
REMARK    9  A    between atoms: O_13  and  C_14
REMARK   10  A    between atoms: C_23  and  C_24
REMARK                            x       y       z     vdW  Elec       q    Type
REMARK                         _______ _______ _______ _____ _____    ______ ____
ROOT
ATOM      1  C   UNL     1      43.578   4.518  10.542  0.00  0.00    +0.000 C 
ENDROOT
BRANCH   1   2
ATOM      2  C   UNL     1      43.806   4.607  12.076  0.00  0.00    +0.000 C 
ATOM      3  C   UNL     1      42.661   5.442  12.693  0.00  0.00    +0.000 C 
ATOM      4  C   UNL     1      43.730   3.188  12.682  0.00  0.00    +0.000 C 
BRANCH   2   5
ATOM      5  C   UNL     1      45.183   5.209  12.381  0.00  0.00    +0.000 A 
ATOM      6  C   UNL     1      45.878   4.820  13.526  0.00  0.00    +0.000 A 
ATOM      7  C   UNL     1      47.125   5.366  13.793  0.00  0.00    +0.000 A 
ATOM      8  C   UNL     1      47.679   6.268  12.899  0.00  0.00    +0.000 A 
ATOM      9  C   UNL     1      46.931   6.615  11.789  0.00  0.00    +0.000 A 
ATOM     10  N   UNL     1      45.700   6.122  11.522  0.00  0.00    +0.000 NA
BRANCH   7  11
ATOM     11  O   UNL     1      47.875   5.028  14.895  0.00  0.00    +0.000 OA
BRANCH  11  12
ATOM     12  C   UNL     1      47.345   4.004  15.766  0.00  0.00    +0.000 C 
ATOM     13  C   UNL     1      47.379   4.319  17.268  0.00  0.00    +0.000 C 
ATOM     14  C   UNL     1      47.912   2.897  17.403  0.00  0.00    +0.000 C 
ATOM     15  O   UNL     1      48.225   2.858  15.989  0.00  0.00    +0.000 OA
ENDBRANCH  11  12
ENDBRANCH   7  11
ENDBRANCH   2   5
ENDBRANCH   1   2
BRANCH   1  16
ATOM     16  O   UNL     1      43.718   3.161  10.107  0.00  0.00    +0.000 OA
BRANCH  16  20
ATOM     17  C   UNL     1      46.760   0.138   7.644  0.00  0.00    +0.000 C 
ATOM     18  C   UNL     1      46.224   1.520   7.905  0.00  0.00    +0.000 A 
ATOM     19  C   UNL     1      45.239   1.673   8.903  0.00  0.00    +0.000 A 
ATOM     20  C   UNL     1      44.694   2.922   9.183  0.00  0.00    +0.000 A 
ATOM     21  C   UNL     1      45.158   4.046   8.506  0.00  0.00    +0.000 A 
ATOM     22  C   UNL     1      46.130   3.917   7.512  0.00  0.00    +0.000 A 
ATOM     23  C   UNL     1      46.671   2.658   7.202  0.00  0.00    +0.000 A 
BRANCH  23  24
ATOM     24  C   UNL     1      47.687   2.548   6.109  0.00  0.00    +0.000 C 
ATOM     25  N   UNL     1      49.004   2.503   6.477  0.00  0.00    +0.000 N 
ATOM     26  O   UNL     1      47.385   2.488   4.926  0.00  0.00    +0.000 OA
ATOM     27  H   UNL     1      49.316   2.379   7.429  0.00  0.00    +0.000 HD
ATOM     28  H   UNL     1      49.674   2.352   5.732  0.00  0.00    +0.000 HD
ENDBRANCH  23  24
ENDBRANCH  16  20
ENDBRANCH   1  16
TORSDOF 7
ENDMDL
MODEL 2
REMARK VINA RESULT:    -8.208      1.830      3.089
REMARK INTER + INTRA:         -12.707
REMARK INTER:                 -11.774
REMARK INTRA:                  -0.934
REMARK UNBOUND:                -1.141
REMARK  Name = 
REMARK  10 active torsions:
REMARK  status: ('A' for Active; 'I' for Inactive)
REMARK    1  A    between atoms: C_1  and  C_2
REMARK    2  A    between atoms: C_4  and  O_5
REMARK    3  A    between atoms: O_5  and  C_6
REMARK    4  A    between atoms: C_6  and  C_7
REMARK    5  A    between atoms: C_7  and  C_8
REMARK    6  A    between atoms: C_7  and  C_9
REMARK    7  A    between atoms: C_7  and  C_10
REMARK    8  A    between atoms: C_12  and  O_13
REMARK    9  A    between atoms: O_13  and  C_14
REMARK   10  A    between atoms: C_23  and  C_24
REMARK                            x       y       z     vdW  Elec       q    Type
REMARK                         _______ _______ _______ _____ _____    ______ ____
ROOT
ATOM      1  C   UNL     1      43.894   4.621  10.547  0.00  0.00    +0.000 C 
ENDROOT
BRANCH   1   2
ATOM      2  C   UNL     1      43.825   4.411  12.085  0.00  0.00    +0.000 C 
ATOM      3  C   UNL     1      42.606   5.190  12.630  0.00  0.00    +0.000 C 
ATOM      4  C   UNL     1      43.595   2.912  12.381  0.00  0.00    +0.000 C 
BRANCH   2   5
ATOM      5  C   UNL     1      45.134   4.858  12.747  0.00  0.00    +0.000 A 
ATOM      6  C   UNL     1      45.659   6.121  12.475  0.00  0.00    +0.000 A 
ATOM      7  C   UNL     1      46.842   6.520  13.080  0.00  0.00    +0.000 A 
ATOM      8  C   UNL     1      47.470   5.668  13.976  0.00  0.00    +0.000 A 
ATOM      9  C   UNL     1      46.898   4.428  14.191  0.00  0.00    +0.000 A 
ATOM     10  N   UNL     1      45.764   4.002  13.590  0.00  0.00    +0.000 NA
BRANCH   7  11
ATOM     11  O   UNL     1      47.418   7.751  12.871  0.00  0.00    +0.000 OA
BRANCH  11  12
ATOM     12  C   UNL     1      48.501   7.820  11.917  0.00  0.00    +0.000 C 
ATOM     13  C   UNL     1      49.918   7.769  12.507  0.00  0.00    +0.000 C 
ATOM     14  C   UNL     1      50.195   8.925  11.553  0.00  0.00    +0.000 C 
ATOM     15  O   UNL     1      48.775   9.151  11.381  0.00  0.00    +0.000 OA
ENDBRANCH  11  12
ENDBRANCH   7  11
ENDBRANCH   2   5
ENDBRANCH   1   2
BRANCH   1  16
ATOM     16  O   UNL     1      43.772   3.361   9.878  0.00  0.00    +0.000 OA
BRANCH  16  20
ATOM     17  C   UNL     1      46.750   0.051   7.723  0.00  0.00    +0.000 C 
ATOM     18  C   UNL     1      46.304   1.476   7.912  0.00  0.00    +0.000 A 
ATOM     19  C   UNL     1      45.261   1.730   8.828  0.00  0.00    +0.000 A 
ATOM     20  C   UNL     1      44.794   3.024   9.038  0.00  0.00    +0.000 A 
ATOM     21  C   UNL     1      45.392   4.091   8.373  0.00  0.00    +0.000 A 
ATOM     22  C   UNL     1      46.423   3.861   7.460  0.00  0.00    +0.000 A 
ATOM     23  C   UNL     1      46.887   2.558   7.220  0.00  0.00    +0.000 A 
BRANCH  23  24
ATOM     24  C   UNL     1      47.971   2.341   6.211  0.00  0.00    +0.000 C 
ATOM     25  N   UNL     1      49.211   2.839   6.504  0.00  0.00    +0.000 N 
ATOM     26  O   UNL     1      47.791   1.739   5.163  0.00  0.00    +0.000 OA
ATOM     27  H   UNL     1      49.473   3.194   7.412  0.00  0.00    +0.000 HD
ATOM     28  H   UNL     1      49.950   2.618   5.847  0.00  0.00    +0.000 HD
ENDBRANCH  23  24
ENDBRANCH  16  20
ENDBRANCH   1  16
TORSDOF 7
ENDMDL
MODEL 3
REMARK VINA RESULT:    -8.019      1.502      1.687
REMARK INTER + INTRA:         -12.442
REMARK INTER:                 -11.604
REMARK INTRA:                  -0.838
REMARK UNBOUND:                -1.141
REMARK  Name = 
REMARK  10 active torsions:
REMARK  status: ('A' for Active; 'I' for Inactive)
REMARK    1  A    between atoms: C_1  and  C_2
REMARK    2  A    between atoms: C_4  and  O_5
REMARK    3  A    between atoms: O_5  and  C_6
REMARK    4  A    between atoms: C_6  and  C_7
REMARK    5  A    between atoms: C_7  and  C_8
REMARK    6  A    between atoms: C_7  and  C_9
REMARK    7  A    between atoms: C_7  and  C_10
REMARK    8  A    between atoms: C_12  and  O_13
REMARK    9  A    between atoms: O_13  and  C_14
REMARK   10  A    between atoms: C_23  and  C_24
REMARK                            x       y       z     vdW  Elec       q    Type
REMARK                         _______ _______ _______ _____ _____    ______ ____
ROOT
ATOM      1  C   UNL     1      44.122   4.887  10.865  0.00  0.00    +0.000 C 
ENDROOT
BRANCH   1   2
ATOM      2  C   UNL     1      44.543   4.757  12.355  0.00  0.00    +0.000 C 
ATOM      3  C   UNL     1      43.265   4.717  13.223  0.00  0.00    +0.000 C 
ATOM      4  C   UNL     1      45.289   3.420  12.555  0.00  0.00    +0.000 C 
BRANCH   2   5
ATOM      5  C   UNL     1      45.470   5.913  12.753  0.00  0.00    +0.000 A 
ATOM      6  C   UNL     1      46.736   5.645  13.274  0.00  0.00    +0.000 A 
ATOM      7  C   UNL     1      47.570   6.695  13.629  0.00  0.00    +0.000 A 
ATOM      8  C   UNL     1      47.147   7.999  13.428  0.00  0.00    +0.000 A 
ATOM      9  C   UNL     1      45.877   8.191  12.916  0.00  0.00    +0.000 A 
ATOM     10  N   UNL     1      45.032   7.186  12.592  0.00  0.00    +0.000 NA
BRANCH   7  11
ATOM     11  O   UNL     1      48.834   6.513  14.140  0.00  0.00    +0.000 OA
BRANCH  11  12
ATOM     12  C   UNL     1      49.043   6.865  15.525  0.00  0.00    +0.000 C 
ATOM     13  C   UNL     1      50.431   6.540  16.097  0.00  0.00    +0.000 C 
ATOM     14  C   UNL     1      49.649   5.994  17.285  0.00  0.00    +0.000 C 
ATOM     15  O   UNL     1      48.434   5.960  16.497  0.00  0.00    +0.000 OA
ENDBRANCH  11  12
ENDBRANCH   7  11
ENDBRANCH   2   5
ENDBRANCH   1   2
BRANCH   1  16
ATOM     16  O   UNL     1      43.960   3.585  10.290  0.00  0.00    +0.000 OA
BRANCH  16  20
ATOM     17  C   UNL     1      46.561   0.250   7.726  0.00  0.00    +0.000 C 
ATOM     18  C   UNL     1      46.171   1.680   7.986  0.00  0.00    +0.000 A 
ATOM     19  C   UNL     1      45.264   1.941   9.035  0.00  0.00    +0.000 A 
ATOM     20  C   UNL     1      44.854   3.241   9.318  0.00  0.00    +0.000 A 
ATOM     21  C   UNL     1      45.380   4.305   8.591  0.00  0.00    +0.000 A 
ATOM     22  C   UNL     1      46.277   4.069   7.547  0.00  0.00    +0.000 A 
ATOM     23  C   UNL     1      46.679   2.761   7.234  0.00  0.00    +0.000 A 
BRANCH  23  24
ATOM     24  C   UNL     1      47.616   2.537   6.089  0.00  0.00    +0.000 C 
ATOM     25  N   UNL     1      48.952   2.468   6.373  0.00  0.00    +0.000 N 
ATOM     26  O   UNL     1      47.233   2.408   4.935  0.00  0.00    +0.000 OA
ATOM     27  H   UNL     1      49.324   2.397   7.309  0.00  0.00    +0.000 HD
ATOM     28  H   UNL     1      49.565   2.241   5.599  0.00  0.00    +0.000 HD
ENDBRANCH  23  24
ENDBRANCH  16  20
ENDBRANCH   1  16
TORSDOF 7
ENDMDL
MODEL 4
REMARK VINA RESULT:    -7.160      2.534      8.363
REMARK INTER + INTRA:         -11.231
REMARK INTER:                 -10.429
REMARK INTRA:                  -0.803
REMARK UNBOUND:                -1.141
REMARK  Name = 
REMARK  10 active torsions:
REMARK  status: ('A' for Active; 'I' for Inactive)
REMARK    1  A    between atoms: C_1  and  C_2
REMARK    2  A    between atoms: C_4  and  O_5
REMARK    3  A    between atoms: O_5  and  C_6
REMARK    4  A    between atoms: C_6  and  C_7
REMARK    5  A    between atoms: C_7  and  C_8
REMARK    6  A    between atoms: C_7  and  C_9
REMARK    7  A    between atoms: C_7  and  C_10
REMARK    8  A    between atoms: C_12  and  O_13
REMARK    9  A    between atoms: O_13  and  C_14
REMARK   10  A    between atoms: C_23  and  C_24
REMARK                            x       y       z     vdW  Elec       q    Type
REMARK                         _______ _______ _______ _____ _____    ______ ____
ROOT
ATOM      1  C   UNL     1      45.904   5.552  13.335  0.00  0.00    +0.000 C 
ENDROOT
BRANCH   1   2
ATOM      2  C   UNL     1      45.707   6.115  11.901  0.00  0.00    +0.000 C 
ATOM      3  C   UNL     1      44.698   7.283  11.969  0.00  0.00    +0.000 C 
ATOM      4  C   UNL     1      47.051   6.683  11.393  0.00  0.00    +0.000 C 
BRANCH   2   5
ATOM      5  C   UNL     1      45.239   5.007  10.949  0.00  0.00    +0.000 A 
ATOM      6  C   UNL     1      45.583   5.055   9.598  0.00  0.00    +0.000 A 
ATOM      7  C   UNL     1      45.159   4.048   8.743  0.00  0.00    +0.000 A 
ATOM      8  C   UNL     1      44.426   2.987   9.252  0.00  0.00    +0.000 A 
ATOM      9  C   UNL     1      44.114   3.009  10.598  0.00  0.00    +0.000 A 
ATOM     10  N   UNL     1      44.487   3.994  11.446  0.00  0.00    +0.000 NA
BRANCH   7  11
ATOM     11  O   UNL     1      45.465   4.019   7.403  0.00  0.00    +0.000 OA
BRANCH  11  12
ATOM     12  C   UNL     1      46.774   3.534   7.034  0.00  0.00    +0.000 C 
ATOM     13  C   UNL     1      46.890   2.914   5.634  0.00  0.00    +0.000 C 
ATOM     14  C   UNL     1      47.668   1.814   6.347  0.00  0.00    +0.000 C 
ATOM     15  O   UNL     1      47.155   2.254   7.629  0.00  0.00    +0.000 OA
ENDBRANCH  11  12
ENDBRANCH   7  11
ENDBRANCH   2   5
ENDBRANCH   1   2
BRANCH   1  16
ATOM     16  O   UNL     1      47.301   5.396  13.611  0.00  0.00    +0.000 OA
BRANCH  16  20
ATOM     17  C   UNL     1      47.206   2.687  17.748  0.00  0.00    +0.000 C 
ATOM     18  C   UNL     1      47.663   3.910  17.000  0.00  0.00    +0.000 A 
ATOM     19  C   UNL     1      47.237   4.070  15.664  0.00  0.00    +0.000 A 
ATOM     20  C   UNL     1      47.636   5.173  14.915  0.00  0.00    +0.000 A 
ATOM     21  C   UNL     1      48.427   6.157  15.501  0.00  0.00    +0.000 A 
ATOM     22  C   UNL     1      48.862   6.017  16.821  0.00  0.00    +0.000 A 
ATOM     23  C   UNL     1      48.487   4.897  17.580  0.00  0.00    +0.000 A 
BRANCH  23  24
ATOM     24  C   UNL     1      48.997   4.759  18.980  0.00  0.00    +0.000 C 
ATOM     25  N   UNL     1      50.193   4.119  19.154  0.00  0.00    +0.000 N 
ATOM     26  O   UNL     1      48.397   5.199  19.951  0.00  0.00    +0.000 OA
ATOM     27  H   UNL     1      50.818   3.882  18.397  0.00  0.00    +0.000 HD
ATOM     28  H   UNL     1      50.560   4.101  20.098  0.00  0.00    +0.000 HD
ENDBRANCH  23  24
ENDBRANCH  16  20
ENDBRANCH   1  16
TORSDOF 7
ENDMDL
MODEL 5
REMARK VINA RESULT:    -7.029      2.887      4.576
REMARK INTER + INTRA:         -11.046
REMARK INTER:                 -10.395
REMARK INTRA:                  -0.652
REMARK UNBOUND:                -1.141
REMARK  Name = 
REMARK  10 active torsions:
REMARK  status: ('A' for Active; 'I' for Inactive)
REMARK    1  A    between atoms: C_1  and  C_2
REMARK    2  A    between atoms: C_4  and  O_5
REMARK    3  A    between atoms: O_5  and  C_6
REMARK    4  A    between atoms: C_6  and  C_7
REMARK    5  A    between atoms: C_7  and  C_8
REMARK    6  A    between atoms: C_7  and  C_9
REMARK    7  A    between atoms: C_7  and  C_10
REMARK    8  A    between atoms: C_12  and  O_13
REMARK    9  A    between atoms: O_13  and  C_14
REMARK   10  A    between atoms: C_23  and  C_24
REMARK                            x       y       z     vdW  Elec       q    Type
REMARK                         _______ _______ _______ _____ _____    ______ ____
ROOT
ATOM      1  C   UNL     1      43.523   4.019  10.902  0.00  0.00    +0.000 C 
ENDROOT
BRANCH   1   2
ATOM      2  C   UNL     1      44.223   4.410  12.233  0.00  0.00    +0.000 C 
ATOM      3  C   UNL     1      43.146   4.534  13.334  0.00  0.00    +0.000 C 
ATOM      4  C   UNL     1      45.190   3.278  12.646  0.00  0.00    +0.000 C 
BRANCH   2   5
ATOM      5  C   UNL     1      45.019   5.710  12.059  0.00  0.00    +0.000 A 
ATOM      6  C   UNL     1      44.349   6.926  11.932  0.00  0.00    +0.000 A 
ATOM      7  C   UNL     1      45.076   8.099  11.778  0.00  0.00    +0.000 A 
ATOM      8  C   UNL     1      46.461   8.048  11.788  0.00  0.00    +0.000 A 
ATOM      9  C   UNL     1      47.057   6.807  11.910  0.00  0.00    +0.000 A 
ATOM     10  N   UNL     1      46.373   5.647  12.028  0.00  0.00    +0.000 NA
BRANCH   7  11
ATOM     11  O   UNL     1      44.491   9.337  11.656  0.00  0.00    +0.000 OA
BRANCH  11  12
ATOM     12  C   UNL     1      43.446   9.479  10.669  0.00  0.00    +0.000 C 
ATOM     13  C   UNL     1      43.705  10.513   9.563  0.00  0.00    +0.000 C 
ATOM     14  C   UNL     1      42.269  10.946   9.837  0.00  0.00    +0.000 C 
ATOM     15  O   UNL     1      42.277  10.241  11.103  0.00  0.00    +0.000 OA
ENDBRANCH  11  12
ENDBRANCH   7  11
ENDBRANCH   2   5
ENDBRANCH   1   2
BRANCH   1  16
ATOM     16  O   UNL     1      44.105   4.747   9.814  0.00  0.00    +0.000 OA
BRANCH  16  20
ATOM     17  C   UNL     1      46.038   0.550   8.050  0.00  0.00    +0.000 C 
ATOM     18  C   UNL     1      46.010   2.054   8.098  0.00  0.00    +0.000 A 
ATOM     19  C   UNL     1      45.078   2.674   8.957  0.00  0.00    +0.000 A 
ATOM     20  C   UNL     1      44.993   4.060   9.037  0.00  0.00    +0.000 A 
ATOM     21  C   UNL     1      45.869   4.850   8.298  0.00  0.00    +0.000 A 
ATOM     22  C   UNL     1      46.798   4.257   7.440  0.00  0.00    +0.000 A 
ATOM     23  C   UNL     1      46.877   2.860   7.330  0.00  0.00    +0.000 A 
BRANCH  23  24
ATOM     24  C   UNL     1      47.859   2.255   6.377  0.00  0.00    +0.000 C 
ATOM     25  N   UNL     1      47.939   2.801   5.126  0.00  0.00    +0.000 N 
ATOM     26  O   UNL     1      48.584   1.317   6.677  0.00  0.00    +0.000 OA
ATOM     27  H   UNL     1      47.500   3.672   4.864  0.00  0.00    +0.000 HD
ATOM     28  H   UNL     1      48.661   2.431   4.519  0.00  0.00    +0.000 HD
ENDBRANCH  23  24
ENDBRANCH  16  20
ENDBRANCH   1  16
TORSDOF 7
ENDMDL
MODEL 6
REMARK VINA RESULT:    -6.989      2.572      8.387
REMARK INTER + INTRA:         -10.990
REMARK INTER:                 -10.156
REMARK INTRA:                  -0.834
REMARK UNBOUND:                -1.141
REMARK  Name = 
REMARK  10 active torsions:
REMARK  status: ('A' for Active; 'I' for Inactive)
REMARK    1  A    between atoms: C_1  and  C_2
REMARK    2  A    between atoms: C_4  and  O_5
REMARK    3  A    between atoms: O_5  and  C_6
REMARK    4  A    between atoms: C_6  and  C_7
REMARK    5  A    between atoms: C_7  and  C_8
REMARK    6  A    between atoms: C_7  and  C_9
REMARK    7  A    between atoms: C_7  and  C_10
REMARK    8  A    between atoms: C_12  and  O_13
REMARK    9  A    between atoms: O_13  and  C_14
REMARK   10  A    between atoms: C_23  and  C_24
REMARK                            x       y       z     vdW  Elec       q    Type
REMARK                         _______ _______ _______ _____ _____    ______ ____
ROOT
ATOM      1  C   UNL     1      45.767   5.844  13.287  0.00  0.00    +0.000 C 
ENDROOT
BRANCH   1   2
ATOM      2  C   UNL     1      45.751   6.301  11.802  0.00  0.00    +0.000 C 
ATOM      3  C   UNL     1      44.866   7.563  11.689  0.00  0.00    +0.000 C 
ATOM      4  C   UNL     1      47.184   6.693  11.379  0.00  0.00    +0.000 C 
BRANCH   2   5
ATOM      5  C   UNL     1      45.253   5.167  10.897  0.00  0.00    +0.000 A 
ATOM      6  C   UNL     1      45.629   5.130   9.554  0.00  0.00    +0.000 A 
ATOM      7  C   UNL     1      45.177   4.100   8.741  0.00  0.00    +0.000 A 
ATOM      8  C   UNL     1      44.385   3.101   9.285  0.00  0.00    +0.000 A 
ATOM      9  C   UNL     1      44.045   3.206  10.621  0.00  0.00    +0.000 A 
ATOM     10  N   UNL     1      44.444   4.217  11.426  0.00  0.00    +0.000 NA
BRANCH   7  11
ATOM     11  O   UNL     1      45.510   3.988   7.412  0.00  0.00    +0.000 OA
BRANCH  11  12
ATOM     12  C   UNL     1      46.815   3.452   7.101  0.00  0.00    +0.000 C 
ATOM     13  C   UNL     1      46.990   2.896   5.680  0.00  0.00    +0.000 C 
ATOM     14  C   UNL     1      47.665   1.724   6.382  0.00  0.00    +0.000 C 
ATOM     15  O   UNL     1      47.092   2.127   7.651  0.00  0.00    +0.000 OA
ENDBRANCH  11  12
ENDBRANCH   7  11
ENDBRANCH   2   5
ENDBRANCH   1   2
BRANCH   1  16
ATOM     16  O   UNL     1      46.867   4.955  13.511  0.00  0.00    +0.000 OA
BRANCH  16  20
ATOM     17  C   UNL     1      49.520   7.081  17.103  0.00  0.00    +0.000 C 
ATOM     18  C   UNL     1      48.685   5.933  16.604  0.00  0.00    +0.000 A 
ATOM     19  C   UNL     1      48.197   5.993  15.281  0.00  0.00    +0.000 A 
ATOM     20  C   UNL     1      47.408   4.970  14.764  0.00  0.00    +0.000 A 
ATOM     21  C   UNL     1      47.132   3.849  15.543  0.00  0.00    +0.000 A 
ATOM     22  C   UNL     1      47.603   3.771  16.855  0.00  0.00    +0.000 A 
ATOM     23  C   UNL     1      48.379   4.808  17.398  0.00  0.00    +0.000 A 
BRANCH  23  24
ATOM     24  C   UNL     1      48.841   4.710  18.818  0.00  0.00    +0.000 C 
ATOM     25  N   UNL     1      49.990   4.008  19.059  0.00  0.00    +0.000 N 
ATOM     26  O   UNL     1      48.243   5.234  19.747  0.00  0.00    +0.000 OA
ATOM     27  H   UNL     1      50.619   3.696  18.334  0.00  0.00    +0.000 HD
ATOM     28  H   UNL     1      50.329   4.016  20.014  0.00  0.00    +0.000 HD
ENDBRANCH  23  24
ENDBRANCH  16  20
ENDBRANCH   1  16
TORSDOF 7
ENDMDL
MODEL 7
REMARK VINA RESULT:    -6.854      3.101      7.382
REMARK INTER + INTRA:         -10.800
REMARK INTER:                  -9.752
REMARK INTRA:                  -1.048
REMARK UNBOUND:                -1.141
REMARK  Name = 
REMARK  10 active torsions:
REMARK  status: ('A' for Active; 'I' for Inactive)
REMARK    1  A    between atoms: C_1  and  C_2
REMARK    2  A    between atoms: C_4  and  O_5
REMARK    3  A    between atoms: O_5  and  C_6
REMARK    4  A    between atoms: C_6  and  C_7
REMARK    5  A    between atoms: C_7  and  C_8
REMARK    6  A    between atoms: C_7  and  C_9
REMARK    7  A    between atoms: C_7  and  C_10
REMARK    8  A    between atoms: C_12  and  O_13
REMARK    9  A    between atoms: O_13  and  C_14
REMARK   10  A    between atoms: C_23  and  C_24
REMARK                            x       y       z     vdW  Elec       q    Type
REMARK                         _______ _______ _______ _____ _____    ______ ____
ROOT
ATOM      1  C   UNL     1      44.480   6.842  11.371  0.00  0.00    +0.000 C 
ENDROOT
BRANCH   1   2
ATOM      2  C   UNL     1      43.834   5.473  11.718  0.00  0.00    +0.000 C 
ATOM      3  C   UNL     1      44.294   5.061  13.135  0.00  0.00    +0.000 C 
ATOM      4  C   UNL     1      42.298   5.632  11.750  0.00  0.00    +0.000 C 
BRANCH   2   5
ATOM      5  C   UNL     1      44.207   4.421  10.665  0.00  0.00    +0.000 A 
ATOM      6  C   UNL     1      45.012   4.773   9.582  0.00  0.00    +0.000 A 
ATOM      7  C   UNL     1      45.349   3.816   8.635  0.00  0.00    +0.000 A 
ATOM      8  C   UNL     1      44.907   2.513   8.798  0.00  0.00    +0.000 A 
ATOM      9  C   UNL     1      44.105   2.237   9.890  0.00  0.00    +0.000 A 
ATOM     10  N   UNL     1      43.736   3.158  10.809  0.00  0.00    +0.000 NA
BRANCH   7  11
ATOM     11  O   UNL     1      46.145   4.081   7.546  0.00  0.00    +0.000 OA
BRANCH  11  12
ATOM     12  C   UNL     1      46.470   2.972   6.680  0.00  0.00    +0.000 C 
ATOM     13  C   UNL     1      47.871   2.370   6.859  0.00  0.00    +0.000 C 
ATOM     14  C   UNL     1      47.921   2.410   5.337  0.00  0.00    +0.000 C 
ATOM     15  O   UNL     1      46.804   3.332   5.303  0.00  0.00    +0.000 OA
ENDBRANCH  11  12
ENDBRANCH   7  11
ENDBRANCH   2   5
ENDBRANCH   1   2
BRANCH   1  16
ATOM     16  O   UNL     1      45.083   7.408  12.540  0.00  0.00    +0.000 OA
BRANCH  16  20
ATOM     17  C   UNL     1      48.745  10.654  13.256  0.00  0.00    +0.000 C 
ATOM     18  C   UNL     1      48.258   9.333  12.725  0.00  0.00    +0.000 A 
ATOM     19  C   UNL     1      46.890   9.020  12.873  0.00  0.00    +0.000 A 
ATOM     20  C   UNL     1      46.381   7.809  12.414  0.00  0.00    +0.000 A 
ATOM     21  C   UNL     1      47.219   6.911  11.759  0.00  0.00    +0.000 A 
ATOM     22  C   UNL     1      48.576   7.199  11.604  0.00  0.00    +0.000 A 
ATOM     23  C   UNL     1      49.108   8.407  12.084  0.00  0.00    +0.000 A 
BRANCH  23  24
ATOM     24  C   UNL     1      50.573   8.672  11.933  0.00  0.00    +0.000 C 
ATOM     25  N   UNL     1      51.408   8.150  12.882  0.00  0.00    +0.000 N 
ATOM     26  O   UNL     1      51.038   9.318  11.005  0.00  0.00    +0.000 OA
ATOM     27  H   UNL     1      51.118   7.474  13.574  0.00  0.00    +0.000 HD
ATOM     28  H   UNL     1      52.401   8.273  12.724  0.00  0.00    +0.000 HD
ENDBRANCH  23  24
ENDBRANCH  16  20
ENDBRANCH   1  16
TORSDOF 7
ENDMDL
MODEL 8
REMARK VINA RESULT:    -6.421      3.555      7.569
REMARK INTER + INTRA:         -10.190
REMARK INTER:                  -9.253
REMARK INTRA:                  -0.937
REMARK UNBOUND:                -1.141
REMARK  Name = 
REMARK  10 active torsions:
REMARK  status: ('A' for Active; 'I' for Inactive)
REMARK    1  A    between atoms: C_1  and  C_2
REMARK    2  A    between atoms: C_4  and  O_5
REMARK    3  A    between atoms: O_5  and  C_6
REMARK    4  A    between atoms: C_6  and  C_7
REMARK    5  A    between atoms: C_7  and  C_8
REMARK    6  A    between atoms: C_7  and  C_9
REMARK    7  A    between atoms: C_7  and  C_10
REMARK    8  A    between atoms: C_12  and  O_13
REMARK    9  A    between atoms: O_13  and  C_14
REMARK   10  A    between atoms: C_23  and  C_24
REMARK                            x       y       z     vdW  Elec       q    Type
REMARK                         _______ _______ _______ _____ _____    ______ ____
ROOT
ATOM      1  C   UNL     1      46.280   6.743  11.406  0.00  0.00    +0.000 C 
ENDROOT
BRANCH   1   2
ATOM      2  C   UNL     1      45.537   5.572  12.105  0.00  0.00    +0.000 C 
ATOM      3  C   UNL     1      46.475   4.968  13.175  0.00  0.00    +0.000 C 
ATOM      4  C   UNL     1      44.291   6.125  12.831  0.00  0.00    +0.000 C 
BRANCH   2   5
ATOM      5  C   UNL     1      45.093   4.526  11.075  0.00  0.00    +0.000 A 
ATOM      6  C   UNL     1      45.431   4.683   9.731  0.00  0.00    +0.000 A 
ATOM      7  C   UNL     1      45.028   3.732   8.804  0.00  0.00    +0.000 A 
ATOM      8  C   UNL     1      44.324   2.618   9.234  0.00  0.00    +0.000 A 
ATOM      9  C   UNL     1      44.018   2.531  10.579  0.00  0.00    +0.000 A 
ATOM     10  N   UNL     1      44.369   3.460  11.497  0.00  0.00    +0.000 NA
BRANCH   7  11
ATOM     11  O   UNL     1      45.329   3.810   7.465  0.00  0.00    +0.000 OA
BRANCH  11  12
ATOM     12  C   UNL     1      46.683   3.496   7.072  0.00  0.00    +0.000 C 
ATOM     13  C   UNL     1      46.869   3.029   5.621  0.00  0.00    +0.000 C 
ATOM     14  C   UNL     1      47.751   1.949   6.238  0.00  0.00    +0.000 C 
ATOM     15  O   UNL     1      47.188   2.209   7.548  0.00  0.00    +0.000 OA
ENDBRANCH  11  12
ENDBRANCH   7  11
ENDBRANCH   2   5
ENDBRANCH   1   2
BRANCH   1  16
ATOM     16  O   UNL     1      46.775   7.661  12.387  0.00  0.00    +0.000 OA
BRANCH  16  20
ATOM     17  C   UNL     1      51.494   7.776  10.911  0.00  0.00    +0.000 C 
ATOM     18  C   UNL     1      50.242   8.496  11.332  0.00  0.00    +0.000 A 
ATOM     19  C   UNL     1      49.115   7.721  11.679  0.00  0.00    +0.000 A 
ATOM     20  C   UNL     1      47.923   8.326  12.064  0.00  0.00    +0.000 A 
ATOM     21  C   UNL     1      47.850   9.714  12.155  0.00  0.00    +0.000 A 
ATOM     22  C   UNL     1      48.953  10.500  11.814  0.00  0.00    +0.000 A 
ATOM     23  C   UNL     1      50.154   9.902  11.399  0.00  0.00    +0.000 A 
BRANCH  23  24
ATOM     24  C   UNL     1      51.307  10.772  11.008  0.00  0.00    +0.000 C 
ATOM     25  N   UNL     1      52.162  11.167  12.000  0.00  0.00    +0.000 N 
ATOM     26  O   UNL     1      51.511  11.125   9.855  0.00  0.00    +0.000 OA
ATOM     27  H   UNL     1      52.155  10.783  12.933  0.00  0.00    +0.000 HD
ATOM     28  H   UNL     1      52.978  11.692  11.707  0.00  0.00    +0.000 HD
ENDBRANCH  23  24
ENDBRANCH  16  20
ENDBRANCH   1  16
TORSDOF 7
ENDMDL
MODEL 9
REMARK VINA RESULT:    -6.370      3.141      8.048
REMARK INTER + INTRA:         -10.117
REMARK INTER:                  -9.324
REMARK INTRA:                  -0.793
REMARK UNBOUND:                -1.141
REMARK  Name = 
REMARK  10 active torsions:
REMARK  status: ('A' for Active; 'I' for Inactive)
REMARK    1  A    between atoms: C_1  and  C_2
REMARK    2  A    between atoms: C_4  and  O_5
REMARK    3  A    between atoms: O_5  and  C_6
REMARK    4  A    between atoms: C_6  and  C_7
REMARK    5  A    between atoms: C_7  and  C_8
REMARK    6  A    between atoms: C_7  and  C_9
REMARK    7  A    between atoms: C_7  and  C_10
REMARK    8  A    between atoms: C_12  and  O_13
REMARK    9  A    between atoms: O_13  and  C_14
REMARK   10  A    between atoms: C_23  and  C_24
REMARK                            x       y       z     vdW  Elec       q    Type
REMARK                         _______ _______ _______ _____ _____    ______ ____
ROOT
ATOM      1  C   UNL     1      46.967   6.296  11.809  0.00  0.00    +0.000 C 
ENDROOT
BRANCH   1   2
ATOM      2  C   UNL     1      45.437   6.029  11.796  0.00  0.00    +0.000 C 
ATOM      3  C   UNL     1      44.992   5.670  13.232  0.00  0.00    +0.000 C 
ATOM      4  C   UNL     1      44.701   7.324  11.385  0.00  0.00    +0.000 C 
BRANCH   2   5
ATOM      5  C   UNL     1      45.094   4.919  10.795  0.00  0.00    +0.000 A 
ATOM      6  C   UNL     1      45.515   5.020   9.469  0.00  0.00    +0.000 A 
ATOM      7  C   UNL     1      45.203   4.010   8.569  0.00  0.00    +0.000 A 
ATOM      8  C   UNL     1      44.507   2.896   9.011  0.00  0.00    +0.000 A 
ATOM      9  C   UNL     1      44.114   2.867  10.335  0.00  0.00    +0.000 A 
ATOM     10  N   UNL     1      44.376   3.852  11.224  0.00  0.00    +0.000 NA
BRANCH   7  11
ATOM     11  O   UNL     1      45.589   4.032   7.250  0.00  0.00    +0.000 OA
BRANCH  11  12
ATOM     12  C   UNL     1      46.900   3.511   6.936  0.00  0.00    +0.000 C 
ATOM     13  C   UNL     1      47.060   2.898   5.538  0.00  0.00    +0.000 C 
ATOM     14  C   UNL     1      47.774   1.771   6.276  0.00  0.00    +0.000 C 
ATOM     15  O   UNL     1      47.216   2.216   7.537  0.00  0.00    +0.000 OA
ENDBRANCH  11  12
ENDBRANCH   7  11
ENDBRANCH   2   5
ENDBRANCH   1   2
BRANCH   1  16
ATOM     16  O   UNL     1      47.232   7.588  12.367  0.00  0.00    +0.000 OA
BRANCH  16  20
ATOM     17  C   UNL     1      50.045   6.578  16.308  0.00  0.00    +0.000 C 
ATOM     18  C   UNL     1      49.856   7.264  14.982  0.00  0.00    +0.000 A 
ATOM     19  C   UNL     1      48.617   7.109  14.324  0.00  0.00    +0.000 A 
ATOM     20  C   UNL     1      48.384   7.707  13.090  0.00  0.00    +0.000 A 
ATOM     21  C   UNL     1      49.366   8.509  12.514  0.00  0.00    +0.000 A 
ATOM     22  C   UNL     1      50.600   8.673  13.146  0.00  0.00    +0.000 A 
ATOM     23  C   UNL     1      50.857   8.055  14.381  0.00  0.00    +0.000 A 
BRANCH  23  24
ATOM     24  C   UNL     1      52.201   8.223  15.017  0.00  0.00    +0.000 C 
ATOM     25  N   UNL     1      53.177   7.329  14.672  0.00  0.00    +0.000 N 
ATOM     26  O   UNL     1      52.452   9.119  15.810  0.00  0.00    +0.000 OA
ATOM     27  H   UNL     1      53.093   6.675  13.907  0.00  0.00    +0.000 HD
ATOM     28  H   UNL     1      54.100   7.501  15.052  0.00  0.00    +0.000 HD
ENDBRANCH  23  24
ENDBRANCH  16  20
ENDBRANCH   1  16
TORSDOF 7
ENDMDL
