MODEL 1
REMARK VINA RESULT:    -9.072      0.000      0.000
REMARK INTER + INTRA:         -11.663
REMARK INTER:                 -11.194
REMARK INTRA:                  -0.469
REMARK UNBOUND:                -0.469
REMARK  Name = 
REMARK  4 active torsions:
REMARK  status: ('A' for Active; 'I' for Inactive)
REMARK    1  A    between atoms: C_2  and  C_4
REMARK    2  A    between atoms: N_8  and  C_9
REMARK    3  A    between atoms: C_9  and  C_10
REMARK    4  A    between atoms: C_14  and  C_15
REMARK                            x       y       z     vdW  Elec       q    Type
REMARK                         _______ _______ _______ _____ _____    ______ ____
ROOT
ATOM      1  C   UNL     1      46.394   2.272   7.732  0.00  0.00    +0.000 A 
ATOM      2  C   UNL     1      45.554   1.870   8.740  0.00  0.00    +0.000 A 
ATOM      3  N   UNL     1      44.677   2.696   9.352  0.00  0.00    +0.000 NA
ATOM      4  C   UNL     1      44.651   3.976   8.952  0.00  0.00    +0.000 A 
ATOM      5  N   UNL     1      43.761   4.867   9.533  0.00  0.00    +0.000 N 
ATOM      6  N   UNL     1      45.456   4.470   7.998  0.00  0.00    +0.000 NA
ATOM      7  C   UNL     1      46.316   3.606   7.407  0.00  0.00    +0.000 A 
ATOM      8  H   UNL     1      44.116   5.799   9.353  0.00  0.00    +0.000 HD
ENDROOT
BRANCH   1  10
ATOM      9  N   UNL     1      48.494   1.928   6.567  0.00  0.00    +0.000 N 
ATOM     10  C   UNL     1      47.345   1.374   7.064  0.00  0.00    +0.000 C 
ATOM     11  O   UNL     1      47.129   0.173   6.979  0.00  0.00    +0.000 OA
ATOM     12  H   UNL     1      49.176   1.282   6.183  0.00  0.00    +0.000 HD
ATOM     13  H   UNL     1      48.832   2.844   6.827  0.00  0.00    +0.000 HD
ENDBRANCH   1  10
BRANCH   5  14
ATOM     14  C   UNL     1      43.460   4.564  10.919  0.00  0.00    +0.000 C 
BRANCH  14  15
ATOM     15  C   UNL     1      44.634   4.910  11.795  0.00  0.00    +0.000 A 
ATOM     16  C   UNL     1      44.967   4.128  12.891  0.00  0.00    +0.000 A 
ATOM     17  N   UNL     1      45.982   4.407  13.734  0.00  0.00    +0.000 NA
ATOM     18  C   UNL     1      46.703   5.527  13.471  0.00  0.00    +0.000 A 
ATOM     19  C   UNL     1      46.469   6.408  12.412  0.00  0.00    +0.000 A 
ATOM     20  C   UNL     1      45.398   6.066  11.571  0.00  0.00    +0.000 A 
BRANCH  19  21
ATOM     21  C   UNL     1      47.286   7.619  12.195  0.00  0.00    +0.000 A 
ATOM     22  C   UNL     1      48.650   7.555  11.873  0.00  0.00    +0.000 A 
ATOM     23  C   UNL     1      49.391   8.718  11.663  0.00  0.00    +0.000 A 
ATOM     24  C   UNL     1      48.751   9.937  11.790  0.00  0.00    +0.000 A 
ATOM     25  N   UNL     1      47.447  10.060  12.103  0.00  0.00    +0.000 NA
ATOM     26  C   UNL     1      46.754   8.909  12.292  0.00  0.00    +0.000 A 
ENDBRANCH  19  21
ENDBRANCH  14  15
ENDBRANCH   5  14
TORSDOF 4
ENDMDL
MODEL 2
REMARK VINA RESULT:    -8.662      1.796      3.536
REMARK INTER + INTRA:         -11.156
REMARK INTER:                 -10.568
REMARK INTRA:                  -0.589
REMARK UNBOUND:                -0.469
REMARK  Name = 
REMARK  4 active torsions:
REMARK  status: ('A' for Active; 'I' for Inactive)
REMARK    1  A    between atoms: C_2  and  C_4
REMARK    2  A    between atoms: N_8  and  C_9
REMARK    3  A    between atoms: C_9  and  C_10
REMARK    4  A    between atoms: C_14  and  C_15
REMARK                            x       y       z     vdW  Elec       q    Type
REMARK                         _______ _______ _______ _____ _____    ______ ____
ROOT
ATOM      1  C   UNL     1      46.372   2.289   7.691  0.00  0.00    +0.000 A 
ATOM      2  C   UNL     1      45.616   1.907   8.771  0.00  0.00    +0.000 A 
ATOM      3  N   UNL     1      44.786   2.742   9.433  0.00  0.00    +0.000 NA
ATOM      4  C   UNL     1      44.722   4.013   9.009  0.00  0.00    +0.000 A 
ATOM      5  N   UNL     1      43.876   4.913   9.639  0.00  0.00    +0.000 N 
ATOM      6  N   UNL     1      45.445   4.489   7.984  0.00  0.00    +0.000 NA
ATOM      7  C   UNL     1      46.261   3.615   7.345  0.00  0.00    +0.000 A 
ATOM      8  H   UNL     1      44.210   5.843   9.412  0.00  0.00    +0.000 HD
ENDROOT
BRANCH   1  10
ATOM      9  N   UNL     1      48.367   1.930   6.358  0.00  0.00    +0.000 N 
ATOM     10  C   UNL     1      47.272   1.381   6.969  0.00  0.00    +0.000 C 
ATOM     11  O   UNL     1      47.062   0.175   6.937  0.00  0.00    +0.000 OA
ATOM     12  H   UNL     1      49.020   1.279   5.935  0.00  0.00    +0.000 HD
ATOM     13  H   UNL     1      48.715   2.856   6.561  0.00  0.00    +0.000 HD
ENDBRANCH   1  10
BRANCH   5  14
ATOM     14  C   UNL     1      43.688   4.640  11.051  0.00  0.00    +0.000 C 
BRANCH  14  15
ATOM     15  C   UNL     1      44.754   5.327  11.862  0.00  0.00    +0.000 A 
ATOM     16  C   UNL     1      45.159   6.619  11.565  0.00  0.00    +0.000 A 
ATOM     17  N   UNL     1      46.134   7.273  12.231  0.00  0.00    +0.000 NA
ATOM     18  C   UNL     1      46.736   6.601  13.244  0.00  0.00    +0.000 A 
ATOM     19  C   UNL     1      46.435   5.295  13.640  0.00  0.00    +0.000 A 
ATOM     20  C   UNL     1      45.414   4.667  12.909  0.00  0.00    +0.000 A 
BRANCH  19  21
ATOM     21  C   UNL     1      47.143   4.620  14.745  0.00  0.00    +0.000 A 
ATOM     22  C   UNL     1      47.562   5.305  15.897  0.00  0.00    +0.000 A 
ATOM     23  C   UNL     1      48.219   4.635  16.929  0.00  0.00    +0.000 A 
ATOM     24  C   UNL     1      48.458   3.280  16.785  0.00  0.00    +0.000 A 
ATOM     25  N   UNL     1      48.086   2.573  15.701  0.00  0.00    +0.000 NA
ATOM     26  C   UNL     1      47.442   3.253  14.721  0.00  0.00    +0.000 A 
ENDBRANCH  19  21
ENDBRANCH  14  15
ENDBRANCH   5  14
TORSDOF 4
ENDMDL
MODEL 3
REMARK VINA RESULT:    -8.121      2.883      6.701
REMARK INTER + INTRA:         -10.489
REMARK INTER:                  -9.801
REMARK INTRA:                  -0.688
REMARK UNBOUND:                -0.469
REMARK  Name = 
REMARK  4 active torsions:
REMARK  status: ('A' for Active; 'I' for Inactive)
REMARK    1  A    between atoms: C_2  and  C_4
REMARK    2  A    between atoms: N_8  and  C_9
REMARK    3  A    between atoms: C_9  and  C_10
REMARK    4  A    between atoms: C_14  and  C_15
REMARK                            x       y       z     vdW  Elec       q    Type
REMARK                         _______ _______ _______ _____ _____    ______ ____
ROOT
ATOM      1  C   UNL     1      48.421   7.152  12.889  0.00  0.00    +0.000 A 
ATOM      2  C   UNL     1      47.648   7.594  11.846  0.00  0.00    +0.000 A 
ATOM      3  N   UNL     1      46.328   7.329  11.732  0.00  0.00    +0.000 NA
ATOM      4  C   UNL     1      45.764   6.580  12.691  0.00  0.00    +0.000 A 
ATOM      5  N   UNL     1      44.409   6.287  12.636  0.00  0.00    +0.000 N 
ATOM      6  N   UNL     1      46.443   6.075  13.732  0.00  0.00    +0.000 NA
ATOM      7  C   UNL     1      47.764   6.370  13.810  0.00  0.00    +0.000 A 
ATOM      8  H   UNL     1      44.258   5.473  13.221  0.00  0.00    +0.000 HD
ENDROOT
BRANCH   1  10
ATOM      9  N   UNL     1      50.610   7.408  11.874  0.00  0.00    +0.000 N 
ATOM     10  C   UNL     1      49.855   7.443  13.016  0.00  0.00    +0.000 C 
ATOM     11  O   UNL     1      50.350   7.730  14.097  0.00  0.00    +0.000 OA
ATOM     12  H   UNL     1      51.580   7.692  11.967  0.00  0.00    +0.000 HD
ATOM     13  H   UNL     1      50.218   7.426  10.943  0.00  0.00    +0.000 HD
ENDBRANCH   1  10
BRANCH   5  14
ATOM     14  C   UNL     1      43.891   6.196  11.285  0.00  0.00    +0.000 C 
BRANCH  14  15
ATOM     15  C   UNL     1      43.976   4.777  10.788  0.00  0.00    +0.000 A 
ATOM     16  C   UNL     1      43.258   3.760  11.399  0.00  0.00    +0.000 A 
ATOM     17  N   UNL     1      43.322   2.465  11.023  0.00  0.00    +0.000 NA
ATOM     18  C   UNL     1      44.147   2.171   9.987  0.00  0.00    +0.000 A 
ATOM     19  C   UNL     1      44.934   3.093   9.292  0.00  0.00    +0.000 A 
ATOM     20  C   UNL     1      44.826   4.423   9.730  0.00  0.00    +0.000 A 
BRANCH  19  21
ATOM     21  C   UNL     1      45.821   2.698   8.181  0.00  0.00    +0.000 A 
ATOM     22  C   UNL     1      46.167   3.581   7.147  0.00  0.00    +0.000 A 
ATOM     23  C   UNL     1      47.018   3.179   6.117  0.00  0.00    +0.000 A 
ATOM     24  C   UNL     1      47.505   1.884   6.134  0.00  0.00    +0.000 A 
ATOM     25  N   UNL     1      47.202   0.992   7.097  0.00  0.00    +0.000 NA
ATOM     26  C   UNL     1      46.379   1.418   8.086  0.00  0.00    +0.000 A 
ENDBRANCH  19  21
ENDBRANCH  14  15
ENDBRANCH   5  14
TORSDOF 4
ENDMDL
MODEL 4
REMARK VINA RESULT:    -7.934      3.104      7.159
REMARK INTER + INTRA:         -10.258
REMARK INTER:                  -9.880
REMARK INTRA:                  -0.378
REMARK UNBOUND:                -0.469
REMARK  Name = 
REMARK  4 active torsions:
REMARK  status: ('A' for Active; 'I' for Inactive)
REMARK    1  A    between atoms: C_2  and  C_4
REMARK    2  A    between atoms: N_8  and  C_9
REMARK    3  A    between atoms: C_9  and  C_10
REMARK    4  A    between atoms: C_14  and  C_15
REMARK                            x       y       z     vdW  Elec       q    Type
REMARK                         _______ _______ _______ _____ _____    ______ ____
ROOT
ATOM      1  C   UNL     1      47.873   5.586  15.271  0.00  0.00    +0.000 A 
ATOM      2  C   UNL     1      46.805   4.877  14.783  0.00  0.00    +0.000 A 
ATOM      3  N   UNL     1      46.211   5.144  13.599  0.00  0.00    +0.000 NA
ATOM      4  C   UNL     1      46.695   6.170  12.883  0.00  0.00    +0.000 A 
ATOM      5  N   UNL     1      46.137   6.482  11.653  0.00  0.00    +0.000 N 
ATOM      6  N   UNL     1      47.715   6.941  13.291  0.00  0.00    +0.000 NA
ATOM      7  C   UNL     1      48.284   6.635  14.482  0.00  0.00    +0.000 A 
ATOM      8  H   UNL     1      46.395   7.441  11.446  0.00  0.00    +0.000 HD
ENDROOT
BRANCH   1  10
ATOM      9  N   UNL     1      47.878   5.700  17.694  0.00  0.00    +0.000 N 
ATOM     10  C   UNL     1      48.521   5.294  16.557  0.00  0.00    +0.000 C 
ATOM     11  O   UNL     1      49.583   4.687  16.607  0.00  0.00    +0.000 OA
ATOM     12  H   UNL     1      48.298   5.418  18.574  0.00  0.00    +0.000 HD
ATOM     13  H   UNL     1      46.905   5.970  17.722  0.00  0.00    +0.000 HD
ENDBRANCH   1  10
BRANCH   5  14
ATOM     14  C   UNL     1      44.722   6.178  11.565  0.00  0.00    +0.000 C 
BRANCH  14  15
ATOM     15  C   UNL     1      44.517   4.828  10.931  0.00  0.00    +0.000 A 
ATOM     16  C   UNL     1      43.598   3.926  11.446  0.00  0.00    +0.000 A 
ATOM     17  N   UNL     1      43.397   2.690  10.945  0.00  0.00    +0.000 NA
ATOM     18  C   UNL     1      44.153   2.334   9.876  0.00  0.00    +0.000 A 
ATOM     19  C   UNL     1      45.121   3.138   9.267  0.00  0.00    +0.000 A 
ATOM     20  C   UNL     1      45.286   4.412   9.834  0.00  0.00    +0.000 A 
BRANCH  19  21
ATOM     21  C   UNL     1      45.918   2.679   8.113  0.00  0.00    +0.000 A 
ATOM     22  C   UNL     1      46.186   3.504   7.010  0.00  0.00    +0.000 A 
ATOM     23  C   UNL     1      46.954   3.043   5.941  0.00  0.00    +0.000 A 
ATOM     24  C   UNL     1      47.437   1.747   5.989  0.00  0.00    +0.000 A 
ATOM     25  N   UNL     1      47.207   0.909   7.017  0.00  0.00    +0.000 NA
ATOM     26  C   UNL     1      46.464   1.392   8.044  0.00  0.00    +0.000 A 
ENDBRANCH  19  21
ENDBRANCH  14  15
ENDBRANCH   5  14
TORSDOF 4
ENDMDL
MODEL 5
REMARK VINA RESULT:    -7.822      1.798      2.485
REMARK INTER + INTRA:         -10.120
REMARK INTER:                  -9.599
REMARK INTRA:                  -0.522
REMARK UNBOUND:                -0.469
REMARK  Name = 
REMARK  4 active torsions:
REMARK  status: ('A' for Active; 'I' for Inactive)
REMARK    1  A    between atoms: C_2  and  C_4
REMARK    2  A    between atoms: N_8  and  C_9
REMARK    3  A    between atoms: C_9  and  C_10
REMARK    4  A    between atoms: C_14  and  C_15
REMARK                            x       y       z     vdW  Elec       q    Type
REMARK                         _______ _______ _______ _____ _____    ______ ____
ROOT
ATOM      1  C   UNL     1      46.288   2.091   7.953  0.00  0.00    +0.000 A 
ATOM      2  C   UNL     1      45.656   1.919   9.159  0.00  0.00    +0.000 A 
ATOM      3  N   UNL     1      44.911   2.877   9.753  0.00  0.00    +0.000 NA
ATOM      4  C   UNL     1      44.809   4.058   9.124  0.00  0.00    +0.000 A 
ATOM      5  N   UNL     1      44.045   5.075   9.678  0.00  0.00    +0.000 N 
ATOM      6  N   UNL     1      45.416   4.332   7.959  0.00  0.00    +0.000 NA
ATOM      7  C   UNL     1      46.148   3.340   7.396  0.00  0.00    +0.000 A 
ATOM      8  H   UNL     1      44.359   5.943   9.258  0.00  0.00    +0.000 HD
ENDROOT
BRANCH   1  10
ATOM      9  N   UNL     1      46.807  -0.254   7.611  0.00  0.00    +0.000 N 
ATOM     10  C   UNL     1      47.094   1.048   7.305  0.00  0.00    +0.000 C 
ATOM     11  O   UNL     1      47.972   1.335   6.503  0.00  0.00    +0.000 OA
ATOM     12  H   UNL     1      47.317  -0.962   7.093  0.00  0.00    +0.000 HD
ATOM     13  H   UNL     1      45.950  -0.548   8.058  0.00  0.00    +0.000 HD
ENDBRANCH   1  10
BRANCH   5  14
ATOM     14  C   UNL     1      44.015   5.053  11.128  0.00  0.00    +0.000 C 
BRANCH  14  15
ATOM     15  C   UNL     1      44.689   6.280  11.682  0.00  0.00    +0.000 A 
ATOM     16  C   UNL     1      44.185   7.548  11.435  0.00  0.00    +0.000 A 
ATOM     17  N   UNL     1      44.765   8.685  11.873  0.00  0.00    +0.000 NA
ATOM     18  C   UNL     1      45.908   8.549  12.592  0.00  0.00    +0.000 A 
ATOM     19  C   UNL     1      46.528   7.336  12.903  0.00  0.00    +0.000 A 
ATOM     20  C   UNL     1      45.880   6.189  12.418  0.00  0.00    +0.000 A 
BRANCH  19  21
ATOM     21  C   UNL     1      47.782   7.266  13.679  0.00  0.00    +0.000 A 
ATOM     22  C   UNL     1      48.848   8.152  13.465  0.00  0.00    +0.000 A 
ATOM     23  C   UNL     1      50.015   8.066  14.225  0.00  0.00    +0.000 A 
ATOM     24  C   UNL     1      50.100   7.077  15.189  0.00  0.00    +0.000 A 
ATOM     25  N   UNL     1      49.112   6.195  15.435  0.00  0.00    +0.000 NA
ATOM     26  C   UNL     1      47.989   6.313  14.683  0.00  0.00    +0.000 A 
ENDBRANCH  19  21
ENDBRANCH  14  15
ENDBRANCH   5  14
TORSDOF 4
ENDMDL
MODEL 6
REMARK VINA RESULT:    -7.645      4.044      7.815
REMARK INTER + INTRA:          -9.902
REMARK INTER:                  -9.487
REMARK INTRA:                  -0.415
REMARK UNBOUND:                -0.469
REMARK  Name = 
REMARK  4 active torsions:
REMARK  status: ('A' for Active; 'I' for Inactive)
REMARK    1  A    between atoms: C_2  and  C_4
REMARK    2  A    between atoms: N_8  and  C_9
REMARK    3  A    between atoms: C_9  and  C_10
REMARK    4  A    between atoms: C_14  and  C_15
REMARK                            x       y       z     vdW  Elec       q    Type
REMARK                         _______ _______ _______ _____ _____    ______ ____
ROOT
ATOM      1  C   UNL     1      48.446   4.486  17.371  0.00  0.00    +0.000 A 
ATOM      2  C   UNL     1      47.402   3.690  16.971  0.00  0.00    +0.000 A 
ATOM      3  N   UNL     1      46.787   3.814  15.775  0.00  0.00    +0.000 NA
ATOM      4  C   UNL     1      47.223   4.782  14.954  0.00  0.00    +0.000 A 
ATOM      5  N   UNL     1      46.640   4.947  13.706  0.00  0.00    +0.000 N 
ATOM      6  N   UNL     1      48.214   5.629  15.268  0.00  0.00    +0.000 NA
ATOM      7  C   UNL     1      48.807   5.465  16.476  0.00  0.00    +0.000 A 
ATOM      8  H   UNL     1      46.857   5.889  13.401  0.00  0.00    +0.000 HD
ENDROOT
BRANCH   1  10
ATOM      9  N   UNL     1      48.460   3.659  19.652  0.00  0.00    +0.000 N 
ATOM     10  C   UNL     1      49.118   4.349  18.670  0.00  0.00    +0.000 C 
ATOM     11  O   UNL     1      50.235   4.813  18.857  0.00  0.00    +0.000 OA
ATOM     12  H   UNL     1      48.972   3.504  20.514  0.00  0.00    +0.000 HD
ATOM     13  H   UNL     1      47.670   3.055  19.478  0.00  0.00    +0.000 HD
ENDBRANCH   1  10
BRANCH   5  14
ATOM     14  C   UNL     1      45.237   4.581  13.669  0.00  0.00    +0.000 C 
BRANCH  14  15
ATOM     15  C   UNL     1      44.731   4.600  12.251  0.00  0.00    +0.000 A 
ATOM     16  C   UNL     1      43.542   5.234  11.923  0.00  0.00    +0.000 A 
ATOM     17  N   UNL     1      43.019   5.254  10.679  0.00  0.00    +0.000 NA
ATOM     18  C   UNL     1      43.718   4.605   9.713  0.00  0.00    +0.000 A 
ATOM     19  C   UNL     1      44.919   3.917   9.908  0.00  0.00    +0.000 A 
ATOM     20  C   UNL     1      45.412   3.931  11.223  0.00  0.00    +0.000 A 
BRANCH  19  21
ATOM     21  C   UNL     1      45.617   3.220   8.811  0.00  0.00    +0.000 A 
ATOM     22  C   UNL     1      46.186   3.907   7.727  0.00  0.00    +0.000 A 
ATOM     23  C   UNL     1      46.850   3.218   6.712  0.00  0.00    +0.000 A 
ATOM     24  C   UNL     1      46.926   1.840   6.793  0.00  0.00    +0.000 A 
ATOM     25  N   UNL     1      46.395   1.127   7.805  0.00  0.00    +0.000 NA
ATOM     26  C   UNL     1      45.764   1.829   8.779  0.00  0.00    +0.000 A 
ENDBRANCH  19  21
ENDBRANCH  14  15
ENDBRANCH   5  14
TORSDOF 4
ENDMDL
MODEL 7
REMARK VINA RESULT:    -7.578      1.838      2.591
REMARK INTER + INTRA:          -9.819
REMARK INTER:                  -9.485
REMARK INTRA:                  -0.334
REMARK UNBOUND:                -0.469
REMARK  Name = 
REMARK  4 active torsions:
REMARK  status: ('A' for Active; 'I' for Inactive)
REMARK    1  A    between atoms: C_2  and  C_4
REMARK    2  A    between atoms: N_8  and  C_9
REMARK    3  A    between atoms: C_9  and  C_10
REMARK    4  A    between atoms: C_14  and  C_15
REMARK                            x       y       z     vdW  Elec       q    Type
REMARK                         _______ _______ _______ _____ _____    ______ ____
ROOT
ATOM      1  C   UNL     1      46.721   2.443   7.236  0.00  0.00    +0.000 A 
ATOM      2  C   UNL     1      46.393   3.653   7.794  0.00  0.00    +0.000 A 
ATOM      3  N   UNL     1      45.625   3.780   8.899  0.00  0.00    +0.000 NA
ATOM      4  C   UNL     1      45.156   2.654   9.457  0.00  0.00    +0.000 A 
ATOM      5  N   UNL     1      44.376   2.720  10.602  0.00  0.00    +0.000 N 
ATOM      6  N   UNL     1      45.396   1.428   8.967  0.00  0.00    +0.000 NA
ATOM      7  C   UNL     1      46.174   1.347   7.860  0.00  0.00    +0.000 A 
ATOM      8  H   UNL     1      43.863   1.847  10.661  0.00  0.00    +0.000 HD
ENDROOT
BRANCH   1  10
ATOM      9  N   UNL     1      47.357   3.197   5.019  0.00  0.00    +0.000 N 
ATOM     10  C   UNL     1      47.558   2.305   6.037  0.00  0.00    +0.000 C 
ATOM     11  O   UNL     1      48.421   1.440   5.964  0.00  0.00    +0.000 OA
ATOM     12  H   UNL     1      47.998   3.138   4.235  0.00  0.00    +0.000 HD
ATOM     13  H   UNL     1      46.848   4.063   5.127  0.00  0.00    +0.000 HD
ENDBRANCH   1  10
BRANCH   5  14
ATOM     14  C   UNL     1      43.576   3.926  10.688  0.00  0.00    +0.000 C 
BRANCH  14  15
ATOM     15  C   UNL     1      44.307   4.981  11.476  0.00  0.00    +0.000 A 
ATOM     16  C   UNL     1      45.063   4.649  12.590  0.00  0.00    +0.000 A 
ATOM     17  N   UNL     1      45.709   5.553  13.356  0.00  0.00    +0.000 NA
ATOM     18  C   UNL     1      45.592   6.855  12.993  0.00  0.00    +0.000 A 
ATOM     19  C   UNL     1      44.855   7.328  11.904  0.00  0.00    +0.000 A 
ATOM     20  C   UNL     1      44.203   6.341  11.147  0.00  0.00    +0.000 A 
BRANCH  19  21
ATOM     21  C   UNL     1      44.760   8.764  11.577  0.00  0.00    +0.000 A 
ATOM     22  C   UNL     1      43.724   9.287  10.789  0.00  0.00    +0.000 A 
ATOM     23  C   UNL     1      43.658  10.652  10.508  0.00  0.00    +0.000 A 
ATOM     24  C   UNL     1      44.645  11.477  11.016  0.00  0.00    +0.000 A 
ATOM     25  N   UNL     1      45.666  11.030  11.773  0.00  0.00    +0.000 NA
ATOM     26  C   UNL     1      45.695   9.700  12.034  0.00  0.00    +0.000 A 
ENDBRANCH  19  21
ENDBRANCH  14  15
ENDBRANCH   5  14
TORSDOF 4
ENDMDL
MODEL 8
REMARK VINA RESULT:    -7.142      3.087      6.863
REMARK INTER + INTRA:          -9.281
REMARK INTER:                  -8.770
REMARK INTRA:                  -0.511
REMARK UNBOUND:                -0.469
REMARK  Name = 
REMARK  4 active torsions:
REMARK  status: ('A' for Active; 'I' for Inactive)
REMARK    1  A    between atoms: C_2  and  C_4
REMARK    2  A    between atoms: N_8  and  C_9
REMARK    3  A    between atoms: C_9  and  C_10
REMARK    4  A    between atoms: C_14  and  C_15
REMARK                            x       y       z     vdW  Elec       q    Type
REMARK                         _______ _______ _______ _____ _____    ______ ____
ROOT
ATOM      1  C   UNL     1      48.029   9.106  12.318  0.00  0.00    +0.000 A 
ATOM      2  C   UNL     1      48.096   7.742  12.181  0.00  0.00    +0.000 A 
ATOM      3  N   UNL     1      47.030   6.925  12.326  0.00  0.00    +0.000 NA
ATOM      4  C   UNL     1      45.855   7.492  12.636  0.00  0.00    +0.000 A 
ATOM      5  N   UNL     1      44.722   6.706  12.783  0.00  0.00    +0.000 N 
ATOM      6  N   UNL     1      45.696   8.812  12.822  0.00  0.00    +0.000 NA
ATOM      7  C   UNL     1      46.791   9.595  12.661  0.00  0.00    +0.000 A 
ATOM      8  H   UNL     1      44.056   7.245  13.325  0.00  0.00    +0.000 HD
ENDROOT
BRANCH   1  10
ATOM      9  N   UNL     1      50.362   9.432  11.739  0.00  0.00    +0.000 N 
ATOM     10  C   UNL     1      49.186   9.995  12.156  0.00  0.00    +0.000 C 
ATOM     11  O   UNL     1      49.094  11.198  12.362  0.00  0.00    +0.000 OA
ATOM     12  H   UNL     1      51.127  10.072  11.554  0.00  0.00    +0.000 HD
ATOM     13  H   UNL     1      50.427   8.514  11.322  0.00  0.00    +0.000 HD
ENDBRANCH   1  10
BRANCH   5  14
ATOM     14  C   UNL     1      45.003   5.372  13.277  0.00  0.00    +0.000 C 
BRANCH  14  15
ATOM     15  C   UNL     1      44.580   4.341  12.264  0.00  0.00    +0.000 A 
ATOM     16  C   UNL     1      43.526   3.476  12.520  0.00  0.00    +0.000 A 
ATOM     17  N   UNL     1      43.126   2.508  11.669  0.00  0.00    +0.000 NA
ATOM     18  C   UNL     1      43.812   2.398  10.504  0.00  0.00    +0.000 A 
ATOM     19  C   UNL     1      44.898   3.193  10.126  0.00  0.00    +0.000 A 
ATOM     20  C   UNL     1      45.269   4.180  11.053  0.00  0.00    +0.000 A 
BRANCH  19  21
ATOM     21  C   UNL     1      45.608   3.006   8.846  0.00  0.00    +0.000 A 
ATOM     22  C   UNL     1      46.098   1.757   8.436  0.00  0.00    +0.000 A 
ATOM     23  C   UNL     1      46.755   1.611   7.214  0.00  0.00    +0.000 A 
ATOM     24  C   UNL     1      46.921   2.731   6.420  0.00  0.00    +0.000 A 
ATOM     25  N   UNL     1      46.478   3.956   6.764  0.00  0.00    +0.000 NA
ATOM     26  C   UNL     1      45.837   4.060   7.954  0.00  0.00    +0.000 A 
ENDBRANCH  19  21
ENDBRANCH  14  15
ENDBRANCH   5  14
TORSDOF 4
ENDMDL
MODEL 9
REMARK VINA RESULT:    -6.967      4.758      8.019
REMARK INTER + INTRA:          -9.065
REMARK INTER:                  -8.519
REMARK INTRA:                  -0.545
REMARK UNBOUND:                -0.469
REMARK  Name = 
REMARK  4 active torsions:
REMARK  status: ('A' for Active; 'I' for Inactive)
REMARK    1  A    between atoms: C_2  and  C_4
REMARK    2  A    between atoms: N_8  and  C_9
REMARK    3  A    between atoms: C_9  and  C_10
REMARK    4  A    between atoms: C_14  and  C_15
REMARK                            x       y       z     vdW  Elec       q    Type
REMARK                         _______ _______ _______ _____ _____    ______ ____
ROOT
ATOM      1  C   UNL     1      51.063   2.510  17.415  0.00  0.00    +0.000 A 
ATOM      2  C   UNL     1      51.314   3.859  17.395  0.00  0.00    +0.000 A 
ATOM      3  N   UNL     1      50.385   4.785  17.073  0.00  0.00    +0.000 NA
ATOM      4  C   UNL     1      49.162   4.344  16.742  0.00  0.00    +0.000 A 
ATOM      5  N   UNL     1      48.162   5.248  16.416  0.00  0.00    +0.000 N 
ATOM      6  N   UNL     1      48.830   3.044  16.700  0.00  0.00    +0.000 NA
ATOM      7  C   UNL     1      49.791   2.150  17.036  0.00  0.00    +0.000 A 
ATOM      8  H   UNL     1      47.461   4.738  15.891  0.00  0.00    +0.000 HD
ENDROOT
BRANCH   1  10
ATOM      9  N   UNL     1      51.625   0.259  18.124  0.00  0.00    +0.000 N 
ATOM     10  C   UNL     1      52.072   1.503  17.768  0.00  0.00    +0.000 C 
ATOM     11  O   UNL     1      53.267   1.761  17.720  0.00  0.00    +0.000 OA
ATOM     12  H   UNL     1      52.337  -0.446  18.285  0.00  0.00    +0.000 HD
ATOM     13  H   UNL     1      50.689  -0.074  17.940  0.00  0.00    +0.000 HD
ENDBRANCH   1  10
BRANCH   5  14
ATOM     14  C   UNL     1      48.658   6.460  15.793  0.00  0.00    +0.000 C 
BRANCH  14  15
ATOM     15  C   UNL     1      48.158   6.559  14.376  0.00  0.00    +0.000 A 
ATOM     16  C   UNL     1      48.669   7.506  13.500  0.00  0.00    +0.000 A 
ATOM     17  N   UNL     1      48.236   7.668  12.233  0.00  0.00    +0.000 NA
ATOM     18  C   UNL     1      47.240   6.844  11.818  0.00  0.00    +0.000 A 
ATOM     19  C   UNL     1      46.629   5.858  12.598  0.00  0.00    +0.000 A 
ATOM     20  C   UNL     1      47.121   5.739  13.908  0.00  0.00    +0.000 A 
BRANCH  19  21
ATOM     21  C   UNL     1      45.539   5.006  12.084  0.00  0.00    +0.000 A 
ATOM     22  C   UNL     1      45.035   5.138  10.781  0.00  0.00    +0.000 A 
ATOM     23  C   UNL     1      44.011   4.309  10.322  0.00  0.00    +0.000 A 
ATOM     24  C   UNL     1      43.498   3.359  11.187  0.00  0.00    +0.000 A 
ATOM     25  N   UNL     1      43.937   3.191  12.449  0.00  0.00    +0.000 NA
ATOM     26  C   UNL     1      44.939   4.008  12.859  0.00  0.00    +0.000 A 
ENDBRANCH  19  21
ENDBRANCH  14  15
ENDBRANCH   5  14
TORSDOF 4
ENDMDL
