MODEL 1
REMARK VINA RESULT:    -9.257      0.000      0.000
REMARK INTER + INTRA:         -12.659
REMARK INTER:                 -11.422
REMARK INTRA:                  -1.237
REMARK UNBOUND:                -1.237
REMARK  Name = 
REMARK  4 active torsions:
REMARK  status: ('A' for Active; 'I' for Inactive)
REMARK    1  A    between atoms: C_2  and  C_4
REMARK    2  A    between atoms: N_8  and  C_9
REMARK    3  A    between atoms: C_9  and  C_10
REMARK    4  A    between atoms: C_14  and  C_15
REMARK                            x       y       z     vdW  Elec       q    Type
REMARK                         _______ _______ _______ _____ _____    ______ ____
ROOT
ATOM      1  C   UNL     1      43.795   4.884  11.354  0.00  0.00    +0.000 C 
ATOM      2  C   UNL     1      42.449   5.149  12.018  0.00  0.00    +0.000 C 
ATOM      3  C   UNL     1      42.990   6.128  11.032  0.00  0.00    +0.000 C 
ENDROOT
BRANCH   1   8
ATOM      4  C   UNL     1      46.574   2.760   7.496  0.00  0.00    +0.000 A 
ATOM      5  C   UNL     1      46.235   4.097   7.680  0.00  0.00    +0.000 A 
ATOM      6  C   UNL     1      45.350   4.445   8.706  0.00  0.00    +0.000 A 
ATOM      7  C   UNL     1      44.815   3.452   9.518  0.00  0.00    +0.000 A 
ATOM      8  N   UNL     1      43.824   3.699  10.475  0.00  0.00    +0.000 N 
ATOM      9  N   UNL     1      45.148   2.153   9.357  0.00  0.00    +0.000 NA
ATOM     10  C   UNL     1      46.009   1.833   8.356  0.00  0.00    +0.000 A 
ATOM     11  H   UNL     1      43.691   2.807  10.950  0.00  0.00    +0.000 HD
BRANCH   4  13
ATOM     12  N   UNL     1      47.360   2.935   5.201  0.00  0.00    +0.000 N 
ATOM     13  C   UNL     1      47.448   2.290   6.402  0.00  0.00    +0.000 C 
ATOM     14  O   UNL     1      48.235   1.366   6.567  0.00  0.00    +0.000 OA
ATOM     15  H   UNL     1      48.015   2.649   4.485  0.00  0.00    +0.000 HD
ATOM     16  H   UNL     1      46.908   3.830   5.089  0.00  0.00    +0.000 HD
ENDBRANCH   4  13
ENDBRANCH   1   8
BRANCH   1  17
ATOM     17  C   UNL     1      45.063   5.034  12.187  0.00  0.00    +0.000 A 
ATOM     18  C   UNL     1      45.549   3.994  12.994  0.00  0.00    +0.000 A 
ATOM     19  C   UNL     1      46.774   4.100  13.651  0.00  0.00    +0.000 A 
ATOM     20  C   UNL     1      47.558   5.242  13.486  0.00  0.00    +0.000 A 
ATOM     21  C   UNL     1      47.132   6.302  12.671  0.00  0.00    +0.000 A 
ATOM     22  C   UNL     1      45.864   6.188  12.071  0.00  0.00    +0.000 A 
BRANCH  21  23
ATOM     23  C   UNL     1      48.019   7.443  12.347  0.00  0.00    +0.000 A 
ATOM     24  C   UNL     1      49.398   7.240  12.132  0.00  0.00    +0.000 A 
ATOM     25  C   UNL     1      50.239   8.279  11.721  0.00  0.00    +0.000 A 
ATOM     26  C   UNL     1      49.717   9.548  11.509  0.00  0.00    +0.000 A 
ATOM     27  C   UNL     1      48.364   9.769  11.728  0.00  0.00    +0.000 A 
ATOM     28  F   UNL     1      47.853  10.988  11.506  0.00  0.00    +0.000 F 
ATOM     29  C   UNL     1      47.521   8.742  12.150  0.00  0.00    +0.000 A 
ENDBRANCH  21  23
ENDBRANCH   1  17
TORSDOF 4
ENDMDL
MODEL 2
REMARK VINA RESULT:    -9.107      2.596      3.830
REMARK INTER + INTRA:         -12.474
REMARK INTER:                 -11.833
REMARK INTRA:                  -0.641
REMARK UNBOUND:                -1.237
REMARK  Name = 
REMARK  4 active torsions:
REMARK  status: ('A' for Active; 'I' for Inactive)
REMARK    1  A    between atoms: C_2  and  C_4
REMARK    2  A    between atoms: N_8  and  C_9
REMARK    3  A    between atoms: C_9  and  C_10
REMARK    4  A    between atoms: C_14  and  C_15
REMARK                            x       y       z     vdW  Elec       q    Type
REMARK                         _______ _______ _______ _____ _____    ______ ____
ROOT
ATOM      1  C   UNL     1      43.946   4.949  11.524  0.00  0.00    +0.000 C 
ATOM      2  C   UNL     1      42.799   5.045  12.523  0.00  0.00    +0.000 C 
ATOM      3  C   UNL     1      42.869   6.008  11.386  0.00  0.00    +0.000 C 
ENDROOT
BRANCH   1   8
ATOM      4  C   UNL     1      46.435   2.731   7.524  0.00  0.00    +0.000 A 
ATOM      5  C   UNL     1      46.031   4.056   7.661  0.00  0.00    +0.000 A 
ATOM      6  C   UNL     1      45.238   4.421   8.754  0.00  0.00    +0.000 A 
ATOM      7  C   UNL     1      44.857   3.457   9.679  0.00  0.00    +0.000 A 
ATOM      8  N   UNL     1      43.958   3.710  10.721  0.00  0.00    +0.000 N 
ATOM      9  N   UNL     1      45.255   2.171   9.562  0.00  0.00    +0.000 NA
ATOM     10  C   UNL     1      46.025   1.834   8.495  0.00  0.00    +0.000 A 
ATOM     11  H   UNL     1      43.935   2.847  11.262  0.00  0.00    +0.000 HD
BRANCH   4  13
ATOM     12  N   UNL     1      47.176   2.974   5.220  0.00  0.00    +0.000 N 
ATOM     13  C   UNL     1      47.217   2.240   6.371  0.00  0.00    +0.000 C 
ATOM     14  O   UNL     1      47.890   1.219   6.447  0.00  0.00    +0.000 OA
ATOM     15  H   UNL     1      47.773   2.663   4.464  0.00  0.00    +0.000 HD
ATOM     16  H   UNL     1      46.833   3.922   5.183  0.00  0.00    +0.000 HD
ENDBRANCH   4  13
ENDBRANCH   1   8
BRANCH   1  17
ATOM     17  C   UNL     1      45.339   5.382  11.967  0.00  0.00    +0.000 A 
ATOM     18  C   UNL     1      46.065   6.366  11.280  0.00  0.00    +0.000 A 
ATOM     19  C   UNL     1      47.282   6.840  11.766  0.00  0.00    +0.000 A 
ATOM     20  C   UNL     1      47.785   6.359  12.975  0.00  0.00    +0.000 A 
ATOM     21  C   UNL     1      47.090   5.391  13.716  0.00  0.00    +0.000 A 
ATOM     22  C   UNL     1      45.894   4.891  13.166  0.00  0.00    +0.000 A 
BRANCH  21  23
ATOM     23  C   UNL     1      47.517   4.993  15.077  0.00  0.00    +0.000 A 
ATOM     24  C   UNL     1      48.375   5.822  15.829  0.00  0.00    +0.000 A 
ATOM     25  C   UNL     1      48.709   5.524  17.154  0.00  0.00    +0.000 A 
ATOM     26  C   UNL     1      48.186   4.390  17.761  0.00  0.00    +0.000 A 
ATOM     27  C   UNL     1      47.349   3.556  17.032  0.00  0.00    +0.000 A 
ATOM     28  F   UNL     1      46.827   2.471  17.619  0.00  0.00    +0.000 F 
ATOM     29  C   UNL     1      47.022   3.839  15.706  0.00  0.00    +0.000 A 
ENDBRANCH  21  23
ENDBRANCH   1  17
TORSDOF 4
ENDMDL
MODEL 3
REMARK VINA RESULT:    -7.506      4.094      7.147
REMARK INTER + INTRA:         -10.498
REMARK INTER:                  -9.441
REMARK INTRA:                  -1.057
REMARK UNBOUND:                -1.237
REMARK  Name = 
REMARK  4 active torsions:
REMARK  status: ('A' for Active; 'I' for Inactive)
REMARK    1  A    between atoms: C_2  and  C_4
REMARK    2  A    between atoms: N_8  and  C_9
REMARK    3  A    between atoms: C_9  and  C_10
REMARK    4  A    between atoms: C_14  and  C_15
REMARK                            x       y       z     vdW  Elec       q    Type
REMARK                         _______ _______ _______ _____ _____    ______ ____
ROOT
ATOM      1  C   UNL     1      46.164   5.231  13.332  0.00  0.00    +0.000 C 
ATOM      2  C   UNL     1      46.145   4.338  14.566  0.00  0.00    +0.000 C 
ATOM      3  C   UNL     1      47.315   4.293  13.641  0.00  0.00    +0.000 C 
ENDROOT
BRANCH   1   8
ATOM      4  C   UNL     1      48.278   9.655  11.575  0.00  0.00    +0.000 A 
ATOM      5  C   UNL     1      48.870   8.399  11.684  0.00  0.00    +0.000 A 
ATOM      6  C   UNL     1      48.175   7.368  12.325  0.00  0.00    +0.000 A 
ATOM      7  C   UNL     1      46.913   7.612  12.851  0.00  0.00    +0.000 A 
ATOM      8  N   UNL     1      46.211   6.678  13.621  0.00  0.00    +0.000 N 
ATOM      9  N   UNL     1      46.324   8.823  12.738  0.00  0.00    +0.000 NA
ATOM     10  C   UNL     1      47.011   9.813  12.113  0.00  0.00    +0.000 A 
ATOM     11  H   UNL     1      45.305   7.111  13.797  0.00  0.00    +0.000 HD
BRANCH   4  13
ATOM     12  N   UNL     1      50.228  11.098  11.395  0.00  0.00    +0.000 N 
ATOM     13  C   UNL     1      48.959  10.820  10.974  0.00  0.00    +0.000 C 
ATOM     14  O   UNL     1      48.412  11.505  10.118  0.00  0.00    +0.000 OA
ATOM     15  H   UNL     1      50.705  11.854  10.923  0.00  0.00    +0.000 HD
ATOM     16  H   UNL     1      50.792  10.440  11.912  0.00  0.00    +0.000 HD
ENDBRANCH   4  13
ENDBRANCH   1   8
BRANCH   1  17
ATOM     17  C   UNL     1      45.240   4.890  12.168  0.00  0.00    +0.000 A 
ATOM     18  C   UNL     1      43.977   5.483  12.024  0.00  0.00    +0.000 A 
ATOM     19  C   UNL     1      43.196   5.258  10.891  0.00  0.00    +0.000 A 
ATOM     20  C   UNL     1      43.681   4.454   9.859  0.00  0.00    +0.000 A 
ATOM     21  C   UNL     1      44.947   3.854   9.940  0.00  0.00    +0.000 A 
ATOM     22  C   UNL     1      45.683   4.055  11.123  0.00  0.00    +0.000 A 
BRANCH  21  23
ATOM     23  C   UNL     1      45.548   3.142   8.789  0.00  0.00    +0.000 A 
ATOM     24  C   UNL     1      46.043   3.860   7.681  0.00  0.00    +0.000 A 
ATOM     25  C   UNL     1      46.711   3.222   6.630  0.00  0.00    +0.000 A 
ATOM     26  C   UNL     1      46.904   1.848   6.668  0.00  0.00    +0.000 A 
ATOM     27  C   UNL     1      46.414   1.123   7.745  0.00  0.00    +0.000 A 
ATOM     28  F   UNL     1      46.615  -0.201   7.794  0.00  0.00    +0.000 F 
ATOM     29  C   UNL     1      45.735   1.749   8.790  0.00  0.00    +0.000 A 
ENDBRANCH  21  23
ENDBRANCH   1  17
TORSDOF 4
ENDMDL
MODEL 4
REMARK VINA RESULT:    -7.115      4.978      8.309
REMARK INTER + INTRA:         -10.016
REMARK INTER:                  -8.927
REMARK INTRA:                  -1.089
REMARK UNBOUND:                -1.237
REMARK  Name = 
REMARK  4 active torsions:
REMARK  status: ('A' for Active; 'I' for Inactive)
REMARK    1  A    between atoms: C_2  and  C_4
REMARK    2  A    between atoms: N_8  and  C_9
REMARK    3  A    between atoms: C_9  and  C_10
REMARK    4  A    between atoms: C_14  and  C_15
REMARK                            x       y       z     vdW  Elec       q    Type
REMARK                         _______ _______ _______ _____ _____    ______ ____
ROOT
ATOM      1  C   UNL     1      49.111   7.931  12.639  0.00  0.00    +0.000 C 
ATOM      2  C   UNL     1      50.063   8.089  11.461  0.00  0.00    +0.000 C 
ATOM      3  C   UNL     1      49.809   9.248  12.364  0.00  0.00    +0.000 C 
ENDROOT
BRANCH   1   8
ATOM      4  C   UNL     1      48.433   6.786  17.674  0.00  0.00    +0.000 A 
ATOM      5  C   UNL     1      48.535   8.041  17.081  0.00  0.00    +0.000 A 
ATOM      6  C   UNL     1      48.868   8.133  15.725  0.00  0.00    +0.000 A 
ATOM      7  C   UNL     1      49.101   6.974  14.994  0.00  0.00    +0.000 A 
ATOM      8  N   UNL     1      49.567   6.984  13.675  0.00  0.00    +0.000 N 
ATOM      9  N   UNL     1      48.990   5.751  15.557  0.00  0.00    +0.000 NA
ATOM     10  C   UNL     1      48.666   5.680  16.874  0.00  0.00    +0.000 A 
ATOM     11  H   UNL     1      49.569   6.004  13.392  0.00  0.00    +0.000 HD
BRANCH   4  13
ATOM     12  N   UNL     1      47.186   5.688  19.450  0.00  0.00    +0.000 N 
ATOM     13  C   UNL     1      48.151   6.592  19.111  0.00  0.00    +0.000 C 
ATOM     14  O   UNL     1      48.771   7.208  19.970  0.00  0.00    +0.000 OA
ATOM     15  H   UNL     1      47.055   5.515  20.439  0.00  0.00    +0.000 HD
ATOM     16  H   UNL     1      46.822   5.003  18.805  0.00  0.00    +0.000 HD
ENDBRANCH   4  13
ENDBRANCH   1   8
BRANCH   1  17
ATOM     17  C   UNL     1      47.615   7.828  12.362  0.00  0.00    +0.000 A 
ATOM     18  C   UNL     1      46.751   8.921  12.528  0.00  0.00    +0.000 A 
ATOM     19  C   UNL     1      45.411   8.849  12.152  0.00  0.00    +0.000 A 
ATOM     20  C   UNL     1      44.912   7.684  11.569  0.00  0.00    +0.000 A 
ATOM     21  C   UNL     1      45.736   6.568  11.357  0.00  0.00    +0.000 A 
ATOM     22  C   UNL     1      47.069   6.655  11.803  0.00  0.00    +0.000 A 
BRANCH  21  23
ATOM     23  C   UNL     1      45.274   5.391  10.587  0.00  0.00    +0.000 A 
ATOM     24  C   UNL     1      45.711   5.184   9.262  0.00  0.00    +0.000 A 
ATOM     25  C   UNL     1      45.376   4.028   8.550  0.00  0.00    +0.000 A 
ATOM     26  C   UNL     1      44.599   3.047   9.151  0.00  0.00    +0.000 A 
ATOM     27  C   UNL     1      44.150   3.238  10.450  0.00  0.00    +0.000 A 
ATOM     28  F   UNL     1      43.416   2.285  11.040  0.00  0.00    +0.000 F 
ATOM     29  C   UNL     1      44.468   4.394  11.163  0.00  0.00    +0.000 A 
ENDBRANCH  21  23
ENDBRANCH   1  17
TORSDOF 4
ENDMDL
MODEL 5
REMARK VINA RESULT:    -7.032      4.356      7.585
REMARK INTER + INTRA:          -9.913
REMARK INTER:                  -9.837
REMARK INTRA:                  -0.076
REMARK UNBOUND:                -1.237
REMARK  Name = 
REMARK  4 active torsions:
REMARK  status: ('A' for Active; 'I' for Inactive)
REMARK    1  A    between atoms: C_2  and  C_4
REMARK    2  A    between atoms: N_8  and  C_9
REMARK    3  A    between atoms: C_9  and  C_10
REMARK    4  A    between atoms: C_14  and  C_15
REMARK                            x       y       z     vdW  Elec       q    Type
REMARK                         _______ _______ _______ _____ _____    ______ ____
ROOT
ATOM      1  C   UNL     1      48.472   7.799  12.873  0.00  0.00    +0.000 C 
ATOM      2  C   UNL     1      49.645   7.207  12.102  0.00  0.00    +0.000 C 
ATOM      3  C   UNL     1      49.405   8.679  12.064  0.00  0.00    +0.000 C 
ENDROOT
BRANCH   1   8
ATOM      4  C   UNL     1      47.998   4.258  16.662  0.00  0.00    +0.000 A 
ATOM      5  C   UNL     1      47.202   4.425  15.532  0.00  0.00    +0.000 A 
ATOM      6  C   UNL     1      47.406   5.536  14.708  0.00  0.00    +0.000 A 
ATOM      7  C   UNL     1      48.391   6.461  15.033  0.00  0.00    +0.000 A 
ATOM      8  N   UNL     1      48.569   7.663  14.339  0.00  0.00    +0.000 N 
ATOM      9  N   UNL     1      49.179   6.301  16.118  0.00  0.00    +0.000 NA
ATOM     10  C   UNL     1      48.967   5.216  16.908  0.00  0.00    +0.000 A 
ATOM     11  H   UNL     1      49.398   8.085  14.756  0.00  0.00    +0.000 HD
BRANCH   4  13
ATOM     12  N   UNL     1      48.855   2.860  18.459  0.00  0.00    +0.000 N 
ATOM     13  C   UNL     1      47.814   3.153  17.625  0.00  0.00    +0.000 C 
ATOM     14  O   UNL     1      46.760   2.530  17.685  0.00  0.00    +0.000 OA
ATOM     15  H   UNL     1      48.687   2.149  19.159  0.00  0.00    +0.000 HD
ATOM     16  H   UNL     1      49.636   3.482  18.603  0.00  0.00    +0.000 HD
ENDBRANCH   4  13
ENDBRANCH   1   8
BRANCH   1  17
ATOM     17  C   UNL     1      47.059   7.563  12.349  0.00  0.00    +0.000 A 
ATOM     18  C   UNL     1      46.090   8.577  12.344  0.00  0.00    +0.000 A 
ATOM     19  C   UNL     1      44.844   8.384  11.749  0.00  0.00    +0.000 A 
ATOM     20  C   UNL     1      44.553   7.177  11.115  0.00  0.00    +0.000 A 
ATOM     21  C   UNL     1      45.494   6.136  11.070  0.00  0.00    +0.000 A 
ATOM     22  C   UNL     1      46.719   6.343  11.732  0.00  0.00    +0.000 A 
BRANCH  21  23
ATOM     23  C   UNL     1      45.271   4.917  10.259  0.00  0.00    +0.000 A 
ATOM     24  C   UNL     1      44.554   3.825  10.789  0.00  0.00    +0.000 A 
ATOM     25  C   UNL     1      44.238   2.706  10.012  0.00  0.00    +0.000 A 
ATOM     26  C   UNL     1      44.629   2.657   8.681  0.00  0.00    +0.000 A 
ATOM     27  C   UNL     1      45.346   3.717   8.145  0.00  0.00    +0.000 A 
ATOM     28  F   UNL     1      45.709   3.682   6.856  0.00  0.00    +0.000 F 
ATOM     29  C   UNL     1      45.677   4.830   8.917  0.00  0.00    +0.000 A 
ENDBRANCH  21  23
ENDBRANCH   1  17
TORSDOF 4
ENDMDL
MODEL 6
REMARK VINA RESULT:    -7.012      4.785      8.137
REMARK INTER + INTRA:          -9.888
REMARK INTER:                 -10.178
REMARK INTRA:                   0.290
REMARK UNBOUND:                -1.237
REMARK  Name = 
REMARK  4 active torsions:
REMARK  status: ('A' for Active; 'I' for Inactive)
REMARK    1  A    between atoms: C_2  and  C_4
REMARK    2  A    between atoms: N_8  and  C_9
REMARK    3  A    between atoms: C_9  and  C_10
REMARK    4  A    between atoms: C_14  and  C_15
REMARK                            x       y       z     vdW  Elec       q    Type
REMARK                         _______ _______ _______ _____ _____    ______ ____
ROOT
ATOM      1  C   UNL     1      46.420   5.547  12.922  0.00  0.00    +0.000 C 
ATOM      2  C   UNL     1      47.547   6.483  12.506  0.00  0.00    +0.000 C 
ATOM      3  C   UNL     1      46.402   7.015  13.301  0.00  0.00    +0.000 C 
ENDROOT
BRANCH   1   8
ATOM      4  C   UNL     1      48.225   4.873  17.760  0.00  0.00    +0.000 A 
ATOM      5  C   UNL     1      48.594   5.839  16.828  0.00  0.00    +0.000 A 
ATOM      6  C   UNL     1      48.097   5.758  15.524  0.00  0.00    +0.000 A 
ATOM      7  C   UNL     1      47.252   4.711  15.174  0.00  0.00    +0.000 A 
ATOM      8  N   UNL     1      46.821   4.482  13.863  0.00  0.00    +0.000 N 
ATOM      9  N   UNL     1      46.877   3.777  16.074  0.00  0.00    +0.000 NA
ATOM     10  C   UNL     1      47.369   3.871  17.337  0.00  0.00    +0.000 A 
ATOM     11  H   UNL     1      46.168   3.703  13.935  0.00  0.00    +0.000 HD
BRANCH   4  13
ATOM     12  N   UNL     1      47.844   4.842  20.162  0.00  0.00    +0.000 N 
ATOM     13  C   UNL     1      48.750   4.840  19.141  0.00  0.00    +0.000 C 
ATOM     14  O   UNL     1      49.954   4.797  19.364  0.00  0.00    +0.000 OA
ATOM     15  H   UNL     1      48.217   4.747  21.098  0.00  0.00    +0.000 HD
ATOM     16  H   UNL     1      46.863   4.644  20.029  0.00  0.00    +0.000 HD
ENDBRANCH   4  13
ENDBRANCH   1   8
BRANCH   1  17
ATOM     17  C   UNL     1      45.444   5.058  11.857  0.00  0.00    +0.000 A 
ATOM     18  C   UNL     1      44.133   5.551  11.768  0.00  0.00    +0.000 A 
ATOM     19  C   UNL     1      43.295   5.189  10.715  0.00  0.00    +0.000 A 
ATOM     20  C   UNL     1      43.764   4.347   9.707  0.00  0.00    +0.000 A 
ATOM     21  C   UNL     1      45.074   3.843   9.733  0.00  0.00    +0.000 A 
ATOM     22  C   UNL     1      45.874   4.181  10.841  0.00  0.00    +0.000 A 
BRANCH  21  23
ATOM     23  C   UNL     1      45.644   3.092   8.592  0.00  0.00    +0.000 A 
ATOM     24  C   UNL     1      46.050   3.765   7.421  0.00  0.00    +0.000 A 
ATOM     25  C   UNL     1      46.689   3.096   6.373  0.00  0.00    +0.000 A 
ATOM     26  C   UNL     1      46.942   1.734   6.474  0.00  0.00    +0.000 A 
ATOM     27  C   UNL     1      46.539   1.053   7.614  0.00  0.00    +0.000 A 
ATOM     28  F   UNL     1      46.799  -0.257   7.723  0.00  0.00    +0.000 F 
ATOM     29  C   UNL     1      45.890   1.710   8.658  0.00  0.00    +0.000 A 
ENDBRANCH  21  23
ENDBRANCH   1  17
TORSDOF 4
ENDMDL
MODEL 7
REMARK VINA RESULT:    -6.634      3.977      6.089
REMARK INTER + INTRA:          -9.422
REMARK INTER:                  -8.898
REMARK INTRA:                  -0.524
REMARK UNBOUND:                -1.237
REMARK  Name = 
REMARK  4 active torsions:
REMARK  status: ('A' for Active; 'I' for Inactive)
REMARK    1  A    between atoms: C_2  and  C_4
REMARK    2  A    between atoms: N_8  and  C_9
REMARK    3  A    between atoms: C_9  and  C_10
REMARK    4  A    between atoms: C_14  and  C_15
REMARK                            x       y       z     vdW  Elec       q    Type
REMARK                         _______ _______ _______ _____ _____    ______ ____
ROOT
ATOM      1  C   UNL     1      47.278   8.535  13.124  0.00  0.00    +0.000 C 
ATOM      2  C   UNL     1      47.383   9.873  12.404  0.00  0.00    +0.000 C 
ATOM      3  C   UNL     1      48.085   8.680  11.848  0.00  0.00    +0.000 C 
ENDROOT
BRANCH   1   8
ATOM      4  C   UNL     1      44.621   4.336  11.565  0.00  0.00    +0.000 A 
ATOM      5  C   UNL     1      45.600   5.044  10.872  0.00  0.00    +0.000 A 
ATOM      6  C   UNL     1      46.088   6.239  11.409  0.00  0.00    +0.000 A 
ATOM      7  C   UNL     1      45.584   6.708  12.616  0.00  0.00    +0.000 A 
ATOM      8  N   UNL     1      45.920   7.957  13.151  0.00  0.00    +0.000 N 
ATOM      9  N   UNL     1      44.645   6.022  13.302  0.00  0.00    +0.000 NA
ATOM     10  C   UNL     1      44.181   4.862  12.767  0.00  0.00    +0.000 A 
ATOM     11  H   UNL     1      45.458   7.985  14.060  0.00  0.00    +0.000 HD
BRANCH   4  13
ATOM     12  N   UNL     1      44.647   2.439  10.042  0.00  0.00    +0.000 N 
ATOM     13  C   UNL     1      44.000   3.100  11.047  0.00  0.00    +0.000 C 
ATOM     14  O   UNL     1      42.949   2.673  11.511  0.00  0.00    +0.000 OA
ATOM     15  H   UNL     1      44.246   1.557   9.749  0.00  0.00    +0.000 HD
ATOM     16  H   UNL     1      45.609   2.618   9.796  0.00  0.00    +0.000 HD
ENDBRANCH   4  13
ENDBRANCH   1   8
BRANCH   1  17
ATOM     17  C   UNL     1      48.025   8.352  14.441  0.00  0.00    +0.000 A 
ATOM     18  C   UNL     1      48.281   9.426  15.306  0.00  0.00    +0.000 A 
ATOM     19  C   UNL     1      48.852   9.224  16.561  0.00  0.00    +0.000 A 
ATOM     20  C   UNL     1      49.151   7.932  16.992  0.00  0.00    +0.000 A 
ATOM     21  C   UNL     1      48.894   6.818  16.178  0.00  0.00    +0.000 A 
ATOM     22  C   UNL     1      48.372   7.063  14.893  0.00  0.00    +0.000 A 
BRANCH  21  23
ATOM     23  C   UNL     1      49.044   5.433  16.679  0.00  0.00    +0.000 A 
ATOM     24  C   UNL     1      50.288   4.974  17.159  0.00  0.00    +0.000 A 
ATOM     25  C   UNL     1      50.432   3.708  17.735  0.00  0.00    +0.000 A 
ATOM     26  C   UNL     1      49.330   2.872  17.851  0.00  0.00    +0.000 A 
ATOM     27  C   UNL     1      48.100   3.302  17.374  0.00  0.00    +0.000 A 
ATOM     28  F   UNL     1      47.030   2.505  17.501  0.00  0.00    +0.000 F 
ATOM     29  C   UNL     1      47.950   4.557  16.785  0.00  0.00    +0.000 A 
ENDBRANCH  21  23
ENDBRANCH   1  17
TORSDOF 4
ENDMDL
MODEL 8
REMARK VINA RESULT:    -6.552      4.504      7.379
REMARK INTER + INTRA:          -9.321
REMARK INTER:                  -8.556
REMARK INTRA:                  -0.766
REMARK UNBOUND:                -1.237
REMARK  Name = 
REMARK  4 active torsions:
REMARK  status: ('A' for Active; 'I' for Inactive)
REMARK    1  A    between atoms: C_2  and  C_4
REMARK    2  A    between atoms: N_8  and  C_9
REMARK    3  A    between atoms: C_9  and  C_10
REMARK    4  A    between atoms: C_14  and  C_15
REMARK                            x       y       z     vdW  Elec       q    Type
REMARK                         _______ _______ _______ _____ _____    ______ ____
ROOT
ATOM      1  C   UNL     1      45.314   7.956  11.699  0.00  0.00    +0.000 C 
ATOM      2  C   UNL     1      44.584   9.119  11.040  0.00  0.00    +0.000 C 
ATOM      3  C   UNL     1      44.490   8.931  12.517  0.00  0.00    +0.000 C 
ENDROOT
BRANCH   1   8
ATOM      4  C   UNL     1      49.566   7.793  14.701  0.00  0.00    +0.000 A 
ATOM      5  C   UNL     1      48.356   8.434  14.953  0.00  0.00    +0.000 A 
ATOM      6  C   UNL     1      47.386   8.484  13.947  0.00  0.00    +0.000 A 
ATOM      7  C   UNL     1      47.645   7.904  12.711  0.00  0.00    +0.000 A 
ATOM      8  N   UNL     1      46.786   8.027  11.614  0.00  0.00    +0.000 N 
ATOM      9  N   UNL     1      48.810   7.268  12.462  0.00  0.00    +0.000 NA
ATOM     10  C   UNL     1      49.742   7.228  13.449  0.00  0.00    +0.000 A 
ATOM     11  H   UNL     1      47.204   7.445  10.888  0.00  0.00    +0.000 HD
BRANCH   4  13
ATOM     12  N   UNL     1      51.878   7.269  15.245  0.00  0.00    +0.000 N 
ATOM     13  C   UNL     1      50.674   7.745  15.677  0.00  0.00    +0.000 C 
ATOM     14  O   UNL     1      50.524   8.133  16.830  0.00  0.00    +0.000 OA
ATOM     15  H   UNL     1      52.645   7.310  15.905  0.00  0.00    +0.000 HD
ATOM     16  H   UNL     1      52.109   7.161  14.268  0.00  0.00    +0.000 HD
ENDBRANCH   4  13
ENDBRANCH   1   8
BRANCH   1  17
ATOM     17  C   UNL     1      44.777   6.544  11.491  0.00  0.00    +0.000 A 
ATOM     18  C   UNL     1      43.594   6.102  12.102  0.00  0.00    +0.000 A 
ATOM     19  C   UNL     1      43.049   4.854  11.805  0.00  0.00    +0.000 A 
ATOM     20  C   UNL     1      43.664   4.031  10.861  0.00  0.00    +0.000 A 
ATOM     21  C   UNL     1      44.836   4.432  10.202  0.00  0.00    +0.000 A 
ATOM     22  C   UNL     1      45.392   5.673  10.570  0.00  0.00    +0.000 A 
BRANCH  21  23
ATOM     23  C   UNL     1      45.407   3.654   9.079  0.00  0.00    +0.000 A 
ATOM     24  C   UNL     1      46.019   4.310   7.991  0.00  0.00    +0.000 A 
ATOM     25  C   UNL     1      46.658   3.599   6.970  0.00  0.00    +0.000 A 
ATOM     26  C   UNL     1      46.706   2.213   7.018  0.00  0.00    +0.000 A 
ATOM     27  C   UNL     1      46.098   1.549   8.075  0.00  0.00    +0.000 A 
ATOM     28  F   UNL     1      46.158   0.212   8.135  0.00  0.00    +0.000 F 
ATOM     29  C   UNL     1      45.447   2.250   9.090  0.00  0.00    +0.000 A 
ENDBRANCH  21  23
ENDBRANCH   1  17
TORSDOF 4
ENDMDL
MODEL 9
REMARK VINA RESULT:    -6.538      4.139      6.767
REMARK INTER + INTRA:          -9.304
REMARK INTER:                  -8.116
REMARK INTRA:                  -1.188
REMARK UNBOUND:                -1.237
REMARK  Name = 
REMARK  4 active torsions:
REMARK  status: ('A' for Active; 'I' for Inactive)
REMARK    1  A    between atoms: C_2  and  C_4
REMARK    2  A    between atoms: N_8  and  C_9
REMARK    3  A    between atoms: C_9  and  C_10
REMARK    4  A    between atoms: C_14  and  C_15
REMARK                            x       y       z     vdW  Elec       q    Type
REMARK                         _______ _______ _______ _____ _____    ______ ____
ROOT
ATOM      1  C   UNL     1      49.168   8.587  12.777  0.00  0.00    +0.000 C 
ATOM      2  C   UNL     1      50.364   9.363  12.239  0.00  0.00    +0.000 C 
ATOM      3  C   UNL     1      50.305   7.883  12.062  0.00  0.00    +0.000 C 
ENDROOT
BRANCH   1   8
ATOM      4  C   UNL     1      44.612   6.409  11.503  0.00  0.00    +0.000 A 
ATOM      5  C   UNL     1      45.887   5.855  11.420  0.00  0.00    +0.000 A 
ATOM      6  C   UNL     1      47.001   6.662  11.670  0.00  0.00    +0.000 A 
ATOM      7  C   UNL     1      46.823   8.003  11.988  0.00  0.00    +0.000 A 
ATOM      8  N   UNL     1      47.884   8.905  12.120  0.00  0.00    +0.000 N 
ATOM      9  N   UNL     1      45.590   8.546  12.085  0.00  0.00    +0.000 NA
ATOM     10  C   UNL     1      44.518   7.749  11.839  0.00  0.00    +0.000 A 
ATOM     11  H   UNL     1      47.450   9.777  12.422  0.00  0.00    +0.000 HD
BRANCH   4  13
ATOM     12  N   UNL     1      42.204   6.128  11.698  0.00  0.00    +0.000 N 
ATOM     13  C   UNL     1      43.381   5.654  11.193  0.00  0.00    +0.000 C 
ATOM     14  O   UNL     1      43.410   4.647  10.495  0.00  0.00    +0.000 OA
ATOM     15  H   UNL     1      41.362   5.640  11.417  0.00  0.00    +0.000 HD
ATOM     16  H   UNL     1      42.101   7.059  12.072  0.00  0.00    +0.000 HD
ENDBRANCH   4  13
ENDBRANCH   1   8
BRANCH   1  17
ATOM     17  C   UNL     1      49.032   8.406  14.285  0.00  0.00    +0.000 A 
ATOM     18  C   UNL     1      48.571   9.436  15.119  0.00  0.00    +0.000 A 
ATOM     19  C   UNL     1      48.333   9.217  16.474  0.00  0.00    +0.000 A 
ATOM     20  C   UNL     1      48.521   7.947  17.020  0.00  0.00    +0.000 A 
ATOM     21  C   UNL     1      48.957   6.875  16.227  0.00  0.00    +0.000 A 
ATOM     22  C   UNL     1      49.245   7.144  14.876  0.00  0.00    +0.000 A 
BRANCH  21  23
ATOM     23  C   UNL     1      48.998   5.488  16.744  0.00  0.00    +0.000 A 
ATOM     24  C   UNL     1      50.195   4.950  17.260  0.00  0.00    +0.000 A 
ATOM     25  C   UNL     1      50.237   3.683  17.851  0.00  0.00    +0.000 A 
ATOM     26  C   UNL     1      49.078   2.925  17.944  0.00  0.00    +0.000 A 
ATOM     27  C   UNL     1      47.893   3.433  17.431  0.00  0.00    +0.000 A 
ATOM     28  F   UNL     1      46.768   2.713  17.537  0.00  0.00    +0.000 F 
ATOM     29  C   UNL     1      47.845   4.689  16.829  0.00  0.00    +0.000 A 
ENDBRANCH  21  23
ENDBRANCH   1  17
TORSDOF 4
ENDMDL
