MODEL 1
REMARK VINA RESULT:    -9.325      0.000      0.000
REMARK INTER + INTRA:         -14.173
REMARK INTER:                 -13.140
REMARK INTRA:                  -1.032
REMARK UNBOUND:                -1.032
REMARK  Name = 
REMARK  7 active torsions:
REMARK  status: ('A' for Active; 'I' for Inactive)
REMARK    1  A    between atoms: C_2  and  C_4
REMARK    2  A    between atoms: C_7  and  N_8
REMARK    3  A    between atoms: N_8  and  C_9
REMARK    4  A    between atoms: C_9  and  C_10
REMARK    5  A    between atoms: C_10  and  C_13
REMARK    6  A    between atoms: C_17  and  O_18
REMARK    7  A    between atoms: O_18  and  C_19
REMARK                            x       y       z     vdW  Elec       q    Type
REMARK                         _______ _______ _______ _____ _____    ______ ____
ROOT
ATOM      1  C   UNL     1      43.147   3.960  11.407  0.00  0.00    +0.000 C 
ENDROOT
BRANCH   1   2
ATOM      2  C   UNL     1      43.079   5.143  12.411  0.00  0.00    +0.000 C 
ATOM      3  F   UNL     1      42.118   6.020  11.993  0.00  0.00    +0.000 F 
ATOM      4  F   UNL     1      42.625   4.656  13.608  0.00  0.00    +0.000 F 
BRANCH   2   5
ATOM      5  C   UNL     1      44.437   5.813  12.539  0.00  0.00    +0.000 A 
ATOM      6  C   UNL     1      44.680   7.038  11.901  0.00  0.00    +0.000 A 
ATOM      7  C   UNL     1      45.937   7.638  11.977  0.00  0.00    +0.000 A 
ATOM      8  C   UNL     1      46.965   7.028  12.700  0.00  0.00    +0.000 A 
ATOM      9  C   UNL     1      46.736   5.821  13.358  0.00  0.00    +0.000 A 
ATOM     10  C   UNL     1      45.477   5.217  13.276  0.00  0.00    +0.000 A 
BRANCH   9  11
ATOM     11  O   UNL     1      47.661   5.192  14.156  0.00  0.00    +0.000 OA
BRANCH  11  12
ATOM     12  C   UNL     1      47.188   4.275  15.167  0.00  0.00    +0.000 C 
ATOM     13  C   UNL     1      47.727   4.514  16.587  0.00  0.00    +0.000 C 
ATOM     14  C   UNL     1      48.000   3.015  16.582  0.00  0.00    +0.000 C 
ATOM     15  O   UNL     1      47.803   2.953  15.150  0.00  0.00    +0.000 OA
ENDBRANCH  11  12
ENDBRANCH   9  11
ENDBRANCH   2   5
ENDBRANCH   1   2
BRANCH   1  16
ATOM     16  N   UNL     1      43.458   4.367  10.025  0.00  0.00    +0.000 N 
ATOM     17  H   UNL     1      42.647   4.600   9.452  0.00  0.00    +0.000 HD
BRANCH  16  21
ATOM     18  C   UNL     1      46.466   2.466   7.749  0.00  0.00    +0.000 A 
ATOM     19  C   UNL     1      46.301   3.849   7.658  0.00  0.00    +0.000 A 
ATOM     20  C   UNL     1      45.320   4.493   8.428  0.00  0.00    +0.000 A 
ATOM     21  C   UNL     1      44.511   3.785   9.323  0.00  0.00    +0.000 A 
ATOM     22  C   UNL     1      44.685   2.395   9.394  0.00  0.00    +0.000 A 
ATOM     23  C   UNL     1      45.648   1.736   8.614  0.00  0.00    +0.000 A 
BRANCH  18  25
ATOM     24  N   UNL     1      48.537   2.451   6.467  0.00  0.00    +0.000 N 
ATOM     25  C   UNL     1      47.450   1.743   6.904  0.00  0.00    +0.000 C 
ATOM     26  O   UNL     1      47.317   0.559   6.626  0.00  0.00    +0.000 OA
ATOM     27  H   UNL     1      49.242   1.927   5.967  0.00  0.00    +0.000 HD
ATOM     28  H   UNL     1      48.806   3.335   6.875  0.00  0.00    +0.000 HD
ENDBRANCH  18  25
ENDBRANCH  16  21
ENDBRANCH   1  16
TORSDOF 7
ENDMDL
MODEL 2
REMARK VINA RESULT:    -9.222      0.768      1.021
REMARK INTER + INTRA:         -14.028
REMARK INTER:                 -13.041
REMARK INTRA:                  -0.988
REMARK UNBOUND:                -1.032
REMARK  Name = 
REMARK  7 active torsions:
REMARK  status: ('A' for Active; 'I' for Inactive)
REMARK    1  A    between atoms: C_2  and  C_4
REMARK    2  A    between atoms: C_7  and  N_8
REMARK    3  A    between atoms: N_8  and  C_9
REMARK    4  A    between atoms: C_9  and  C_10
REMARK    5  A    between atoms: C_10  and  C_13
REMARK    6  A    between atoms: C_17  and  O_18
REMARK    7  A    between atoms: O_18  and  C_19
REMARK                            x       y       z     vdW  Elec       q    Type
REMARK                         _______ _______ _______ _____ _____    ______ ____
ROOT
ATOM      1  C   UNL     1      43.195   4.023  11.293  0.00  0.00    +0.000 C 
ENDROOT
BRANCH   1   2
ATOM      2  C   UNL     1      43.315   4.994  12.499  0.00  0.00    +0.000 C 
ATOM      3  F   UNL     1      42.677   6.162  12.188  0.00  0.00    +0.000 F 
ATOM      4  F   UNL     1      42.604   4.463  13.543  0.00  0.00    +0.000 F 
BRANCH   2   5
ATOM      5  C   UNL     1      44.773   5.227  12.855  0.00  0.00    +0.000 A 
ATOM      6  C   UNL     1      45.400   6.433  12.507  0.00  0.00    +0.000 A 
ATOM      7  C   UNL     1      46.750   6.636  12.791  0.00  0.00    +0.000 A 
ATOM      8  C   UNL     1      47.491   5.642  13.435  0.00  0.00    +0.000 A 
ATOM      9  C   UNL     1      46.882   4.446  13.807  0.00  0.00    +0.000 A 
ATOM     10  C   UNL     1      45.529   4.240  13.516  0.00  0.00    +0.000 A 
BRANCH   9  11
ATOM     11  O   UNL     1      47.510   3.448  14.513  0.00  0.00    +0.000 OA
BRANCH  11  12
ATOM     12  C   UNL     1      47.782   3.664  15.915  0.00  0.00    +0.000 C 
ATOM     13  C   UNL     1      48.483   2.505  16.643  0.00  0.00    +0.000 C 
ATOM     14  C   UNL     1      47.410   2.711  17.704  0.00  0.00    +0.000 C 
ATOM     15  O   UNL     1      46.634   3.534  16.803  0.00  0.00    +0.000 OA
ENDBRANCH  11  12
ENDBRANCH   9  11
ENDBRANCH   2   5
ENDBRANCH   1   2
BRANCH   1  16
ATOM     16  N   UNL     1      43.693   4.582  10.024  0.00  0.00    +0.000 N 
ATOM     17  H   UNL     1      42.987   5.047   9.452  0.00  0.00    +0.000 HD
BRANCH  16  21
ATOM     18  C   UNL     1      46.523   2.493   7.685  0.00  0.00    +0.000 A 
ATOM     19  C   UNL     1      46.391   3.874   7.539  0.00  0.00    +0.000 A 
ATOM     20  C   UNL     1      45.470   4.582   8.328  0.00  0.00    +0.000 A 
ATOM     21  C   UNL     1      44.691   3.938   9.296  0.00  0.00    +0.000 A 
ATOM     22  C   UNL     1      44.833   2.549   9.424  0.00  0.00    +0.000 A 
ATOM     23  C   UNL     1      45.734   1.827   8.626  0.00  0.00    +0.000 A 
BRANCH  18  25
ATOM     24  N   UNL     1      48.575   2.331   6.384  0.00  0.00    +0.000 N 
ATOM     25  C   UNL     1      47.441   1.705   6.825  0.00  0.00    +0.000 C 
ATOM     26  O   UNL     1      47.215   0.537   6.539  0.00  0.00    +0.000 OA
ATOM     27  H   UNL     1      49.234   1.758   5.873  0.00  0.00    +0.000 HD
ATOM     28  H   UNL     1      48.915   3.187   6.796  0.00  0.00    +0.000 HD
ENDBRANCH  18  25
ENDBRANCH  16  21
ENDBRANCH   1  16
TORSDOF 7
ENDMDL
MODEL 3
REMARK VINA RESULT:    -8.244      1.543      1.936
REMARK INTER + INTRA:         -12.649
REMARK INTER:                 -12.023
REMARK INTRA:                  -0.626
REMARK UNBOUND:                -1.032
REMARK  Name = 
REMARK  7 active torsions:
REMARK  status: ('A' for Active; 'I' for Inactive)
REMARK    1  A    between atoms: C_2  and  C_4
REMARK    2  A    between atoms: C_7  and  N_8
REMARK    3  A    between atoms: N_8  and  C_9
REMARK    4  A    between atoms: C_9  and  C_10
REMARK    5  A    between atoms: C_10  and  C_13
REMARK    6  A    between atoms: C_17  and  O_18
REMARK    7  A    between atoms: O_18  and  C_19
REMARK                            x       y       z     vdW  Elec       q    Type
REMARK                         _______ _______ _______ _____ _____    ______ ____
ROOT
ATOM      1  C   UNL     1      43.089   4.811  11.075  0.00  0.00    +0.000 C 
ENDROOT
BRANCH   1   2
ATOM      2  C   UNL     1      43.743   4.705  12.480  0.00  0.00    +0.000 C 
ATOM      3  F   UNL     1      42.770   4.848  13.429  0.00  0.00    +0.000 F 
ATOM      4  F   UNL     1      44.211   3.427  12.634  0.00  0.00    +0.000 F 
BRANCH   2   5
ATOM      5  C   UNL     1      44.841   5.744  12.638  0.00  0.00    +0.000 A 
ATOM      6  C   UNL     1      44.625   7.066  12.222  0.00  0.00    +0.000 A 
ATOM      7  C   UNL     1      45.643   8.015  12.324  0.00  0.00    +0.000 A 
ATOM      8  C   UNL     1      46.886   7.659  12.851  0.00  0.00    +0.000 A 
ATOM      9  C   UNL     1      47.113   6.355  13.288  0.00  0.00    +0.000 A 
ATOM     10  C   UNL     1      46.094   5.403  13.180  0.00  0.00    +0.000 A 
BRANCH   9  11
ATOM     11  O   UNL     1      48.275   5.937  13.892  0.00  0.00    +0.000 OA
BRANCH  11  12
ATOM     12  C   UNL     1      48.590   6.447  15.206  0.00  0.00    +0.000 C 
ATOM     13  C   UNL     1      49.993   7.056  15.365  0.00  0.00    +0.000 C 
ATOM     14  C   UNL     1      50.067   6.201  16.623  0.00  0.00    +0.000 C 
ATOM     15  O   UNL     1      48.909   5.438  16.209  0.00  0.00    +0.000 OA
ENDBRANCH  11  12
ENDBRANCH   9  11
ENDBRANCH   2   5
ENDBRANCH   1   2
BRANCH   1  16
ATOM     16  N   UNL     1      44.045   5.105   9.992  0.00  0.00    +0.000 N 
ATOM     17  H   UNL     1      43.815   5.921   9.425  0.00  0.00    +0.000 HD
BRANCH  16  21
ATOM     18  C   UNL     1      46.203   2.068   8.002  0.00  0.00    +0.000 A 
ATOM     19  C   UNL     1      45.210   1.722   8.918  0.00  0.00    +0.000 A 
ATOM     20  C   UNL     1      44.470   2.723   9.567  0.00  0.00    +0.000 A 
ATOM     21  C   UNL     1      44.680   4.080   9.295  0.00  0.00    +0.000 A 
ATOM     22  C   UNL     1      45.688   4.408   8.377  0.00  0.00    +0.000 A 
ATOM     23  C   UNL     1      46.449   3.417   7.737  0.00  0.00    +0.000 A 
BRANCH  18  25
ATOM     24  N   UNL     1      46.783  -0.270   7.645  0.00  0.00    +0.000 N 
ATOM     25  C   UNL     1      47.047   1.039   7.344  0.00  0.00    +0.000 C 
ATOM     26  O   UNL     1      47.924   1.336   6.545  0.00  0.00    +0.000 OA
ATOM     27  H   UNL     1      47.305  -0.964   7.126  0.00  0.00    +0.000 HD
ATOM     28  H   UNL     1      45.924  -0.560   8.090  0.00  0.00    +0.000 HD
ENDBRANCH  18  25
ENDBRANCH  16  21
ENDBRANCH   1  16
TORSDOF 7
ENDMDL
MODEL 4
REMARK VINA RESULT:    -8.225      1.745      3.306
REMARK INTER + INTRA:         -12.622
REMARK INTER:                 -11.597
REMARK INTRA:                  -1.026
REMARK UNBOUND:                -1.032
REMARK  Name = 
REMARK  7 active torsions:
REMARK  status: ('A' for Active; 'I' for Inactive)
REMARK    1  A    between atoms: C_2  and  C_4
REMARK    2  A    between atoms: C_7  and  N_8
REMARK    3  A    between atoms: N_8  and  C_9
REMARK    4  A    between atoms: C_9  and  C_10
REMARK    5  A    between atoms: C_10  and  C_13
REMARK    6  A    between atoms: C_17  and  O_18
REMARK    7  A    between atoms: O_18  and  C_19
REMARK                            x       y       z     vdW  Elec       q    Type
REMARK                         _______ _______ _______ _____ _____    ______ ____
ROOT
ATOM      1  C   UNL     1      43.300   4.233  11.379  0.00  0.00    +0.000 C 
ENDROOT
BRANCH   1   2
ATOM      2  C   UNL     1      43.568   5.487  12.255  0.00  0.00    +0.000 C 
ATOM      3  F   UNL     1      43.127   6.593  11.583  0.00  0.00    +0.000 F 
ATOM      4  F   UNL     1      42.775   5.403  13.368  0.00  0.00    +0.000 F 
BRANCH   2   5
ATOM      5  C   UNL     1      45.043   5.590  12.603  0.00  0.00    +0.000 A 
ATOM      6  C   UNL     1      45.589   4.775  13.607  0.00  0.00    +0.000 A 
ATOM      7  C   UNL     1      46.932   4.895  13.962  0.00  0.00    +0.000 A 
ATOM      8  C   UNL     1      47.752   5.822  13.314  0.00  0.00    +0.000 A 
ATOM      9  C   UNL     1      47.233   6.625  12.300  0.00  0.00    +0.000 A 
ATOM     10  C   UNL     1      45.884   6.510  11.949  0.00  0.00    +0.000 A 
BRANCH   9  11
ATOM     11  O   UNL     1      47.982   7.505  11.556  0.00  0.00    +0.000 OA
BRANCH  11  12
ATOM     12  C   UNL     1      48.241   8.818  12.097  0.00  0.00    +0.000 C 
ATOM     13  C   UNL     1      47.049   9.790  12.086  0.00  0.00    +0.000 C 
ATOM     14  C   UNL     1      48.045  10.781  11.497  0.00  0.00    +0.000 C 
ATOM     15  O   UNL     1      48.989   9.718  11.227  0.00  0.00    +0.000 OA
ENDBRANCH  11  12
ENDBRANCH   9  11
ENDBRANCH   2   5
ENDBRANCH   1   2
BRANCH   1  16
ATOM     16  N   UNL     1      43.495   4.459   9.935  0.00  0.00    +0.000 N 
ATOM     17  H   UNL     1      42.635   4.544   9.393  0.00  0.00    +0.000 HD
BRANCH  16  21
ATOM     18  C   UNL     1      46.516   2.526   7.704  0.00  0.00    +0.000 A 
ATOM     19  C   UNL     1      46.378   3.912   7.624  0.00  0.00    +0.000 A 
ATOM     20  C   UNL     1      45.392   4.567   8.380  0.00  0.00    +0.000 A 
ATOM     21  C   UNL     1      44.552   3.865   9.250  0.00  0.00    +0.000 A 
ATOM     22  C   UNL     1      44.700   2.471   9.311  0.00  0.00    +0.000 A 
ATOM     23  C   UNL     1      45.667   1.803   8.545  0.00  0.00    +0.000 A 
BRANCH  18  25
ATOM     24  N   UNL     1      48.582   2.503   6.415  0.00  0.00    +0.000 N 
ATOM     25  C   UNL     1      47.505   1.794   6.873  0.00  0.00    +0.000 C 
ATOM     26  O   UNL     1      47.384   0.602   6.625  0.00  0.00    +0.000 OA
ATOM     27  H   UNL     1      49.291   1.974   5.924  0.00  0.00    +0.000 HD
ATOM     28  H   UNL     1      48.843   3.399   6.799  0.00  0.00    +0.000 HD
ENDBRANCH  18  25
ENDBRANCH  16  21
ENDBRANCH   1  16
TORSDOF 7
ENDMDL
MODEL 5
REMARK VINA RESULT:    -7.955      2.685      4.384
REMARK INTER + INTRA:         -12.242
REMARK INTER:                 -11.161
REMARK INTRA:                  -1.081
REMARK UNBOUND:                -1.032
REMARK  Name = 
REMARK  7 active torsions:
REMARK  status: ('A' for Active; 'I' for Inactive)
REMARK    1  A    between atoms: C_2  and  C_4
REMARK    2  A    between atoms: C_7  and  N_8
REMARK    3  A    between atoms: N_8  and  C_9
REMARK    4  A    between atoms: C_9  and  C_10
REMARK    5  A    between atoms: C_10  and  C_13
REMARK    6  A    between atoms: C_17  and  O_18
REMARK    7  A    between atoms: O_18  and  C_19
REMARK                            x       y       z     vdW  Elec       q    Type
REMARK                         _______ _______ _______ _____ _____    ______ ____
ROOT
ATOM      1  C   UNL     1      43.884   4.483  11.658  0.00  0.00    +0.000 C 
ENDROOT
BRANCH   1   2
ATOM      2  C   UNL     1      45.088   4.683  12.618  0.00  0.00    +0.000 C 
ATOM      3  F   UNL     1      44.657   4.514  13.904  0.00  0.00    +0.000 F 
ATOM      4  F   UNL     1      45.977   3.663  12.401  0.00  0.00    +0.000 F 
BRANCH   2   5
ATOM      5  C   UNL     1      45.717   6.050  12.410  0.00  0.00    +0.000 A 
ATOM      6  C   UNL     1      47.088   6.161  12.131  0.00  0.00    +0.000 A 
ATOM      7  C   UNL     1      47.680   7.414  11.981  0.00  0.00    +0.000 A 
ATOM      8  C   UNL     1      46.911   8.575  12.097  0.00  0.00    +0.000 A 
ATOM      9  C   UNL     1      45.545   8.485  12.353  0.00  0.00    +0.000 A 
ATOM     10  C   UNL     1      44.952   7.227  12.510  0.00  0.00    +0.000 A 
BRANCH   9  11
ATOM     11  O   UNL     1      44.698   9.566  12.404  0.00  0.00    +0.000 OA
BRANCH  11  12
ATOM     12  C   UNL     1      44.128  10.052  11.169  0.00  0.00    +0.000 C 
ATOM     13  C   UNL     1      43.315  11.353  11.278  0.00  0.00    +0.000 C 
ATOM     14  C   UNL     1      42.272  10.603  10.460  0.00  0.00    +0.000 C 
ATOM     15  O   UNL     1      42.941   9.344  10.706  0.00  0.00    +0.000 OA
ENDBRANCH  11  12
ENDBRANCH   9  11
ENDBRANCH   2   5
ENDBRANCH   1   2
BRANCH   1  16
ATOM     16  N   UNL     1      44.146   4.916  10.273  0.00  0.00    +0.000 N 
ATOM     17  H   UNL     1      43.401   5.466   9.846  0.00  0.00    +0.000 HD
BRANCH  16  21
ATOM     18  C   UNL     1      46.486   2.523   7.696  0.00  0.00    +0.000 A 
ATOM     19  C   UNL     1      45.612   1.916   8.598  0.00  0.00    +0.000 A 
ATOM     20  C   UNL     1      44.812   2.702   9.443  0.00  0.00    +0.000 A 
ATOM     21  C   UNL     1      44.841   4.100   9.384  0.00  0.00    +0.000 A 
ATOM     22  C   UNL     1      45.731   4.692   8.476  0.00  0.00    +0.000 A 
ATOM     23  C   UNL     1      46.551   3.917   7.641  0.00  0.00    +0.000 A 
BRANCH  18  25
ATOM     24  N   UNL     1      48.502   2.353   6.341  0.00  0.00    +0.000 N 
ATOM     25  C   UNL     1      47.391   1.723   6.832  0.00  0.00    +0.000 C 
ATOM     26  O   UNL     1      47.173   0.545   6.585  0.00  0.00    +0.000 OA
ATOM     27  H   UNL     1      49.155   1.775   5.827  0.00  0.00    +0.000 HD
ATOM     28  H   UNL     1      48.841   3.225   6.719  0.00  0.00    +0.000 HD
ENDBRANCH  18  25
ENDBRANCH  16  21
ENDBRANCH   1  16
TORSDOF 7
ENDMDL
MODEL 6
REMARK VINA RESULT:    -7.727      1.623      2.509
REMARK INTER + INTRA:         -11.922
REMARK INTER:                 -10.880
REMARK INTRA:                  -1.042
REMARK UNBOUND:                -1.032
REMARK  Name = 
REMARK  7 active torsions:
REMARK  status: ('A' for Active; 'I' for Inactive)
REMARK    1  A    between atoms: C_2  and  C_4
REMARK    2  A    between atoms: C_7  and  N_8
REMARK    3  A    between atoms: N_8  and  C_9
REMARK    4  A    between atoms: C_9  and  C_10
REMARK    5  A    between atoms: C_10  and  C_13
REMARK    6  A    between atoms: C_17  and  O_18
REMARK    7  A    between atoms: O_18  and  C_19
REMARK                            x       y       z     vdW  Elec       q    Type
REMARK                         _______ _______ _______ _____ _____    ______ ____
ROOT
ATOM      1  C   UNL     1      43.832   5.229  11.248  0.00  0.00    +0.000 C 
ENDROOT
BRANCH   1   2
ATOM      2  C   UNL     1      45.033   6.071  11.760  0.00  0.00    +0.000 C 
ATOM      3  F   UNL     1      45.756   6.503  10.684  0.00  0.00    +0.000 F 
ATOM      4  F   UNL     1      44.536   7.208  12.339  0.00  0.00    +0.000 F 
BRANCH   2   5
ATOM      5  C   UNL     1      45.883   5.259  12.721  0.00  0.00    +0.000 A 
ATOM      6  C   UNL     1      45.837   3.856  12.691  0.00  0.00    +0.000 A 
ATOM      7  C   UNL     1      46.581   3.104  13.600  0.00  0.00    +0.000 A 
ATOM      8  C   UNL     1      47.391   3.741  14.543  0.00  0.00    +0.000 A 
ATOM      9  C   UNL     1      47.467   5.132  14.574  0.00  0.00    +0.000 A 
ATOM     10  C   UNL     1      46.715   5.886  13.667  0.00  0.00    +0.000 A 
BRANCH   9  11
ATOM     11  O   UNL     1      48.296   5.839  15.412  0.00  0.00    +0.000 OA
BRANCH  11  12
ATOM     12  C   UNL     1      48.658   5.251  16.680  0.00  0.00    +0.000 C 
ATOM     13  C   UNL     1      47.506   5.071  17.683  0.00  0.00    +0.000 C 
ATOM     14  C   UNL     1      48.464   5.706  18.682  0.00  0.00    +0.000 C 
ATOM     15  O   UNL     1      49.336   6.143  17.613  0.00  0.00    +0.000 OA
ENDBRANCH  11  12
ENDBRANCH   9  11
ENDBRANCH   2   5
ENDBRANCH   1   2
BRANCH   1  16
ATOM     16  N   UNL     1      43.788   5.081   9.782  0.00  0.00    +0.000 N 
ATOM     17  H   UNL     1      42.883   5.285   9.356  0.00  0.00    +0.000 HD
BRANCH  16  21
ATOM     18  C   UNL     1      46.223   2.161   7.943  0.00  0.00    +0.000 A 
ATOM     19  C   UNL     1      45.265   1.771   8.881  0.00  0.00    +0.000 A 
ATOM     20  C   UNL     1      44.435   2.731   9.480  0.00  0.00    +0.000 A 
ATOM     21  C   UNL     1      44.516   4.085   9.137  0.00  0.00    +0.000 A 
ATOM     22  C   UNL     1      45.490   4.459   8.199  0.00  0.00    +0.000 A 
ATOM     23  C   UNL     1      46.341   3.511   7.608  0.00  0.00    +0.000 A 
BRANCH  18  25
ATOM     24  N   UNL     1      48.286   1.682   6.741  0.00  0.00    +0.000 N 
ATOM     25  C   UNL     1      47.160   1.182   7.336  0.00  0.00    +0.000 C 
ATOM     26  O   UNL     1      46.954  -0.023   7.383  0.00  0.00    +0.000 OA
ATOM     27  H   UNL     1      48.958   1.002   6.409  0.00  0.00    +0.000 HD
ATOM     28  H   UNL     1      48.610   2.625   6.902  0.00  0.00    +0.000 HD
ENDBRANCH  18  25
ENDBRANCH  16  21
ENDBRANCH   1  16
TORSDOF 7
ENDMDL
MODEL 7
REMARK VINA RESULT:    -7.698      2.247      2.850
REMARK INTER + INTRA:         -11.880
REMARK INTER:                 -10.889
REMARK INTRA:                  -0.991
REMARK UNBOUND:                -1.032
REMARK  Name = 
REMARK  7 active torsions:
REMARK  status: ('A' for Active; 'I' for Inactive)
REMARK    1  A    between atoms: C_2  and  C_4
REMARK    2  A    between atoms: C_7  and  N_8
REMARK    3  A    between atoms: N_8  and  C_9
REMARK    4  A    between atoms: C_9  and  C_10
REMARK    5  A    between atoms: C_10  and  C_13
REMARK    6  A    between atoms: C_17  and  O_18
REMARK    7  A    between atoms: O_18  and  C_19
REMARK                            x       y       z     vdW  Elec       q    Type
REMARK                         _______ _______ _______ _____ _____    ______ ____
ROOT
ATOM      1  C   UNL     1      43.667   4.406  11.539  0.00  0.00    +0.000 C 
ENDROOT
BRANCH   1   2
ATOM      2  C   UNL     1      44.864   4.540  12.519  0.00  0.00    +0.000 C 
ATOM      3  F   UNL     1      44.426   4.279  13.787  0.00  0.00    +0.000 F 
ATOM      4  F   UNL     1      45.757   3.540  12.236  0.00  0.00    +0.000 F 
BRANCH   2   5
ATOM      5  C   UNL     1      45.490   5.920  12.412  0.00  0.00    +0.000 A 
ATOM      6  C   UNL     1      44.731   7.063  12.704  0.00  0.00    +0.000 A 
ATOM      7  C   UNL     1      45.286   8.335  12.565  0.00  0.00    +0.000 A 
ATOM      8  C   UNL     1      46.609   8.484  12.144  0.00  0.00    +0.000 A 
ATOM      9  C   UNL     1      47.386   7.360  11.870  0.00  0.00    +0.000 A 
ATOM     10  C   UNL     1      46.827   6.084  12.002  0.00  0.00    +0.000 A 
BRANCH   9  11
ATOM     11  O   UNL     1      48.716   7.407  11.529  0.00  0.00    +0.000 OA
BRANCH  11  12
ATOM     12  C   UNL     1      49.694   7.522  12.585  0.00  0.00    +0.000 C 
ATOM     13  C   UNL     1      49.180   7.221  14.003  0.00  0.00    +0.000 C 
ATOM     14  C   UNL     1      49.889   8.515  14.381  0.00  0.00    +0.000 C 
ATOM     15  O   UNL     1      50.024   8.883  12.988  0.00  0.00    +0.000 OA
ENDBRANCH  11  12
ENDBRANCH   9  11
ENDBRANCH   2   5
ENDBRANCH   1   2
BRANCH   1  16
ATOM     16  N   UNL     1      43.969   4.841  10.164  0.00  0.00    +0.000 N 
ATOM     17  H   UNL     1      43.227   5.372   9.708  0.00  0.00    +0.000 HD
BRANCH  16  21
ATOM     18  C   UNL     1      46.461   2.500   7.683  0.00  0.00    +0.000 A 
ATOM     19  C   UNL     1      45.569   1.874   8.554  0.00  0.00    +0.000 A 
ATOM     20  C   UNL     1      44.719   2.642   9.366  0.00  0.00    +0.000 A 
ATOM     21  C   UNL     1      44.717   4.040   9.304  0.00  0.00    +0.000 A 
ATOM     22  C   UNL     1      45.626   4.652   8.428  0.00  0.00    +0.000 A 
ATOM     23  C   UNL     1      46.495   3.895   7.627  0.00  0.00    +0.000 A 
BRANCH  18  25
ATOM     24  N   UNL     1      48.522   2.380   6.392  0.00  0.00    +0.000 N 
ATOM     25  C   UNL     1      47.417   1.721   6.856  0.00  0.00    +0.000 C 
ATOM     26  O   UNL     1      47.245   0.533   6.617  0.00  0.00    +0.000 OA
ATOM     27  H   UNL     1      49.208   1.818   5.904  0.00  0.00    +0.000 HD
ATOM     28  H   UNL     1      48.822   3.267   6.770  0.00  0.00    +0.000 HD
ENDBRANCH  18  25
ENDBRANCH  16  21
ENDBRANCH   1  16
TORSDOF 7
ENDMDL
MODEL 8
REMARK VINA RESULT:    -7.490      2.183      3.018
REMARK INTER + INTRA:         -11.587
REMARK INTER:                 -10.626
REMARK INTRA:                  -0.962
REMARK UNBOUND:                -1.032
REMARK  Name = 
REMARK  7 active torsions:
REMARK  status: ('A' for Active; 'I' for Inactive)
REMARK    1  A    between atoms: C_2  and  C_4
REMARK    2  A    between atoms: C_7  and  N_8
REMARK    3  A    between atoms: N_8  and  C_9
REMARK    4  A    between atoms: C_9  and  C_10
REMARK    5  A    between atoms: C_10  and  C_13
REMARK    6  A    between atoms: C_17  and  O_18
REMARK    7  A    between atoms: O_18  and  C_19
REMARK                            x       y       z     vdW  Elec       q    Type
REMARK                         _______ _______ _______ _____ _____    ______ ____
ROOT
ATOM      1  C   UNL     1      43.753   5.304  11.060  0.00  0.00    +0.000 C 
ENDROOT
BRANCH   1   2
ATOM      2  C   UNL     1      44.780   6.433  11.345  0.00  0.00    +0.000 C 
ATOM      3  F   UNL     1      45.417   6.753  10.178  0.00  0.00    +0.000 F 
ATOM      4  F   UNL     1      44.084   7.560  11.694  0.00  0.00    +0.000 F 
BRANCH   2   5
ATOM      5  C   UNL     1      45.761   6.004  12.422  0.00  0.00    +0.000 A 
ATOM      6  C   UNL     1      45.789   4.671  12.859  0.00  0.00    +0.000 A 
ATOM      7  C   UNL     1      46.656   4.279  13.879  0.00  0.00    +0.000 A 
ATOM      8  C   UNL     1      47.514   5.210  14.470  0.00  0.00    +0.000 A 
ATOM      9  C   UNL     1      47.516   6.533  14.035  0.00  0.00    +0.000 A 
ATOM     10  C   UNL     1      46.641   6.928  13.017  0.00  0.00    +0.000 A 
BRANCH   9  11
ATOM     11  O   UNL     1      48.379   7.496  14.501  0.00  0.00    +0.000 OA
BRANCH  11  12
ATOM     12  C   UNL     1      49.780   7.383  14.171  0.00  0.00    +0.000 C 
ATOM     13  C   UNL     1      50.692   8.475  14.754  0.00  0.00    +0.000 C 
ATOM     14  C   UNL     1      51.250   8.565  13.339  0.00  0.00    +0.000 C 
ATOM     15  O   UNL     1      50.140   7.797  12.820  0.00  0.00    +0.000 OA
ENDBRANCH  11  12
ENDBRANCH   9  11
ENDBRANCH   2   5
ENDBRANCH   1   2
BRANCH   1  16
ATOM     16  N   UNL     1      43.693   4.894   9.645  0.00  0.00    +0.000 N 
ATOM     17  H   UNL     1      42.752   4.823   9.257  0.00  0.00    +0.000 HD
BRANCH  16  21
ATOM     18  C   UNL     1      46.240   1.993   7.931  0.00  0.00    +0.000 A 
ATOM     19  C   UNL     1      46.380   3.334   7.571  0.00  0.00    +0.000 A 
ATOM     20  C   UNL     1      45.554   4.309   8.152  0.00  0.00    +0.000 A 
ATOM     21  C   UNL     1      44.602   3.977   9.122  0.00  0.00    +0.000 A 
ATOM     22  C   UNL     1      44.471   2.623   9.466  0.00  0.00    +0.000 A 
ATOM     23  C   UNL     1      45.276   1.636   8.876  0.00  0.00    +0.000 A 
BRANCH  18  25
ATOM     24  N   UNL     1      46.794  -0.364   7.664  0.00  0.00    +0.000 N 
ATOM     25  C   UNL     1      47.053   0.928   7.292  0.00  0.00    +0.000 C 
ATOM     26  O   UNL     1      47.903   1.182   6.449  0.00  0.00    +0.000 OA
ATOM     27  H   UNL     1      47.292  -1.084   7.159  0.00  0.00    +0.000 HD
ATOM     28  H   UNL     1      45.950  -0.627   8.152  0.00  0.00    +0.000 HD
ENDBRANCH  18  25
ENDBRANCH  16  21
ENDBRANCH   1  16
TORSDOF 7
ENDMDL
MODEL 9
REMARK VINA RESULT:    -7.255      2.695      7.323
REMARK INTER + INTRA:         -11.256
REMARK INTER:                 -10.372
REMARK INTRA:                  -0.883
REMARK UNBOUND:                -1.032
REMARK  Name = 
REMARK  7 active torsions:
REMARK  status: ('A' for Active; 'I' for Inactive)
REMARK    1  A    between atoms: C_2  and  C_4
REMARK    2  A    between atoms: C_7  and  N_8
REMARK    3  A    between atoms: N_8  and  C_9
REMARK    4  A    between atoms: C_9  and  C_10
REMARK    5  A    between atoms: C_10  and  C_13
REMARK    6  A    between atoms: C_17  and  O_18
REMARK    7  A    between atoms: O_18  and  C_19
REMARK                            x       y       z     vdW  Elec       q    Type
REMARK                         _______ _______ _______ _____ _____    ______ ____
ROOT
ATOM      1  C   UNL     1      46.895   6.606  11.770  0.00  0.00    +0.000 C 
ENDROOT
BRANCH   1   2
ATOM      2  C   UNL     1      45.355   6.532  11.582  0.00  0.00    +0.000 C 
ATOM      3  F   UNL     1      44.759   6.603  12.810  0.00  0.00    +0.000 F 
ATOM      4  F   UNL     1      44.954   7.663  10.923  0.00  0.00    +0.000 F 
BRANCH   2   5
ATOM      5  C   UNL     1      44.968   5.264  10.840  0.00  0.00    +0.000 A 
ATOM      6  C   UNL     1      44.242   4.257  11.495  0.00  0.00    +0.000 A 
ATOM      7  C   UNL     1      43.921   3.072  10.834  0.00  0.00    +0.000 A 
ATOM      8  C   UNL     1      44.312   2.879   9.507  0.00  0.00    +0.000 A 
ATOM      9  C   UNL     1      45.015   3.875   8.833  0.00  0.00    +0.000 A 
ATOM     10  C   UNL     1      45.342   5.062   9.499  0.00  0.00    +0.000 A 
BRANCH   9  11
ATOM     11  O   UNL     1      45.369   3.806   7.507  0.00  0.00    +0.000 OA
BRANCH  11  12
ATOM     12  C   UNL     1      46.731   3.459   7.175  0.00  0.00    +0.000 C 
ATOM     13  C   UNL     1      46.983   3.085   5.705  0.00  0.00    +0.000 C 
ATOM     14  C   UNL     1      47.730   1.891   6.284  0.00  0.00    +0.000 C 
ATOM     15  O   UNL     1      47.157   2.128   7.591  0.00  0.00    +0.000 OA
ENDBRANCH  11  12
ENDBRANCH   9  11
ENDBRANCH   2   5
ENDBRANCH   1   2
BRANCH   1  16
ATOM     16  N   UNL     1      47.313   6.984  13.133  0.00  0.00    +0.000 N 
ATOM     17  H   UNL     1      47.932   7.794  13.184  0.00  0.00    +0.000 HD
BRANCH  16  21
ATOM     18  C   UNL     1      47.874   4.203  16.262  0.00  0.00    +0.000 A 
ATOM     19  C   UNL     1      47.150   3.831  15.128  0.00  0.00    +0.000 A 
ATOM     20  C   UNL     1      46.978   4.740  14.072  0.00  0.00    +0.000 A 
ATOM     21  C   UNL     1      47.547   6.018  14.108  0.00  0.00    +0.000 A 
ATOM     22  C   UNL     1      48.264   6.376  15.258  0.00  0.00    +0.000 A 
ATOM     23  C   UNL     1      48.425   5.484  16.330  0.00  0.00    +0.000 A 
BRANCH  18  25
ATOM     24  N   UNL     1      46.903   2.624  17.841  0.00  0.00    +0.000 N 
ATOM     25  C   UNL     1      48.023   3.290  17.423  0.00  0.00    +0.000 C 
ATOM     26  O   UNL     1      49.102   3.116  17.973  0.00  0.00    +0.000 OA
ATOM     27  H   UNL     1      47.036   1.941  18.576  0.00  0.00    +0.000 HD
ATOM     28  H   UNL     1      46.074   2.547  17.270  0.00  0.00    +0.000 HD
ENDBRANCH  18  25
ENDBRANCH  16  21
ENDBRANCH   1  16
TORSDOF 7
ENDMDL
