MODEL 1
REMARK VINA RESULT:    -9.210      0.000      0.000
REMARK INTER + INTRA:         -11.977
REMARK INTER:                 -11.364
REMARK INTRA:                  -0.613
REMARK UNBOUND:                -0.613
REMARK  Name = 
REMARK  4 active torsions:
REMARK  status: ('A' for Active; 'I' for Inactive)
REMARK    1  A    between atoms: C_2  and  C_4
REMARK    2  A    between atoms: N_8  and  C_9
REMARK    3  A    between atoms: C_9  and  C_10
REMARK    4  A    between atoms: C_14  and  C_15
REMARK                            x       y       z     vdW  Elec       q    Type
REMARK                         _______ _______ _______ _____ _____    ______ ____
ROOT
ATOM      1  C   UNL     1      46.540   2.534   7.621  0.00  0.00    +0.000 A 
ATOM      2  C   UNL     1      45.843   2.009   8.704  0.00  0.00    +0.000 A 
ATOM      3  C   UNL     1      45.125   2.873   9.533  0.00  0.00    +0.000 A 
ATOM      4  C   UNL     1      45.135   4.241   9.284  0.00  0.00    +0.000 A 
ATOM      5  N   UNL     1      44.373   5.145   9.990  0.00  0.00    +0.000 N 
ATOM      6  N   UNL     1      45.822   4.760   8.249  0.00  0.00    +0.000 NA
ATOM      7  C   UNL     1      46.513   3.908   7.445  0.00  0.00    +0.000 A 
ATOM      8  H   UNL     1      44.628   6.082   9.682  0.00  0.00    +0.000 HD
ENDROOT
BRANCH   1  10
ATOM      9  N   UNL     1      48.319   2.302   5.985  0.00  0.00    +0.000 N 
ATOM     10  C   UNL     1      47.303   1.698   6.672  0.00  0.00    +0.000 C 
ATOM     11  O   UNL     1      47.061   0.508   6.532  0.00  0.00    +0.000 OA
ATOM     12  H   UNL     1      48.897   1.697   5.415  0.00  0.00    +0.000 HD
ATOM     13  H   UNL     1      48.710   3.193   6.257  0.00  0.00    +0.000 HD
ENDBRANCH   1  10
BRANCH   5  14
ATOM     14  C   UNL     1      44.160   5.022  11.420  0.00  0.00    +0.000 C 
BRANCH  14  15
ATOM     15  C   UNL     1      45.441   5.324  12.166  0.00  0.00    +0.000 A 
ATOM     16  C   UNL     1      46.328   6.314  11.733  0.00  0.00    +0.000 A 
ATOM     17  C   UNL     1      47.457   6.572  12.484  0.00  0.00    +0.000 A 
ATOM     18  N   UNL     1      47.760   5.928  13.630  0.00  0.00    +0.000 NA
ATOM     19  C   UNL     1      46.899   4.970  14.072  0.00  0.00    +0.000 A 
ATOM     20  C   UNL     1      45.730   4.664  13.367  0.00  0.00    +0.000 A 
BRANCH  19  21
ATOM     21  C   UNL     1      47.289   4.252  15.311  0.00  0.00    +0.000 A 
ATOM     22  C   UNL     1      47.169   4.839  16.574  0.00  0.00    +0.000 A 
ATOM     23  C   UNL     1      47.611   4.149  17.701  0.00  0.00    +0.000 A 
ATOM     24  C   UNL     1      48.156   2.883  17.550  0.00  0.00    +0.000 A 
ATOM     25  C   UNL     1      48.228   2.354  16.272  0.00  0.00    +0.000 A 
ATOM     26  N   UNL     1      47.810   3.000  15.161  0.00  0.00    +0.000 NA
ENDBRANCH  19  21
ENDBRANCH  14  15
ENDBRANCH   5  14
TORSDOF 4
ENDMDL
MODEL 2
REMARK VINA RESULT:    -9.208      2.014      3.988
REMARK INTER + INTRA:         -11.974
REMARK INTER:                 -11.249
REMARK INTRA:                  -0.725
REMARK UNBOUND:                -0.613
REMARK  Name = 
REMARK  4 active torsions:
REMARK  status: ('A' for Active; 'I' for Inactive)
REMARK    1  A    between atoms: C_2  and  C_4
REMARK    2  A    between atoms: N_8  and  C_9
REMARK    3  A    between atoms: C_9  and  C_10
REMARK    4  A    between atoms: C_14  and  C_15
REMARK                            x       y       z     vdW  Elec       q    Type
REMARK                         _______ _______ _______ _____ _____    ______ ____
ROOT
ATOM      1  C   UNL     1      46.384   2.291   7.732  0.00  0.00    +0.000 A 
ATOM      2  C   UNL     1      45.574   1.792   8.746  0.00  0.00    +0.000 A 
ATOM      3  C   UNL     1      44.707   2.659   9.412  0.00  0.00    +0.000 A 
ATOM      4  C   UNL     1      44.679   4.008   9.072  0.00  0.00    +0.000 A 
ATOM      5  N   UNL     1      43.782   4.905   9.608  0.00  0.00    +0.000 N 
ATOM      6  N   UNL     1      45.473   4.504   8.105  0.00  0.00    +0.000 NA
ATOM      7  C   UNL     1      46.310   3.648   7.460  0.00  0.00    +0.000 A 
ATOM      8  H   UNL     1      44.027   5.835   9.273  0.00  0.00    +0.000 HD
ENDROOT
BRANCH   1  10
ATOM      9  N   UNL     1      48.457   2.036   6.494  0.00  0.00    +0.000 N 
ATOM     10  C   UNL     1      47.311   1.447   6.952  0.00  0.00    +0.000 C 
ATOM     11  O   UNL     1      47.083   0.262   6.753  0.00  0.00    +0.000 OA
ATOM     12  H   UNL     1      49.130   1.424   6.049  0.00  0.00    +0.000 HD
ATOM     13  H   UNL     1      48.799   2.917   6.849  0.00  0.00    +0.000 HD
ENDBRANCH   1  10
BRANCH   5  14
ATOM     14  C   UNL     1      43.383   4.857  11.002  0.00  0.00    +0.000 C 
BRANCH  14  15
ATOM     15  C   UNL     1      44.543   5.248  11.891  0.00  0.00    +0.000 A 
ATOM     16  C   UNL     1      44.911   4.480  13.000  0.00  0.00    +0.000 A 
ATOM     17  C   UNL     1      46.008   4.868  13.744  0.00  0.00    +0.000 A 
ATOM     18  N   UNL     1      46.763   5.950  13.463  0.00  0.00    +0.000 NA
ATOM     19  C   UNL     1      46.423   6.701  12.379  0.00  0.00    +0.000 A 
ATOM     20  C   UNL     1      45.332   6.361  11.573  0.00  0.00    +0.000 A 
BRANCH  19  21
ATOM     21  C   UNL     1      47.248   7.909  12.128  0.00  0.00    +0.000 A 
ATOM     22  C   UNL     1      48.607   7.823  11.809  0.00  0.00    +0.000 A 
ATOM     23  C   UNL     1      49.354   8.987  11.648  0.00  0.00    +0.000 A 
ATOM     24  C   UNL     1      48.732  10.217  11.799  0.00  0.00    +0.000 A 
ATOM     25  C   UNL     1      47.380  10.230  12.096  0.00  0.00    +0.000 A 
ATOM     26  N   UNL     1      46.631   9.118  12.260  0.00  0.00    +0.000 NA
ENDBRANCH  19  21
ENDBRANCH  14  15
ENDBRANCH   5  14
TORSDOF 4
ENDMDL
MODEL 3
REMARK VINA RESULT:    -7.990      3.407      7.225
REMARK INTER + INTRA:         -10.471
REMARK INTER:                  -9.677
REMARK INTRA:                  -0.794
REMARK UNBOUND:                -0.613
REMARK  Name = 
REMARK  4 active torsions:
REMARK  status: ('A' for Active; 'I' for Inactive)
REMARK    1  A    between atoms: C_2  and  C_4
REMARK    2  A    between atoms: N_8  and  C_9
REMARK    3  A    between atoms: C_9  and  C_10
REMARK    4  A    between atoms: C_14  and  C_15
REMARK                            x       y       z     vdW  Elec       q    Type
REMARK                         _______ _______ _______ _____ _____    ______ ____
ROOT
ATOM      1  C   UNL     1      48.704   7.459  12.915  0.00  0.00    +0.000 A 
ATOM      2  C   UNL     1      47.969   7.953  11.842  0.00  0.00    +0.000 A 
ATOM      3  C   UNL     1      46.609   7.654  11.755  0.00  0.00    +0.000 A 
ATOM      4  C   UNL     1      46.013   6.851  12.722  0.00  0.00    +0.000 A 
ATOM      5  N   UNL     1      44.660   6.594  12.764  0.00  0.00    +0.000 N 
ATOM      6  N   UNL     1      46.721   6.352  13.753  0.00  0.00    +0.000 NA
ATOM      7  C   UNL     1      48.044   6.655  13.830  0.00  0.00    +0.000 A 
ATOM      8  H   UNL     1      44.491   5.911  13.501  0.00  0.00    +0.000 HD
ENDROOT
BRANCH   1  10
ATOM      9  N   UNL     1      50.669   7.483  14.342  0.00  0.00    +0.000 N 
ATOM     10  C   UNL     1      50.140   7.746  13.108  0.00  0.00    +0.000 C 
ATOM     11  O   UNL     1      50.836   8.167  12.195  0.00  0.00    +0.000 OA
ATOM     12  H   UNL     1      51.672   7.589  14.431  0.00  0.00    +0.000 HD
ATOM     13  H   UNL     1      50.202   6.905  15.025  0.00  0.00    +0.000 HD
ENDBRANCH   1  10
BRANCH   5  14
ATOM     14  C   UNL     1      43.878   6.383  11.561  0.00  0.00    +0.000 C 
BRANCH  14  15
ATOM     15  C   UNL     1      43.944   4.931  11.143  0.00  0.00    +0.000 A 
ATOM     16  C   UNL     1      43.185   3.947  11.784  0.00  0.00    +0.000 A 
ATOM     17  C   UNL     1      43.256   2.647  11.325  0.00  0.00    +0.000 A 
ATOM     18  N   UNL     1      44.013   2.259  10.278  0.00  0.00    +0.000 NA
ATOM     19  C   UNL     1      44.748   3.209   9.635  0.00  0.00    +0.000 A 
ATOM     20  C   UNL     1      44.716   4.548  10.039  0.00  0.00    +0.000 A 
BRANCH  19  21
ATOM     21  C   UNL     1      45.604   2.738   8.518  0.00  0.00    +0.000 A 
ATOM     22  C   UNL     1      45.944   3.568   7.446  0.00  0.00    +0.000 A 
ATOM     23  C   UNL     1      46.695   3.059   6.389  0.00  0.00    +0.000 A 
ATOM     24  C   UNL     1      47.101   1.734   6.423  0.00  0.00    +0.000 A 
ATOM     25  C   UNL     1      46.746   0.973   7.524  0.00  0.00    +0.000 A 
ATOM     26  N   UNL     1      46.017   1.439   8.562  0.00  0.00    +0.000 NA
ENDBRANCH  19  21
ENDBRANCH  14  15
ENDBRANCH   5  14
TORSDOF 4
ENDMDL
MODEL 4
REMARK VINA RESULT:    -7.871      3.657      7.116
REMARK INTER + INTRA:         -10.324
REMARK INTER:                  -9.587
REMARK INTRA:                  -0.737
REMARK UNBOUND:                -0.613
REMARK  Name = 
REMARK  4 active torsions:
REMARK  status: ('A' for Active; 'I' for Inactive)
REMARK    1  A    between atoms: C_2  and  C_4
REMARK    2  A    between atoms: N_8  and  C_9
REMARK    3  A    between atoms: C_9  and  C_10
REMARK    4  A    between atoms: C_14  and  C_15
REMARK                            x       y       z     vdW  Elec       q    Type
REMARK                         _______ _______ _______ _____ _____    ______ ____
ROOT
ATOM      1  C   UNL     1      49.352   7.843  12.130  0.00  0.00    +0.000 A 
ATOM      2  C   UNL     1      48.172   8.478  11.758  0.00  0.00    +0.000 A 
ATOM      3  C   UNL     1      46.951   7.927  12.151  0.00  0.00    +0.000 A 
ATOM      4  C   UNL     1      46.928   6.746  12.885  0.00  0.00    +0.000 A 
ATOM      5  N   UNL     1      45.774   6.195  13.397  0.00  0.00    +0.000 N 
ATOM      6  N   UNL     1      48.065   6.114  13.233  0.00  0.00    +0.000 NA
ATOM      7  C   UNL     1      49.248   6.663  12.849  0.00  0.00    +0.000 A 
ATOM      8  H   UNL     1      46.009   5.292  13.807  0.00  0.00    +0.000 HD
ENDROOT
BRANCH   1  10
ATOM      9  N   UNL     1      51.574   7.490  11.217  0.00  0.00    +0.000 N 
ATOM     10  C   UNL     1      50.690   8.365  11.787  0.00  0.00    +0.000 C 
ATOM     11  O   UNL     1      50.986   9.537  11.971  0.00  0.00    +0.000 OA
ATOM     12  H   UNL     1      52.450   7.884  10.895  0.00  0.00    +0.000 HD
ATOM     13  H   UNL     1      51.290   6.607  10.818  0.00  0.00    +0.000 HD
ENDBRANCH   1  10
BRANCH   5  14
ATOM     14  C   UNL     1      44.521   6.212  12.665  0.00  0.00    +0.000 C 
BRANCH  14  15
ATOM     15  C   UNL     1      44.319   4.897  11.945  0.00  0.00    +0.000 A 
ATOM     16  C   UNL     1      43.416   3.936  12.409  0.00  0.00    +0.000 A 
ATOM     17  C   UNL     1      43.245   2.775  11.681  0.00  0.00    +0.000 A 
ATOM     18  N   UNL     1      43.895   2.508  10.529  0.00  0.00    +0.000 NA
ATOM     19  C   UNL     1      44.769   3.441  10.058  0.00  0.00    +0.000 A 
ATOM     20  C   UNL     1      44.983   4.644  10.738  0.00  0.00    +0.000 A 
BRANCH  19  21
ATOM     21  C   UNL     1      45.499   3.091   8.814  0.00  0.00    +0.000 A 
ATOM     22  C   UNL     1      45.909   1.783   8.540  0.00  0.00    +0.000 A 
ATOM     23  C   UNL     1      46.649   1.518   7.390  0.00  0.00    +0.000 A 
ATOM     24  C   UNL     1      46.959   2.559   6.528  0.00  0.00    +0.000 A 
ATOM     25  C   UNL     1      46.505   3.827   6.850  0.00  0.00    +0.000 A 
ATOM     26  N   UNL     1      45.788   4.114   7.959  0.00  0.00    +0.000 NA
ENDBRANCH  19  21
ENDBRANCH  14  15
ENDBRANCH   5  14
TORSDOF 4
ENDMDL
MODEL 5
REMARK VINA RESULT:    -7.794      2.767      5.111
REMARK INTER + INTRA:         -10.229
REMARK INTER:                  -9.661
REMARK INTRA:                  -0.568
REMARK UNBOUND:                -0.613
REMARK  Name = 
REMARK  4 active torsions:
REMARK  status: ('A' for Active; 'I' for Inactive)
REMARK    1  A    between atoms: C_2  and  C_4
REMARK    2  A    between atoms: N_8  and  C_9
REMARK    3  A    between atoms: C_9  and  C_10
REMARK    4  A    between atoms: C_14  and  C_15
REMARK                            x       y       z     vdW  Elec       q    Type
REMARK                         _______ _______ _______ _____ _____    ______ ____
ROOT
ATOM      1  C   UNL     1      46.610   2.543   7.301  0.00  0.00    +0.000 A 
ATOM      2  C   UNL     1      46.360   3.811   7.812  0.00  0.00    +0.000 A 
ATOM      3  C   UNL     1      45.595   3.938   8.973  0.00  0.00    +0.000 A 
ATOM      4  C   UNL     1      45.075   2.803   9.587  0.00  0.00    +0.000 A 
ATOM      5  N   UNL     1      44.399   2.834  10.787  0.00  0.00    +0.000 N 
ATOM      6  N   UNL     1      45.295   1.572   9.088  0.00  0.00    +0.000 NA
ATOM      7  C   UNL     1      46.047   1.462   7.960  0.00  0.00    +0.000 A 
ATOM      8  H   UNL     1      44.041   1.898  10.972  0.00  0.00    +0.000 HD
ENDROOT
BRANCH   1  10
ATOM      9  N   UNL     1      47.247   3.155   5.039  0.00  0.00    +0.000 N 
ATOM     10  C   UNL     1      47.432   2.307   6.096  0.00  0.00    +0.000 C 
ATOM     11  O   UNL     1      48.266   1.415   6.057  0.00  0.00    +0.000 OA
ATOM     12  H   UNL     1      47.885   3.046   4.261  0.00  0.00    +0.000 HD
ATOM     13  H   UNL     1      46.769   4.041   5.125  0.00  0.00    +0.000 HD
ENDBRANCH   1  10
BRANCH   5  14
ATOM     14  C   UNL     1      43.480   3.904  11.126  0.00  0.00    +0.000 C 
BRANCH  14  15
ATOM     15  C   UNL     1      44.227   5.046  11.780  0.00  0.00    +0.000 A 
ATOM     16  C   UNL     1      45.166   4.825  12.793  0.00  0.00    +0.000 A 
ATOM     17  C   UNL     1      45.847   5.906  13.317  0.00  0.00    +0.000 A 
ATOM     18  N   UNL     1      45.670   7.178  12.903  0.00  0.00    +0.000 NA
ATOM     19  C   UNL     1      44.768   7.407  11.909  0.00  0.00    +0.000 A 
ATOM     20  C   UNL     1      44.051   6.358  11.324  0.00  0.00    +0.000 A 
BRANCH  19  21
ATOM     21  C   UNL     1      44.567   8.823  11.513  0.00  0.00    +0.000 A 
ATOM     22  C   UNL     1      45.448   9.833  11.910  0.00  0.00    +0.000 A 
ATOM     23  C   UNL     1      45.180  11.157  11.568  0.00  0.00    +0.000 A 
ATOM     24  C   UNL     1      44.044  11.449  10.829  0.00  0.00    +0.000 A 
ATOM     25  C   UNL     1      43.225  10.398  10.452  0.00  0.00    +0.000 A 
ATOM     26  N   UNL     1      43.458   9.106  10.771  0.00  0.00    +0.000 NA
ENDBRANCH  19  21
ENDBRANCH  14  15
ENDBRANCH   5  14
TORSDOF 4
ENDMDL
MODEL 6
REMARK VINA RESULT:    -7.748      2.944      7.642
REMARK INTER + INTRA:         -10.172
REMARK INTER:                  -9.664
REMARK INTRA:                  -0.508
REMARK UNBOUND:                -0.613
REMARK  Name = 
REMARK  4 active torsions:
REMARK  status: ('A' for Active; 'I' for Inactive)
REMARK    1  A    between atoms: C_2  and  C_4
REMARK    2  A    between atoms: N_8  and  C_9
REMARK    3  A    between atoms: C_9  and  C_10
REMARK    4  A    between atoms: C_14  and  C_15
REMARK                            x       y       z     vdW  Elec       q    Type
REMARK                         _______ _______ _______ _____ _____    ______ ____
ROOT
ATOM      1  C   UNL     1      47.984   5.164  15.685  0.00  0.00    +0.000 A 
ATOM      2  C   UNL     1      46.940   4.406  15.167  0.00  0.00    +0.000 A 
ATOM      3  C   UNL     1      46.288   4.847  14.014  0.00  0.00    +0.000 A 
ATOM      4  C   UNL     1      46.670   6.043  13.415  0.00  0.00    +0.000 A 
ATOM      5  N   UNL     1      46.148   6.494  12.223  0.00  0.00    +0.000 N 
ATOM      6  N   UNL     1      47.667   6.793  13.921  0.00  0.00    +0.000 NA
ATOM      7  C   UNL     1      48.299   6.350  15.041  0.00  0.00    +0.000 A 
ATOM      8  H   UNL     1      46.517   7.427  12.050  0.00  0.00    +0.000 HD
ENDROOT
BRANCH   1  10
ATOM      9  N   UNL     1      48.042   4.500  18.020  0.00  0.00    +0.000 N 
ATOM     10  C   UNL     1      48.752   4.765  16.882  0.00  0.00    +0.000 C 
ATOM     11  O   UNL     1      49.968   4.641  16.849  0.00  0.00    +0.000 OA
ATOM     12  H   UNL     1      48.569   4.132  18.802  0.00  0.00    +0.000 HD
ATOM     13  H   UNL     1      47.045   4.340  18.018  0.00  0.00    +0.000 HD
ENDBRANCH   1  10
BRANCH   5  14
ATOM     14  C   UNL     1      44.746   6.332  11.886  0.00  0.00    +0.000 C 
BRANCH  14  15
ATOM     15  C   UNL     1      44.506   4.959  11.299  0.00  0.00    +0.000 A 
ATOM     16  C   UNL     1      43.524   4.104  11.809  0.00  0.00    +0.000 A 
ATOM     17  C   UNL     1      43.324   2.881  11.199  0.00  0.00    +0.000 A 
ATOM     18  N   UNL     1      44.017   2.456  10.123  0.00  0.00    +0.000 NA
ATOM     19  C   UNL     1      44.968   3.283   9.608  0.00  0.00    +0.000 A 
ATOM     20  C   UNL     1      45.217   4.541  10.168  0.00  0.00    +0.000 A 
BRANCH  19  21
ATOM     21  C   UNL     1      45.742   2.762   8.453  0.00  0.00    +0.000 A 
ATOM     22  C   UNL     1      46.018   3.550   7.332  0.00  0.00    +0.000 A 
ATOM     23  C   UNL     1      46.690   2.995   6.246  0.00  0.00    +0.000 A 
ATOM     24  C   UNL     1      47.083   1.666   6.300  0.00  0.00    +0.000 A 
ATOM     25  C   UNL     1      46.795   0.949   7.448  0.00  0.00    +0.000 A 
ATOM     26  N   UNL     1      46.142   1.460   8.516  0.00  0.00    +0.000 NA
ENDBRANCH  19  21
ENDBRANCH  14  15
ENDBRANCH   5  14
TORSDOF 4
ENDMDL
MODEL 7
REMARK VINA RESULT:    -7.745      1.674      2.261
REMARK INTER + INTRA:         -10.169
REMARK INTER:                  -9.579
REMARK INTRA:                  -0.590
REMARK UNBOUND:                -0.613
REMARK  Name = 
REMARK  4 active torsions:
REMARK  status: ('A' for Active; 'I' for Inactive)
REMARK    1  A    between atoms: C_2  and  C_4
REMARK    2  A    between atoms: N_8  and  C_9
REMARK    3  A    between atoms: C_9  and  C_10
REMARK    4  A    between atoms: C_14  and  C_15
REMARK                            x       y       z     vdW  Elec       q    Type
REMARK                         _______ _______ _______ _____ _____    ______ ____
ROOT
ATOM      1  C   UNL     1      46.788   2.470   7.074  0.00  0.00    +0.000 A 
ATOM      2  C   UNL     1      46.450   3.705   7.616  0.00  0.00    +0.000 A 
ATOM      3  C   UNL     1      45.707   3.747   8.797  0.00  0.00    +0.000 A 
ATOM      4  C   UNL     1      45.295   2.563   9.400  0.00  0.00    +0.000 A 
ATOM      5  N   UNL     1      44.649   2.517  10.616  0.00  0.00    +0.000 N 
ATOM      6  N   UNL     1      45.601   1.363   8.871  0.00  0.00    +0.000 NA
ATOM      7  C   UNL     1      46.330   1.335   7.723  0.00  0.00    +0.000 A 
ATOM      8  H   UNL     1      44.373   1.552  10.790  0.00  0.00    +0.000 HD
ENDROOT
BRANCH   1  10
ATOM      9  N   UNL     1      47.303   3.160   4.803  0.00  0.00    +0.000 N 
ATOM     10  C   UNL     1      47.595   2.324   5.845  0.00  0.00    +0.000 C 
ATOM     11  O   UNL     1      48.509   1.515   5.773  0.00  0.00    +0.000 OA
ATOM     12  H   UNL     1      47.927   3.119   4.007  0.00  0.00    +0.000 HD
ATOM     13  H   UNL     1      46.747   3.996   4.912  0.00  0.00    +0.000 HD
ENDBRANCH   1  10
BRANCH   5  14
ATOM     14  C   UNL     1      43.657   3.503  10.999  0.00  0.00    +0.000 C 
BRANCH  14  15
ATOM     15  C   UNL     1      44.328   4.699  11.636  0.00  0.00    +0.000 A 
ATOM     16  C   UNL     1      43.992   6.008  11.277  0.00  0.00    +0.000 A 
ATOM     17  C   UNL     1      44.610   7.057  11.929  0.00  0.00    +0.000 A 
ATOM     18  N   UNL     1      45.523   6.900  12.909  0.00  0.00    +0.000 NA
ATOM     19  C   UNL     1      45.852   5.630  13.278  0.00  0.00    +0.000 A 
ATOM     20  C   UNL     1      45.257   4.520  12.668  0.00  0.00    +0.000 A 
BRANCH  19  21
ATOM     21  C   UNL     1      46.893   5.496  14.327  0.00  0.00    +0.000 A 
ATOM     22  C   UNL     1      46.925   4.407  15.202  0.00  0.00    +0.000 A 
ATOM     23  C   UNL     1      47.883   4.360  16.212  0.00  0.00    +0.000 A 
ATOM     24  C   UNL     1      48.798   5.395  16.326  0.00  0.00    +0.000 A 
ATOM     25  C   UNL     1      48.722   6.434  15.415  0.00  0.00    +0.000 A 
ATOM     26  N   UNL     1      47.803   6.508  14.426  0.00  0.00    +0.000 NA
ENDBRANCH  19  21
ENDBRANCH  14  15
ENDBRANCH   5  14
TORSDOF 4
ENDMDL
MODEL 8
REMARK VINA RESULT:    -7.374      2.727      3.422
REMARK INTER + INTRA:          -9.711
REMARK INTER:                  -9.109
REMARK INTRA:                  -0.602
REMARK UNBOUND:                -0.613
REMARK  Name = 
REMARK  4 active torsions:
REMARK  status: ('A' for Active; 'I' for Inactive)
REMARK    1  A    between atoms: C_2  and  C_4
REMARK    2  A    between atoms: N_8  and  C_9
REMARK    3  A    between atoms: C_9  and  C_10
REMARK    4  A    between atoms: C_14  and  C_15
REMARK                            x       y       z     vdW  Elec       q    Type
REMARK                         _______ _______ _______ _____ _____    ______ ____
ROOT
ATOM      1  C   UNL     1      46.318   2.065   7.969  0.00  0.00    +0.000 A 
ATOM      2  C   UNL     1      45.604   1.852   9.143  0.00  0.00    +0.000 A 
ATOM      3  C   UNL     1      44.913   2.918   9.720  0.00  0.00    +0.000 A 
ATOM      4  C   UNL     1      44.966   4.178   9.133  0.00  0.00    +0.000 A 
ATOM      5  N   UNL     1      44.232   5.254   9.581  0.00  0.00    +0.000 N 
ATOM      6  N   UNL     1      45.671   4.398   8.007  0.00  0.00    +0.000 NA
ATOM      7  C   UNL     1      46.335   3.350   7.450  0.00  0.00    +0.000 A 
ATOM      8  H   UNL     1      44.516   6.074   9.049  0.00  0.00    +0.000 HD
ENDROOT
BRANCH   1  10
ATOM      9  N   UNL     1      46.744  -0.297   7.599  0.00  0.00    +0.000 N 
ATOM     10  C   UNL     1      47.056   0.993   7.269  0.00  0.00    +0.000 C 
ATOM     11  O   UNL     1      47.884   1.246   6.406  0.00  0.00    +0.000 OA
ATOM     12  H   UNL     1      47.183  -1.021   7.042  0.00  0.00    +0.000 HD
ATOM     13  H   UNL     1      45.905  -0.546   8.102  0.00  0.00    +0.000 HD
ENDBRANCH   1  10
BRANCH   5  14
ATOM     14  C   UNL     1      44.014   5.502  10.994  0.00  0.00    +0.000 C 
BRANCH  14  15
ATOM     15  C   UNL     1      44.726   6.768  11.417  0.00  0.00    +0.000 A 
ATOM     16  C   UNL     1      44.106   8.020  11.342  0.00  0.00    +0.000 A 
ATOM     17  C   UNL     1      44.794   9.131  11.786  0.00  0.00    +0.000 A 
ATOM     18  N   UNL     1      46.039   9.087  12.305  0.00  0.00    +0.000 NA
ATOM     19  C   UNL     1      46.650   7.873  12.396  0.00  0.00    +0.000 A 
ATOM     20  C   UNL     1      46.008   6.704  11.975  0.00  0.00    +0.000 A 
BRANCH  19  21
ATOM     21  C   UNL     1      48.036   7.871  12.928  0.00  0.00    +0.000 A 
ATOM     22  C   UNL     1      49.130   8.248  12.143  0.00  0.00    +0.000 A 
ATOM     23  C   UNL     1      50.417   8.165  12.667  0.00  0.00    +0.000 A 
ATOM     24  C   UNL     1      50.592   7.716  13.968  0.00  0.00    +0.000 A 
ATOM     25  C   UNL     1      49.464   7.377  14.696  0.00  0.00    +0.000 A 
ATOM     26  N   UNL     1      48.203   7.445  14.213  0.00  0.00    +0.000 NA
ENDBRANCH  19  21
ENDBRANCH  14  15
ENDBRANCH   5  14
TORSDOF 4
ENDMDL
MODEL 9
REMARK VINA RESULT:    -7.330      2.924      8.056
REMARK INTER + INTRA:          -9.657
REMARK INTER:                  -9.179
REMARK INTRA:                  -0.477
REMARK UNBOUND:                -0.613
REMARK  Name = 
REMARK  4 active torsions:
REMARK  status: ('A' for Active; 'I' for Inactive)
REMARK    1  A    between atoms: C_2  and  C_4
REMARK    2  A    between atoms: N_8  and  C_9
REMARK    3  A    between atoms: C_9  and  C_10
REMARK    4  A    between atoms: C_14  and  C_15
REMARK                            x       y       z     vdW  Elec       q    Type
REMARK                         _______ _______ _______ _____ _____    ______ ____
ROOT
ATOM      1  C   UNL     1      49.204   3.759  17.056  0.00  0.00    +0.000 A 
ATOM      2  C   UNL     1      48.709   5.049  16.899  0.00  0.00    +0.000 A 
ATOM      3  C   UNL     1      47.676   5.272  15.987  0.00  0.00    +0.000 A 
ATOM      4  C   UNL     1      47.175   4.216  15.234  0.00  0.00    +0.000 A 
ATOM      5  N   UNL     1      46.092   4.334  14.390  0.00  0.00    +0.000 N 
ATOM      6  N   UNL     1      47.662   2.967  15.366  0.00  0.00    +0.000 NA
ATOM      7  C   UNL     1      48.664   2.761  16.262  0.00  0.00    +0.000 A 
ATOM      8  H   UNL     1      45.985   3.453  13.889  0.00  0.00    +0.000 HD
ENDROOT
BRANCH   1  10
ATOM      9  N   UNL     1      50.214   4.005  19.251  0.00  0.00    +0.000 N 
ATOM     10  C   UNL     1      50.274   3.419  18.017  0.00  0.00    +0.000 C 
ATOM     11  O   UNL     1      51.157   2.621  17.735  0.00  0.00    +0.000 OA
ATOM     12  H   UNL     1      50.894   3.688  19.932  0.00  0.00    +0.000 HD
ATOM     13  H   UNL     1      49.381   4.453  19.604  0.00  0.00    +0.000 HD
ENDBRANCH   1  10
BRANCH   5  14
ATOM     14  C   UNL     1      45.873   5.516  13.579  0.00  0.00    +0.000 C 
BRANCH  14  15
ATOM     15  C   UNL     1      45.055   5.165  12.356  0.00  0.00    +0.000 A 
ATOM     16  C   UNL     1      43.707   5.521  12.247  0.00  0.00    +0.000 A 
ATOM     17  C   UNL     1      43.028   5.211  11.085  0.00  0.00    +0.000 A 
ATOM     18  N   UNL     1      43.591   4.585  10.030  0.00  0.00    +0.000 NA
ATOM     19  C   UNL     1      44.906   4.243  10.117  0.00  0.00    +0.000 A 
ATOM     20  C   UNL     1      45.658   4.537  11.259  0.00  0.00    +0.000 A 
BRANCH  19  21
ATOM     21  C   UNL     1      45.477   3.517   8.956  0.00  0.00    +0.000 A 
ATOM     22  C   UNL     1      45.635   2.127   8.958  0.00  0.00    +0.000 A 
ATOM     23  C   UNL     1      46.237   1.499   7.871  0.00  0.00    +0.000 A 
ATOM     24  C   UNL     1      46.663   2.265   6.796  0.00  0.00    +0.000 A 
ATOM     25  C   UNL     1      46.459   3.633   6.851  0.00  0.00    +0.000 A 
ATOM     26  N   UNL     1      45.880   4.270   7.893  0.00  0.00    +0.000 NA
ENDBRANCH  19  21
ENDBRANCH  14  15
ENDBRANCH   5  14
TORSDOF 4
ENDMDL
