MODEL 1
REMARK VINA RESULT:    -9.860      0.000      0.000
REMARK INTER + INTRA:         -13.099
REMARK INTER:                 -13.030
REMARK INTRA:                  -0.070
REMARK UNBOUND:                -0.070
REMARK  Name = 
REMARK  6 active torsions:
REMARK  status: ('A' for Active; 'I' for Inactive)
REMARK    1  A    between atoms: C_2  and  C_4
REMARK    2  A    between atoms: C_7  and  O_8
REMARK    3  A    between atoms: O_8  and  C_9
REMARK    4  A    between atoms: C_9  and  C_10
REMARK    5  A    between atoms: C_14  and  C_15
REMARK    6  A    between atoms: C_19  and  O_20
REMARK                            x       y       z     vdW  Elec       q    Type
REMARK                         _______ _______ _______ _____ _____    ______ ____
ROOT
ATOM      1  C   UNL     1      44.009   4.867  11.481  0.00  0.00    +0.000 C 
ATOM      2  C   UNL     1      43.369   3.665  12.163  0.00  0.00    +0.000 C 
ATOM      3  C   UNL     1      42.776   5.021  12.353  0.00  0.00    +0.000 C 
ENDROOT
BRANCH   1   4
ATOM      4  C   UNL     1      45.364   5.348  11.968  0.00  0.00    +0.000 A 
ATOM      5  C   UNL     1      46.102   6.286  11.233  0.00  0.00    +0.000 A 
ATOM      6  C   UNL     1      47.306   6.795  11.716  0.00  0.00    +0.000 A 
ATOM      7  C   UNL     1      47.794   6.383  12.959  0.00  0.00    +0.000 A 
ATOM      8  C   UNL     1      47.091   5.458  13.746  0.00  0.00    +0.000 A 
ATOM      9  C   UNL     1      45.896   4.941  13.208  0.00  0.00    +0.000 A 
BRANCH   8  10
ATOM     10  C   UNL     1      47.531   5.094  15.115  0.00  0.00    +0.000 A 
ATOM     11  C   UNL     1      48.506   5.854  15.791  0.00  0.00    +0.000 A 
ATOM     12  C   UNL     1      48.878   5.569  17.112  0.00  0.00    +0.000 A 
ATOM     13  C   UNL     1      48.269   4.527  17.794  0.00  0.00    +0.000 A 
ATOM     14  C   UNL     1      47.306   3.765  17.146  0.00  0.00    +0.000 A 
ATOM     15  C   UNL     1      46.951   4.026  15.821  0.00  0.00    +0.000 A 
BRANCH  14  16
ATOM     16  O   UNL     1      46.660   2.750  17.790  0.00  0.00    +0.000 OA
ATOM     17  H   UNL     1      46.510   2.026  17.159  0.00  0.00    +0.000 HD
ENDBRANCH  14  16
ENDBRANCH   8  10
ENDBRANCH   1   4
BRANCH   1  18
ATOM     18  O   UNL     1      43.845   4.783  10.043  0.00  0.00    +0.000 OA
BRANCH  18  22
ATOM     19  C   UNL     1      46.330   2.271   7.833  0.00  0.00    +0.000 A 
ATOM     20  C   UNL     1      45.452   1.696   8.757  0.00  0.00    +0.000 A 
ATOM     21  C   UNL     1      44.580   2.502   9.496  0.00  0.00    +0.000 A 
ATOM     22  C   UNL     1      44.585   3.884   9.322  0.00  0.00    +0.000 A 
ATOM     23  C   UNL     1      45.437   4.454   8.371  0.00  0.00    +0.000 A 
ATOM     24  C   UNL     1      46.314   3.656   7.635  0.00  0.00    +0.000 A 
BRANCH  19  26
ATOM     25  N   UNL     1      48.417   2.113   6.586  0.00  0.00    +0.000 N 
ATOM     26  C   UNL     1      47.334   1.455   7.104  0.00  0.00    +0.000 C 
ATOM     27  O   UNL     1      47.206   0.245   6.971  0.00  0.00    +0.000 OA
ATOM     28  H   UNL     1      49.123   1.536   6.144  0.00  0.00    +0.000 HD
ATOM     29  H   UNL     1      48.680   3.042   6.877  0.00  0.00    +0.000 HD
ENDBRANCH  19  26
ENDBRANCH  18  22
ENDBRANCH   1  18
TORSDOF 6
ENDMDL
MODEL 2
REMARK VINA RESULT:    -9.776      2.347      3.826
REMARK INTER + INTRA:         -12.988
REMARK INTER:                 -11.668
REMARK INTRA:                  -1.320
REMARK UNBOUND:                -0.070
REMARK  Name = 
REMARK  6 active torsions:
REMARK  status: ('A' for Active; 'I' for Inactive)
REMARK    1  A    between atoms: C_2  and  C_4
REMARK    2  A    between atoms: C_7  and  O_8
REMARK    3  A    between atoms: O_8  and  C_9
REMARK    4  A    between atoms: C_9  and  C_10
REMARK    5  A    between atoms: C_14  and  C_15
REMARK    6  A    between atoms: C_19  and  O_20
REMARK                            x       y       z     vdW  Elec       q    Type
REMARK                         _______ _______ _______ _____ _____    ______ ____
ROOT
ATOM      1  C   UNL     1      43.838   4.843  11.302  0.00  0.00    +0.000 C 
ATOM      2  C   UNL     1      42.510   5.078  12.010  0.00  0.00    +0.000 C 
ATOM      3  C   UNL     1      42.986   6.061  10.993  0.00  0.00    +0.000 C 
ENDROOT
BRANCH   1   4
ATOM      4  C   UNL     1      45.124   4.982  12.096  0.00  0.00    +0.000 A 
ATOM      5  C   UNL     1      45.549   3.966  12.963  0.00  0.00    +0.000 A 
ATOM      6  C   UNL     1      46.770   4.050  13.630  0.00  0.00    +0.000 A 
ATOM      7  C   UNL     1      47.603   5.154  13.431  0.00  0.00    +0.000 A 
ATOM      8  C   UNL     1      47.239   6.194  12.564  0.00  0.00    +0.000 A 
ATOM      9  C   UNL     1      45.982   6.089  11.935  0.00  0.00    +0.000 A 
BRANCH   8  10
ATOM     10  C   UNL     1      48.156   7.317  12.251  0.00  0.00    +0.000 A 
ATOM     11  C   UNL     1      47.659   8.608  11.982  0.00  0.00    +0.000 A 
ATOM     12  C   UNL     1      48.515   9.696  11.760  0.00  0.00    +0.000 A 
ATOM     13  C   UNL     1      49.889   9.520  11.819  0.00  0.00    +0.000 A 
ATOM     14  C   UNL     1      50.399   8.256  12.081  0.00  0.00    +0.000 A 
ATOM     15  C   UNL     1      49.553   7.162  12.277  0.00  0.00    +0.000 A 
BRANCH  14  16
ATOM     16  O   UNL     1      51.744   8.045  12.178  0.00  0.00    +0.000 OA
ATOM     17  H   UNL     1      51.902   7.333  12.820  0.00  0.00    +0.000 HD
ENDBRANCH  14  16
ENDBRANCH   8  10
ENDBRANCH   1   4
BRANCH   1  18
ATOM     18  O   UNL     1      43.752   3.688  10.430  0.00  0.00    +0.000 OA
BRANCH  18  22
ATOM     19  C   UNL     1      46.564   2.734   7.506  0.00  0.00    +0.000 A 
ATOM     20  C   UNL     1      46.214   4.077   7.683  0.00  0.00    +0.000 A 
ATOM     21  C   UNL     1      45.298   4.441   8.674  0.00  0.00    +0.000 A 
ATOM     22  C   UNL     1      44.721   3.469   9.488  0.00  0.00    +0.000 A 
ATOM     23  C   UNL     1      45.099   2.132   9.336  0.00  0.00    +0.000 A 
ATOM     24  C   UNL     1      46.009   1.760   8.344  0.00  0.00    +0.000 A 
BRANCH  19  26
ATOM     25  N   UNL     1      47.355   2.976   5.215  0.00  0.00    +0.000 N 
ATOM     26  C   UNL     1      47.459   2.303   6.403  0.00  0.00    +0.000 C 
ATOM     27  O   UNL     1      48.260   1.388   6.544  0.00  0.00    +0.000 OA
ATOM     28  H   UNL     1      48.013   2.711   4.491  0.00  0.00    +0.000 HD
ATOM     29  H   UNL     1      46.898   3.870   5.135  0.00  0.00    +0.000 HD
ENDBRANCH  19  26
ENDBRANCH  18  22
ENDBRANCH   1  18
TORSDOF 6
ENDMDL
MODEL 3
REMARK VINA RESULT:    -8.956      2.744      7.662
REMARK INTER + INTRA:         -11.905
REMARK INTER:                 -10.781
REMARK INTRA:                  -1.124
REMARK UNBOUND:                -0.070
REMARK  Name = 
REMARK  6 active torsions:
REMARK  status: ('A' for Active; 'I' for Inactive)
REMARK    1  A    between atoms: C_2  and  C_4
REMARK    2  A    between atoms: C_7  and  O_8
REMARK    3  A    between atoms: O_8  and  C_9
REMARK    4  A    between atoms: C_9  and  C_10
REMARK    5  A    between atoms: C_14  and  C_15
REMARK    6  A    between atoms: C_19  and  O_20
REMARK                            x       y       z     vdW  Elec       q    Type
REMARK                         _______ _______ _______ _____ _____    ______ ____
ROOT
ATOM      1  C   UNL     1      46.122   7.193  12.226  0.00  0.00    +0.000 C 
ATOM      2  C   UNL     1      46.192   8.602  11.651  0.00  0.00    +0.000 C 
ATOM      3  C   UNL     1      45.489   8.369  12.946  0.00  0.00    +0.000 C 
ENDROOT
BRANCH   1   4
ATOM      4  C   UNL     1      45.257   6.160  11.525  0.00  0.00    +0.000 A 
ATOM      5  C   UNL     1      43.873   6.117  11.737  0.00  0.00    +0.000 A 
ATOM      6  C   UNL     1      43.062   5.227  11.033  0.00  0.00    +0.000 A 
ATOM      7  C   UNL     1      43.624   4.366  10.087  0.00  0.00    +0.000 A 
ATOM      8  C   UNL     1      45.001   4.375   9.821  0.00  0.00    +0.000 A 
ATOM      9  C   UNL     1      45.790   5.264  10.577  0.00  0.00    +0.000 A 
BRANCH   8  10
ATOM     10  C   UNL     1      45.600   3.552   8.742  0.00  0.00    +0.000 A 
ATOM     11  C   UNL     1      46.155   4.151   7.594  0.00  0.00    +0.000 A 
ATOM     12  C   UNL     1      46.793   3.393   6.602  0.00  0.00    +0.000 A 
ATOM     13  C   UNL     1      46.905   2.019   6.745  0.00  0.00    +0.000 A 
ATOM     14  C   UNL     1      46.365   1.408   7.867  0.00  0.00    +0.000 A 
ATOM     15  C   UNL     1      45.705   2.154   8.847  0.00  0.00    +0.000 A 
BRANCH  14  16
ATOM     16  O   UNL     1      46.480   0.063   8.062  0.00  0.00    +0.000 OA
ATOM     17  H   UNL     1      47.391  -0.135   8.338  0.00  0.00    +0.000 HD
ENDBRANCH  14  16
ENDBRANCH   8  10
ENDBRANCH   1   4
BRANCH   1  18
ATOM     18  O   UNL     1      47.439   6.745  12.636  0.00  0.00    +0.000 OA
BRANCH  18  22
ATOM     19  C   UNL     1      47.903   4.776  16.279  0.00  0.00    +0.000 A 
ATOM     20  C   UNL     1      47.130   4.167  15.285  0.00  0.00    +0.000 A 
ATOM     21  C   UNL     1      46.975   4.781  14.038  0.00  0.00    +0.000 A 
ATOM     22  C   UNL     1      47.584   6.006  13.780  0.00  0.00    +0.000 A 
ATOM     23  C   UNL     1      48.387   6.596  14.760  0.00  0.00    +0.000 A 
ATOM     24  C   UNL     1      48.540   5.992  16.009  0.00  0.00    +0.000 A 
BRANCH  19  26
ATOM     25  N   UNL     1      47.196   3.139  17.938  0.00  0.00    +0.000 N 
ATOM     26  C   UNL     1      48.009   4.200  17.643  0.00  0.00    +0.000 C 
ATOM     27  O   UNL     1      48.791   4.648  18.472  0.00  0.00    +0.000 OA
ATOM     28  H   UNL     1      47.323   2.718  18.852  0.00  0.00    +0.000 HD
ATOM     29  H   UNL     1      46.730   2.596  17.228  0.00  0.00    +0.000 HD
ENDBRANCH  19  26
ENDBRANCH  18  22
ENDBRANCH   1  18
TORSDOF 6
ENDMDL
MODEL 4
REMARK VINA RESULT:    -8.775      2.429      3.221
REMARK INTER + INTRA:         -11.667
REMARK INTER:                 -11.275
REMARK INTRA:                  -0.391
REMARK UNBOUND:                -0.070
REMARK  Name = 
REMARK  6 active torsions:
REMARK  status: ('A' for Active; 'I' for Inactive)
REMARK    1  A    between atoms: C_2  and  C_4
REMARK    2  A    between atoms: C_7  and  O_8
REMARK    3  A    between atoms: O_8  and  C_9
REMARK    4  A    between atoms: C_9  and  C_10
REMARK    5  A    between atoms: C_14  and  C_15
REMARK    6  A    between atoms: C_19  and  O_20
REMARK                            x       y       z     vdW  Elec       q    Type
REMARK                         _______ _______ _______ _____ _____    ______ ____
ROOT
ATOM      1  C   UNL     1      44.246   4.226  11.610  0.00  0.00    +0.000 C 
ATOM      2  C   UNL     1      44.974   3.194  12.461  0.00  0.00    +0.000 C 
ATOM      3  C   UNL     1      43.617   3.660  12.870  0.00  0.00    +0.000 C 
ENDROOT
BRANCH   1   4
ATOM      4  C   UNL     1      44.771   5.650  11.581  0.00  0.00    +0.000 A 
ATOM      5  C   UNL     1      43.908   6.731  11.358  0.00  0.00    +0.000 A 
ATOM      6  C   UNL     1      44.368   8.046  11.415  0.00  0.00    +0.000 A 
ATOM      7  C   UNL     1      45.708   8.308  11.711  0.00  0.00    +0.000 A 
ATOM      8  C   UNL     1      46.615   7.267  11.958  0.00  0.00    +0.000 A 
ATOM      9  C   UNL     1      46.119   5.952  11.858  0.00  0.00    +0.000 A 
BRANCH   8  10
ATOM     10  C   UNL     1      48.012   7.525  12.386  0.00  0.00    +0.000 A 
ATOM     11  C   UNL     1      48.858   8.365  11.635  0.00  0.00    +0.000 A 
ATOM     12  C   UNL     1      50.155   8.680  12.065  0.00  0.00    +0.000 A 
ATOM     13  C   UNL     1      50.629   8.174  13.266  0.00  0.00    +0.000 A 
ATOM     14  C   UNL     1      49.812   7.343  14.020  0.00  0.00    +0.000 A 
ATOM     15  C   UNL     1      48.529   7.004  13.585  0.00  0.00    +0.000 A 
BRANCH  14  16
ATOM     16  O   UNL     1      50.227   6.849  15.222  0.00  0.00    +0.000 OA
ATOM     17  H   UNL     1      50.801   7.508  15.648  0.00  0.00    +0.000 HD
ENDBRANCH  14  16
ENDBRANCH   8  10
ENDBRANCH   1   4
BRANCH   1  18
ATOM     18  O   UNL     1      43.879   3.659  10.327  0.00  0.00    +0.000 OA
BRANCH  18  22
ATOM     19  C   UNL     1      46.658   2.697   7.375  0.00  0.00    +0.000 A 
ATOM     20  C   UNL     1      46.347   4.045   7.585  0.00  0.00    +0.000 A 
ATOM     21  C   UNL     1      45.442   4.411   8.586  0.00  0.00    +0.000 A 
ATOM     22  C   UNL     1      44.840   3.436   9.377  0.00  0.00    +0.000 A 
ATOM     23  C   UNL     1      45.180   2.093   9.192  0.00  0.00    +0.000 A 
ATOM     24  C   UNL     1      46.077   1.720   8.190  0.00  0.00    +0.000 A 
BRANCH  19  26
ATOM     25  N   UNL     1      47.426   2.947   5.077  0.00  0.00    +0.000 N 
ATOM     26  C   UNL     1      47.539   2.268   6.260  0.00  0.00    +0.000 C 
ATOM     27  O   UNL     1      48.338   1.348   6.387  0.00  0.00    +0.000 OA
ATOM     28  H   UNL     1      48.075   2.683   4.344  0.00  0.00    +0.000 HD
ATOM     29  H   UNL     1      46.972   3.844   5.006  0.00  0.00    +0.000 HD
ENDBRANCH  19  26
ENDBRANCH  18  22
ENDBRANCH   1  18
TORSDOF 6
ENDMDL
MODEL 5
REMARK VINA RESULT:    -8.505      2.826      7.828
REMARK INTER + INTRA:         -11.310
REMARK INTER:                 -10.289
REMARK INTRA:                  -1.021
REMARK UNBOUND:                -0.070
REMARK  Name = 
REMARK  6 active torsions:
REMARK  status: ('A' for Active; 'I' for Inactive)
REMARK    1  A    between atoms: C_2  and  C_4
REMARK    2  A    between atoms: C_7  and  O_8
REMARK    3  A    between atoms: O_8  and  C_9
REMARK    4  A    between atoms: C_9  and  C_10
REMARK    5  A    between atoms: C_14  and  C_15
REMARK    6  A    between atoms: C_19  and  O_20
REMARK                            x       y       z     vdW  Elec       q    Type
REMARK                         _______ _______ _______ _____ _____    ______ ____
ROOT
ATOM      1  C   UNL     1      46.304   7.325  12.348  0.00  0.00    +0.000 C 
ATOM      2  C   UNL     1      46.463   8.727  11.773  0.00  0.00    +0.000 C 
ATOM      3  C   UNL     1      45.739   8.538  13.064  0.00  0.00    +0.000 C 
ENDROOT
BRANCH   1   4
ATOM      4  C   UNL     1      45.382   6.347  11.643  0.00  0.00    +0.000 A 
ATOM      5  C   UNL     1      43.990   6.440  11.782  0.00  0.00    +0.000 A 
ATOM      6  C   UNL     1      43.136   5.599  11.071  0.00  0.00    +0.000 A 
ATOM      7  C   UNL     1      43.660   4.649  10.191  0.00  0.00    +0.000 A 
ATOM      8  C   UNL     1      45.043   4.519   9.999  0.00  0.00    +0.000 A 
ATOM      9  C   UNL     1      45.874   5.364  10.761  0.00  0.00    +0.000 A 
BRANCH   8  10
ATOM     10  C   UNL     1      45.615   3.597   8.987  0.00  0.00    +0.000 A 
ATOM     11  C   UNL     1      45.527   2.200   9.145  0.00  0.00    +0.000 A 
ATOM     12  C   UNL     1      45.994   1.316   8.162  0.00  0.00    +0.000 A 
ATOM     13  C   UNL     1      46.545   1.811   6.991  0.00  0.00    +0.000 A 
ATOM     14  C   UNL     1      46.642   3.184   6.816  0.00  0.00    +0.000 A 
ATOM     15  C   UNL     1      46.203   4.070   7.802  0.00  0.00    +0.000 A 
BRANCH  14  16
ATOM     16  O   UNL     1      47.149   3.714   5.665  0.00  0.00    +0.000 OA
ATOM     17  H   UNL     1      48.103   3.533   5.632  0.00  0.00    +0.000 HD
ENDBRANCH  14  16
ENDBRANCH   8  10
ENDBRANCH   1   4
BRANCH   1  18
ATOM     18  O   UNL     1      47.588   6.798  12.765  0.00  0.00    +0.000 OA
BRANCH  18  22
ATOM     19  C   UNL     1      47.956   4.757  16.380  0.00  0.00    +0.000 A 
ATOM     20  C   UNL     1      48.657   5.957  16.217  0.00  0.00    +0.000 A 
ATOM     21  C   UNL     1      48.536   6.687  15.031  0.00  0.00    +0.000 A 
ATOM     22  C   UNL     1      47.722   6.222  14.001  0.00  0.00    +0.000 A 
ATOM     23  C   UNL     1      46.993   5.043  14.179  0.00  0.00    +0.000 A 
ATOM     24  C   UNL     1      47.115   4.305  15.358  0.00  0.00    +0.000 A 
BRANCH  19  26
ATOM     25  N   UNL     1      47.191   2.949  17.822  0.00  0.00    +0.000 N 
ATOM     26  C   UNL     1      48.137   3.910  17.585  0.00  0.00    +0.000 C 
ATOM     27  O   UNL     1      49.092   4.056  18.338  0.00  0.00    +0.000 OA
ATOM     28  H   UNL     1      47.359   2.340  18.614  0.00  0.00    +0.000 HD
ATOM     29  H   UNL     1      46.542   2.639  17.116  0.00  0.00    +0.000 HD
ENDBRANCH  19  26
ENDBRANCH  18  22
ENDBRANCH   1  18
TORSDOF 6
ENDMDL
MODEL 6
REMARK VINA RESULT:    -8.031      2.776      4.519
REMARK INTER + INTRA:         -10.683
REMARK INTER:                  -9.500
REMARK INTRA:                  -1.183
REMARK UNBOUND:                -0.070
REMARK  Name = 
REMARK  6 active torsions:
REMARK  status: ('A' for Active; 'I' for Inactive)
REMARK    1  A    between atoms: C_2  and  C_4
REMARK    2  A    between atoms: C_7  and  O_8
REMARK    3  A    between atoms: O_8  and  C_9
REMARK    4  A    between atoms: C_9  and  C_10
REMARK    5  A    between atoms: C_14  and  C_15
REMARK    6  A    between atoms: C_19  and  O_20
REMARK                            x       y       z     vdW  Elec       q    Type
REMARK                         _______ _______ _______ _____ _____    ______ ____
ROOT
ATOM      1  C   UNL     1      48.115   8.064  12.478  0.00  0.00    +0.000 C 
ATOM      2  C   UNL     1      48.964   8.998  11.626  0.00  0.00    +0.000 C 
ATOM      3  C   UNL     1      49.140   7.522  11.499  0.00  0.00    +0.000 C 
ENDROOT
BRANCH   1   4
ATOM      4  C   UNL     1      48.369   8.006  13.973  0.00  0.00    +0.000 A 
ATOM      5  C   UNL     1      48.336   9.168  14.756  0.00  0.00    +0.000 A 
ATOM      6  C   UNL     1      48.484   9.110  16.141  0.00  0.00    +0.000 A 
ATOM      7  C   UNL     1      48.656   7.878  16.777  0.00  0.00    +0.000 A 
ATOM      8  C   UNL     1      48.683   6.680  16.047  0.00  0.00    +0.000 A 
ATOM      9  C   UNL     1      48.564   6.783  14.647  0.00  0.00    +0.000 A 
BRANCH   8  10
ATOM     10  C   UNL     1      48.750   5.355  16.711  0.00  0.00    +0.000 A 
ATOM     11  C   UNL     1      49.954   4.882  17.268  0.00  0.00    +0.000 A 
ATOM     12  C   UNL     1      50.016   3.667  17.966  0.00  0.00    +0.000 A 
ATOM     13  C   UNL     1      48.870   2.906  18.136  0.00  0.00    +0.000 A 
ATOM     14  C   UNL     1      47.674   3.353  17.594  0.00  0.00    +0.000 A 
ATOM     15  C   UNL     1      47.610   4.549  16.875  0.00  0.00    +0.000 A 
BRANCH  14  16
ATOM     16  O   UNL     1      46.517   2.651  17.764  0.00  0.00    +0.000 OA
ATOM     17  H   UNL     1      46.298   2.636  18.711  0.00  0.00    +0.000 HD
ENDBRANCH  14  16
ENDBRANCH   8  10
ENDBRANCH   1   4
BRANCH   1  18
ATOM     18  O   UNL     1      46.724   8.130  12.073  0.00  0.00    +0.000 OA
BRANCH  18  22
ATOM     19  C   UNL     1      44.654   4.540  11.638  0.00  0.00    +0.000 A 
ATOM     20  C   UNL     1      44.667   5.155  12.895  0.00  0.00    +0.000 A 
ATOM     21  C   UNL     1      45.325   6.376  13.075  0.00  0.00    +0.000 A 
ATOM     22  C   UNL     1      45.977   6.985  12.005  0.00  0.00    +0.000 A 
ATOM     23  C   UNL     1      45.931   6.389  10.742  0.00  0.00    +0.000 A 
ATOM     24  C   UNL     1      45.282   5.167  10.557  0.00  0.00    +0.000 A 
BRANCH  19  26
ATOM     25  N   UNL     1      43.815   2.444  12.553  0.00  0.00    +0.000 N 
ATOM     26  C   UNL     1      44.048   3.200  11.436  0.00  0.00    +0.000 C 
ATOM     27  O   UNL     1      43.764   2.784  10.320  0.00  0.00    +0.000 OA
ATOM     28  H   UNL     1      43.347   1.557  12.405  0.00  0.00    +0.000 HD
ATOM     29  H   UNL     1      43.805   2.835  13.482  0.00  0.00    +0.000 HD
ENDBRANCH  19  26
ENDBRANCH  18  22
ENDBRANCH   1  18
TORSDOF 6
ENDMDL
MODEL 7
REMARK VINA RESULT:    -8.017      3.153      7.427
REMARK INTER + INTRA:         -10.664
REMARK INTER:                  -9.500
REMARK INTRA:                  -1.164
REMARK UNBOUND:                -0.070
REMARK  Name = 
REMARK  6 active torsions:
REMARK  status: ('A' for Active; 'I' for Inactive)
REMARK    1  A    between atoms: C_2  and  C_4
REMARK    2  A    between atoms: C_7  and  O_8
REMARK    3  A    between atoms: O_8  and  C_9
REMARK    4  A    between atoms: C_9  and  C_10
REMARK    5  A    between atoms: C_14  and  C_15
REMARK    6  A    between atoms: C_19  and  O_20
REMARK                            x       y       z     vdW  Elec       q    Type
REMARK                         _______ _______ _______ _____ _____    ______ ____
ROOT
ATOM      1  C   UNL     1      46.167   5.090  13.167  0.00  0.00    +0.000 C 
ATOM      2  C   UNL     1      45.869   4.347  14.462  0.00  0.00    +0.000 C 
ATOM      3  C   UNL     1      47.123   4.046  13.712  0.00  0.00    +0.000 C 
ENDROOT
BRANCH   1   4
ATOM      4  C   UNL     1      45.317   4.796  11.943  0.00  0.00    +0.000 A 
ATOM      5  C   UNL     1      44.054   5.383  11.785  0.00  0.00    +0.000 A 
ATOM      6  C   UNL     1      43.306   5.185  10.626  0.00  0.00    +0.000 A 
ATOM      7  C   UNL     1      43.816   4.400   9.588  0.00  0.00    +0.000 A 
ATOM      8  C   UNL     1      45.080   3.799   9.683  0.00  0.00    +0.000 A 
ATOM      9  C   UNL     1      45.790   3.996  10.884  0.00  0.00    +0.000 A 
BRANCH   8  10
ATOM     10  C   UNL     1      45.687   3.058   8.551  0.00  0.00    +0.000 A 
ATOM     11  C   UNL     1      46.109   3.730   7.387  0.00  0.00    +0.000 A 
ATOM     12  C   UNL     1      46.754   3.056   6.340  0.00  0.00    +0.000 A 
ATOM     13  C   UNL     1      47.006   1.697   6.442  0.00  0.00    +0.000 A 
ATOM     14  C   UNL     1      46.597   1.016   7.580  0.00  0.00    +0.000 A 
ATOM     15  C   UNL     1      45.931   1.676   8.615  0.00  0.00    +0.000 A 
BRANCH  14  16
ATOM     16  O   UNL     1      46.853  -0.315   7.735  0.00  0.00    +0.000 OA
ATOM     17  H   UNL     1      47.553  -0.423   8.400  0.00  0.00    +0.000 HD
ENDBRANCH  14  16
ENDBRANCH   8  10
ENDBRANCH   1   4
BRANCH   1  18
ATOM     18  O   UNL     1      46.431   6.491  13.433  0.00  0.00    +0.000 OA
BRANCH  18  22
ATOM     19  C   UNL     1      50.169   8.032  12.422  0.00  0.00    +0.000 A 
ATOM     20  C   UNL     1      49.216   7.875  11.410  0.00  0.00    +0.000 A 
ATOM     21  C   UNL     1      47.940   7.390  11.714  0.00  0.00    +0.000 A 
ATOM     22  C   UNL     1      47.611   7.054  13.025  0.00  0.00    +0.000 A 
ATOM     23  C   UNL     1      48.551   7.246  14.041  0.00  0.00    +0.000 A 
ATOM     24  C   UNL     1      49.829   7.723  13.744  0.00  0.00    +0.000 A 
BRANCH  19  26
ATOM     25  N   UNL     1      52.536   8.057  12.995  0.00  0.00    +0.000 N 
ATOM     26  C   UNL     1      51.560   8.452  12.120  0.00  0.00    +0.000 C 
ATOM     27  O   UNL     1      51.831   9.120  11.130  0.00  0.00    +0.000 OA
ATOM     28  H   UNL     1      53.488   8.300  12.744  0.00  0.00    +0.000 HD
ATOM     29  H   UNL     1      52.398   7.320  13.668  0.00  0.00    +0.000 HD
ENDBRANCH  19  26
ENDBRANCH  18  22
ENDBRANCH   1  18
TORSDOF 6
ENDMDL
MODEL 8
REMARK VINA RESULT:    -7.654      3.602      8.439
REMARK INTER + INTRA:         -10.184
REMARK INTER:                  -9.056
REMARK INTRA:                  -1.128
REMARK UNBOUND:                -0.070
REMARK  Name = 
REMARK  6 active torsions:
REMARK  status: ('A' for Active; 'I' for Inactive)
REMARK    1  A    between atoms: C_2  and  C_4
REMARK    2  A    between atoms: C_7  and  O_8
REMARK    3  A    between atoms: O_8  and  C_9
REMARK    4  A    between atoms: C_9  and  C_10
REMARK    5  A    between atoms: C_14  and  C_15
REMARK    6  A    between atoms: C_19  and  O_20
REMARK                            x       y       z     vdW  Elec       q    Type
REMARK                         _______ _______ _______ _____ _____    ______ ____
ROOT
ATOM      1  C   UNL     1      49.002   7.616  13.159  0.00  0.00    +0.000 C 
ATOM      2  C   UNL     1      50.073   7.774  12.087  0.00  0.00    +0.000 C 
ATOM      3  C   UNL     1      49.787   8.907  13.016  0.00  0.00    +0.000 C 
ENDROOT
BRANCH   1   4
ATOM      4  C   UNL     1      47.547   7.547  12.733  0.00  0.00    +0.000 A 
ATOM      5  C   UNL     1      46.682   8.629  12.943  0.00  0.00    +0.000 A 
ATOM      6  C   UNL     1      45.368   8.604  12.479  0.00  0.00    +0.000 A 
ATOM      7  C   UNL     1      44.893   7.493  11.778  0.00  0.00    +0.000 A 
ATOM      8  C   UNL     1      45.716   6.386  11.524  0.00  0.00    +0.000 A 
ATOM      9  C   UNL     1      47.027   6.435  12.039  0.00  0.00    +0.000 A 
BRANCH   8  10
ATOM     10  C   UNL     1      45.269   5.247  10.685  0.00  0.00    +0.000 A 
ATOM     11  C   UNL     1      45.671   5.134   9.340  0.00  0.00    +0.000 A 
ATOM     12  C   UNL     1      45.320   4.026   8.556  0.00  0.00    +0.000 A 
ATOM     13  C   UNL     1      44.572   2.997   9.107  0.00  0.00    +0.000 A 
ATOM     14  C   UNL     1      44.166   3.089  10.431  0.00  0.00    +0.000 A 
ATOM     15  C   UNL     1      44.489   4.202  11.209  0.00  0.00    +0.000 A 
BRANCH  14  16
ATOM     16  O   UNL     1      43.455   2.084  11.021  0.00  0.00    +0.000 OA
ATOM     17  H   UNL     1      43.469   2.217  11.984  0.00  0.00    +0.000 HD
ENDBRANCH  14  16
ENDBRANCH   8  10
ENDBRANCH   1   4
BRANCH   1  18
ATOM     18  O   UNL     1      49.419   6.648  14.154  0.00  0.00    +0.000 OA
BRANCH  18  22
ATOM     19  C   UNL     1      48.196   6.702  18.138  0.00  0.00    +0.000 A 
ATOM     20  C   UNL     1      48.575   7.908  17.540  0.00  0.00    +0.000 A 
ATOM     21  C   UNL     1      48.963   7.938  16.197  0.00  0.00    +0.000 A 
ATOM     22  C   UNL     1      48.980   6.764  15.446  0.00  0.00    +0.000 A 
ATOM     23  C   UNL     1      48.565   5.566  16.034  0.00  0.00    +0.000 A 
ATOM     24  C   UNL     1      48.183   5.529  17.376  0.00  0.00    +0.000 A 
BRANCH  19  26
ATOM     25  N   UNL     1      47.145   5.538  20.002  0.00  0.00    +0.000 N 
ATOM     26  C   UNL     1      47.872   6.620  19.584  0.00  0.00    +0.000 C 
ATOM     27  O   UNL     1      48.240   7.479  20.376  0.00  0.00    +0.000 OA
ATOM     28  H   UNL     1      46.984   5.464  21.000  0.00  0.00    +0.000 HD
ATOM     29  H   UNL     1      47.038   4.706  19.443  0.00  0.00    +0.000 HD
ENDBRANCH  19  26
ENDBRANCH  18  22
ENDBRANCH   1  18
TORSDOF 6
ENDMDL
MODEL 9
REMARK VINA RESULT:    -7.448      2.747      4.547
REMARK INTER + INTRA:          -9.912
REMARK INTER:                  -8.910
REMARK INTRA:                  -1.002
REMARK UNBOUND:                -0.070
REMARK  Name = 
REMARK  6 active torsions:
REMARK  status: ('A' for Active; 'I' for Inactive)
REMARK    1  A    between atoms: C_2  and  C_4
REMARK    2  A    between atoms: C_7  and  O_8
REMARK    3  A    between atoms: O_8  and  C_9
REMARK    4  A    between atoms: C_9  and  C_10
REMARK    5  A    between atoms: C_14  and  C_15
REMARK    6  A    between atoms: C_19  and  O_20
REMARK                            x       y       z     vdW  Elec       q    Type
REMARK                         _______ _______ _______ _____ _____    ______ ____
ROOT
ATOM      1  C   UNL     1      47.944   7.965  12.602  0.00  0.00    +0.000 C 
ATOM      2  C   UNL     1      48.625   9.050  11.778  0.00  0.00    +0.000 C 
ATOM      3  C   UNL     1      48.995   7.621  11.563  0.00  0.00    +0.000 C 
ENDROOT
BRANCH   1   4
ATOM      4  C   UNL     1      48.261   7.865  14.084  0.00  0.00    +0.000 A 
ATOM      5  C   UNL     1      48.284   9.008  14.894  0.00  0.00    +0.000 A 
ATOM      6  C   UNL     1      48.490   8.913  16.269  0.00  0.00    +0.000 A 
ATOM      7  C   UNL     1      48.666   7.663  16.868  0.00  0.00    +0.000 A 
ATOM      8  C   UNL     1      48.639   6.483  16.110  0.00  0.00    +0.000 A 
ATOM      9  C   UNL     1      48.462   6.623  14.719  0.00  0.00    +0.000 A 
BRANCH   8  10
ATOM     10  C   UNL     1      48.709   5.141  16.739  0.00  0.00    +0.000 A 
ATOM     11  C   UNL     1      47.587   4.290  16.760  0.00  0.00    +0.000 A 
ATOM     12  C   UNL     1      47.658   2.990  17.282  0.00  0.00    +0.000 A 
ATOM     13  C   UNL     1      48.859   2.507  17.778  0.00  0.00    +0.000 A 
ATOM     14  C   UNL     1      49.976   3.331  17.767  0.00  0.00    +0.000 A 
ATOM     15  C   UNL     1      49.906   4.635  17.274  0.00  0.00    +0.000 A 
BRANCH  14  16
ATOM     16  O   UNL     1      51.184   2.885  18.218  0.00  0.00    +0.000 OA
ATOM     17  H   UNL     1      51.888   3.343  17.729  0.00  0.00    +0.000 HD
ENDBRANCH  14  16
ENDBRANCH   8  10
ENDBRANCH   1   4
BRANCH   1  18
ATOM     18  O   UNL     1      46.543   7.858  12.245  0.00  0.00    +0.000 OA
BRANCH  18  22
ATOM     19  C   UNL     1      44.754   4.216  11.300  0.00  0.00    +0.000 A 
ATOM     20  C   UNL     1      45.330   4.964  10.268  0.00  0.00    +0.000 A 
ATOM     21  C   UNL     1      45.967   6.176  10.548  0.00  0.00    +0.000 A 
ATOM     22  C   UNL     1      46.026   6.651  11.856  0.00  0.00    +0.000 A 
ATOM     23  C   UNL     1      45.484   5.885  12.891  0.00  0.00    +0.000 A 
ATOM     24  C   UNL     1      44.841   4.677  12.617  0.00  0.00    +0.000 A 
BRANCH  19  26
ATOM     25  N   UNL     1      44.437   2.174  10.008  0.00  0.00    +0.000 N 
ATOM     26  C   UNL     1      43.988   2.974  11.025  0.00  0.00    +0.000 C 
ATOM     27  O   UNL     1      42.998   2.670  11.679  0.00  0.00    +0.000 OA
ATOM     28  H   UNL     1      43.940   1.302   9.872  0.00  0.00    +0.000 HD
ATOM     29  H   UNL     1      45.363   2.257   9.619  0.00  0.00    +0.000 HD
ENDBRANCH  19  26
ENDBRANCH  18  22
ENDBRANCH   1  18
TORSDOF 6
ENDMDL
