MODEL 1
REMARK VINA RESULT:    -9.190      0.000      0.000
REMARK INTER + INTRA:         -12.497
REMARK INTER:                 -11.876
REMARK INTRA:                  -0.621
REMARK UNBOUND:                -0.621
REMARK  Name = 
REMARK  5 active torsions:
REMARK  status: ('A' for Active; 'I' for Inactive)
REMARK    1  A    between atoms: C_2  and  C_4
REMARK    2  A    between atoms: C_7  and  C_8
REMARK    3  A    between atoms: C_8  and  S_9
REMARK    4  A    between atoms: S_9  and  C_10
REMARK    5  A    between atoms: C_15  and  C_16
REMARK                            x       y       z     vdW  Elec       q    Type
REMARK                         _______ _______ _______ _____ _____    ______ ____
ROOT
ATOM      1  C   UNL     1      45.133   4.980  12.477  0.00  0.00    +0.000 A 
ATOM      2  C   UNL     1      45.900   5.899  11.759  0.00  0.00    +0.000 A 
ATOM      3  C   UNL     1      47.108   6.344  12.286  0.00  0.00    +0.000 A 
ATOM      4  F   UNL     1      47.851   7.208  11.581  0.00  0.00    +0.000 F 
ATOM      5  C   UNL     1      47.577   5.889  13.515  0.00  0.00    +0.000 A 
ATOM      6  C   UNL     1      46.822   4.972  14.257  0.00  0.00    +0.000 A 
ATOM      7  C   UNL     1      45.600   4.524  13.719  0.00  0.00    +0.000 A 
ENDROOT
BRANCH   6   8
ATOM      8  C   UNL     1      47.323   4.406  15.575  0.00  0.00    +0.000 C 
ATOM      9  C   UNL     1      48.320   5.346  16.274  0.00  0.00    +0.000 C 
ATOM     10  C   UNL     1      48.810   4.742  17.589  0.00  0.00    +0.000 C 
ATOM     11  C   UNL     1      49.339   3.328  17.369  0.00  0.00    +0.000 C 
ATOM     12  C   UNL     1      48.327   2.465  16.620  0.00  0.00    +0.000 C 
ATOM     13  N   UNL     1      47.927   3.084  15.357  0.00  0.00    +0.000 NA
ATOM     14  H   UNL     1      47.246   2.484  14.889  0.00  0.00    +0.000 HD
ENDBRANCH   6   8
BRANCH   1  15
ATOM     15  S   UNL     1      43.654   4.230  11.818  0.00  0.00    +0.000 S 
BRANCH  15  16
ATOM     16  C   UNL     1      43.692   4.762  10.065  0.00  0.00    +0.000 C 
BRANCH  16  20
ATOM     17  C   UNL     1      46.416   2.427   7.731  0.00  0.00    +0.000 A 
ATOM     18  C   UNL     1      45.624   1.786   8.681  0.00  0.00    +0.000 A 
ATOM     19  C   UNL     1      44.742   2.540   9.454  0.00  0.00    +0.000 A 
ATOM     20  C   UNL     1      44.659   3.921   9.252  0.00  0.00    +0.000 A 
ATOM     21  N   UNL     1      45.442   4.561   8.348  0.00  0.00    +0.000 NA
ATOM     22  C   UNL     1      46.304   3.807   7.616  0.00  0.00    +0.000 A 
BRANCH  17  24
ATOM     23  N   UNL     1      48.469   2.407   6.431  0.00  0.00    +0.000 N 
ATOM     24  C   UNL     1      47.377   1.708   6.869  0.00  0.00    +0.000 C 
ATOM     25  O   UNL     1      47.222   0.530   6.581  0.00  0.00    +0.000 OA
ATOM     26  H   UNL     1      49.169   1.875   5.927  0.00  0.00    +0.000 HD
ATOM     27  H   UNL     1      48.759   3.281   6.845  0.00  0.00    +0.000 HD
ENDBRANCH  17  24
ENDBRANCH  16  20
ENDBRANCH  15  16
ENDBRANCH   1  15
TORSDOF 5
ENDMDL
MODEL 2
REMARK VINA RESULT:    -8.730      0.851      1.181
REMARK INTER + INTRA:         -11.903
REMARK INTER:                 -11.263
REMARK INTRA:                  -0.640
REMARK UNBOUND:                -0.621
REMARK  Name = 
REMARK  5 active torsions:
REMARK  status: ('A' for Active; 'I' for Inactive)
REMARK    1  A    between atoms: C_2  and  C_4
REMARK    2  A    between atoms: C_7  and  C_8
REMARK    3  A    between atoms: C_8  and  S_9
REMARK    4  A    between atoms: S_9  and  C_10
REMARK    5  A    between atoms: C_15  and  C_16
REMARK                            x       y       z     vdW  Elec       q    Type
REMARK                         _______ _______ _______ _____ _____    ______ ____
ROOT
ATOM      1  C   UNL     1      45.374   5.176  12.527  0.00  0.00    +0.000 A 
ATOM      2  C   UNL     1      45.999   6.156  11.754  0.00  0.00    +0.000 A 
ATOM      3  C   UNL     1      47.196   6.714  12.190  0.00  0.00    +0.000 A 
ATOM      4  F   UNL     1      47.802   7.637  11.432  0.00  0.00    +0.000 F 
ATOM      5  C   UNL     1      47.793   6.313  13.381  0.00  0.00    +0.000 A 
ATOM      6  C   UNL     1      47.183   5.336  14.177  0.00  0.00    +0.000 A 
ATOM      7  C   UNL     1      45.971   4.774  13.731  0.00  0.00    +0.000 A 
ENDROOT
BRANCH   6   8
ATOM      8  C   UNL     1      47.828   4.828  15.455  0.00  0.00    +0.000 C 
ATOM      9  C   UNL     1      47.001   3.720  16.129  0.00  0.00    +0.000 C 
ATOM     10  C   UNL     1      47.673   3.241  17.415  0.00  0.00    +0.000 C 
ATOM     11  C   UNL     1      47.991   4.421  18.328  0.00  0.00    +0.000 C 
ATOM     12  C   UNL     1      48.760   5.510  17.585  0.00  0.00    +0.000 C 
ATOM     13  N   UNL     1      48.046   5.946  16.385  0.00  0.00    +0.000 NA
ATOM     14  H   UNL     1      48.593   6.666  15.911  0.00  0.00    +0.000 HD
ENDBRANCH   6   8
BRANCH   1  15
ATOM     15  S   UNL     1      43.926   4.289  11.979  0.00  0.00    +0.000 S 
BRANCH  15  16
ATOM     16  C   UNL     1      43.814   4.772  10.215  0.00  0.00    +0.000 C 
BRANCH  16  20
ATOM     17  C   UNL     1      46.436   2.463   7.743  0.00  0.00    +0.000 A 
ATOM     18  C   UNL     1      45.660   1.807   8.696  0.00  0.00    +0.000 A 
ATOM     19  C   UNL     1      44.810   2.553   9.514  0.00  0.00    +0.000 A 
ATOM     20  C   UNL     1      44.744   3.940   9.353  0.00  0.00    +0.000 A 
ATOM     21  N   UNL     1      45.514   4.593   8.445  0.00  0.00    +0.000 NA
ATOM     22  C   UNL     1      46.343   3.847   7.669  0.00  0.00    +0.000 A 
BRANCH  17  24
ATOM     23  N   UNL     1      48.463   2.441   6.404  0.00  0.00    +0.000 N 
ATOM     24  C   UNL     1      47.362   1.753   6.835  0.00  0.00    +0.000 C 
ATOM     25  O   UNL     1      47.171   0.592   6.505  0.00  0.00    +0.000 OA
ATOM     26  H   UNL     1      49.140   1.912   5.865  0.00  0.00    +0.000 HD
ATOM     27  H   UNL     1      48.784   3.291   6.845  0.00  0.00    +0.000 HD
ENDBRANCH  17  24
ENDBRANCH  16  20
ENDBRANCH  15  16
ENDBRANCH   1  15
TORSDOF 5
ENDMDL
MODEL 3
REMARK VINA RESULT:    -8.607      2.600      4.774
REMARK INTER + INTRA:         -11.744
REMARK INTER:                 -10.982
REMARK INTRA:                  -0.761
REMARK UNBOUND:                -0.621
REMARK  Name = 
REMARK  5 active torsions:
REMARK  status: ('A' for Active; 'I' for Inactive)
REMARK    1  A    between atoms: C_2  and  C_4
REMARK    2  A    between atoms: C_7  and  C_8
REMARK    3  A    between atoms: C_8  and  S_9
REMARK    4  A    between atoms: S_9  and  C_10
REMARK    5  A    between atoms: C_15  and  C_16
REMARK                            x       y       z     vdW  Elec       q    Type
REMARK                         _______ _______ _______ _____ _____    ______ ____
ROOT
ATOM      1  C   UNL     1      45.324   4.749  12.443  0.00  0.00    +0.000 A 
ATOM      2  C   UNL     1      46.422   4.789  13.303  0.00  0.00    +0.000 A 
ATOM      3  C   UNL     1      47.061   6.001  13.545  0.00  0.00    +0.000 A 
ATOM      4  F   UNL     1      48.099   6.037  14.390  0.00  0.00    +0.000 F 
ATOM      5  C   UNL     1      46.625   7.183  12.952  0.00  0.00    +0.000 A 
ATOM      6  C   UNL     1      45.529   7.167  12.081  0.00  0.00    +0.000 A 
ATOM      7  C   UNL     1      44.887   5.938  11.840  0.00  0.00    +0.000 A 
ENDROOT
BRANCH   6   8
ATOM      8  C   UNL     1      44.985   8.441  11.458  0.00  0.00    +0.000 C 
ATOM      9  C   UNL     1      45.286   9.685  12.312  0.00  0.00    +0.000 C 
ATOM     10  C   UNL     1      44.716  10.945  11.662  0.00  0.00    +0.000 C 
ATOM     11  C   UNL     1      43.239  10.761  11.331  0.00  0.00    +0.000 C 
ATOM     12  C   UNL     1      43.001   9.480  10.535  0.00  0.00    +0.000 C 
ATOM     13  N   UNL     1      43.539   8.311  11.228  0.00  0.00    +0.000 NA
ATOM     14  H   UNL     1      43.369   7.477  10.664  0.00  0.00    +0.000 HD
ENDBRANCH   6   8
BRANCH   1  15
ATOM     15  S   UNL     1      44.343   3.279  12.193  0.00  0.00    +0.000 S 
BRANCH  15  16
ATOM     16  C   UNL     1      43.649   3.551  10.519  0.00  0.00    +0.000 C 
BRANCH  16  20
ATOM     17  C   UNL     1      46.560   2.694   7.502  0.00  0.00    +0.000 A 
ATOM     18  C   UNL     1      46.162   4.015   7.696  0.00  0.00    +0.000 A 
ATOM     19  C   UNL     1      45.205   4.302   8.669  0.00  0.00    +0.000 A 
ATOM     20  C   UNL     1      44.675   3.263   9.440  0.00  0.00    +0.000 A 
ATOM     21  N   UNL     1      45.037   1.970   9.245  0.00  0.00    +0.000 NA
ATOM     22  C   UNL     1      45.961   1.713   8.281  0.00  0.00    +0.000 A 
BRANCH  17  24
ATOM     23  N   UNL     1      47.546   2.959   5.296  0.00  0.00    +0.000 N 
ATOM     24  C   UNL     1      47.567   2.298   6.495  0.00  0.00    +0.000 C 
ATOM     25  O   UNL     1      48.405   1.439   6.729  0.00  0.00    +0.000 OA
ATOM     26  H   UNL     1      48.302   2.750   4.655  0.00  0.00    +0.000 HD
ATOM     27  H   UNL     1      47.049   3.828   5.161  0.00  0.00    +0.000 HD
ENDBRANCH  17  24
ENDBRANCH  16  20
ENDBRANCH  15  16
ENDBRANCH   1  15
TORSDOF 5
ENDMDL
MODEL 4
REMARK VINA RESULT:    -8.509      2.562      4.002
REMARK INTER + INTRA:         -11.618
REMARK INTER:                 -10.852
REMARK INTRA:                  -0.765
REMARK UNBOUND:                -0.621
REMARK  Name = 
REMARK  5 active torsions:
REMARK  status: ('A' for Active; 'I' for Inactive)
REMARK    1  A    between atoms: C_2  and  C_4
REMARK    2  A    between atoms: C_7  and  C_8
REMARK    3  A    between atoms: C_8  and  S_9
REMARK    4  A    between atoms: S_9  and  C_10
REMARK    5  A    between atoms: C_15  and  C_16
REMARK                            x       y       z     vdW  Elec       q    Type
REMARK                         _______ _______ _______ _____ _____    ______ ____
ROOT
ATOM      1  C   UNL     1      45.175   5.328  11.982  0.00  0.00    +0.000 A 
ATOM      2  C   UNL     1      45.417   4.718  13.214  0.00  0.00    +0.000 A 
ATOM      3  C   UNL     1      46.566   5.043  13.927  0.00  0.00    +0.000 A 
ATOM      4  F   UNL     1      46.780   4.472  15.120  0.00  0.00    +0.000 F 
ATOM      5  C   UNL     1      47.482   5.973  13.444  0.00  0.00    +0.000 A 
ATOM      6  C   UNL     1      47.264   6.595  12.208  0.00  0.00    +0.000 A 
ATOM      7  C   UNL     1      46.100   6.261  11.491  0.00  0.00    +0.000 A 
ENDROOT
BRANCH   6   8
ATOM      8  C   UNL     1      48.209   7.655  11.671  0.00  0.00    +0.000 C 
ATOM      9  C   UNL     1      49.670   7.401  12.081  0.00  0.00    +0.000 C 
ATOM     10  C   UNL     1      50.589   8.491  11.532  0.00  0.00    +0.000 C 
ATOM     11  C   UNL     1      50.070   9.875  11.911  0.00  0.00    +0.000 C 
ATOM     12  C   UNL     1      48.600  10.042  11.532  0.00  0.00    +0.000 C 
ATOM     13  N   UNL     1      47.773   8.987  12.116  0.00  0.00    +0.000 NA
ATOM     14  H   UNL     1      46.802   9.127  11.834  0.00  0.00    +0.000 HD
ENDBRANCH   6   8
BRANCH   1  15
ATOM     15  S   UNL     1      43.659   5.098  11.069  0.00  0.00    +0.000 S 
BRANCH  15  16
ATOM     16  C   UNL     1      43.748   3.328  10.602  0.00  0.00    +0.000 C 
BRANCH  16  20
ATOM     17  C   UNL     1      46.502   2.659   7.395  0.00  0.00    +0.000 A 
ATOM     18  C   UNL     1      45.978   3.937   7.576  0.00  0.00    +0.000 A 
ATOM     19  C   UNL     1      45.071   4.162   8.612  0.00  0.00    +0.000 A 
ATOM     20  C   UNL     1      44.716   3.106   9.456  0.00  0.00    +0.000 A 
ATOM     21  N   UNL     1      45.199   1.851   9.275  0.00  0.00    +0.000 NA
ATOM     22  C   UNL     1      46.071   1.653   8.252  0.00  0.00    +0.000 A 
BRANCH  17  24
ATOM     23  N   UNL     1      47.416   3.083   5.184  0.00  0.00    +0.000 N 
ATOM     24  C   UNL     1      47.467   2.330   6.326  0.00  0.00    +0.000 C 
ATOM     25  O   UNL     1      48.299   1.444   6.463  0.00  0.00    +0.000 OA
ATOM     26  H   UNL     1      48.147   2.915   4.503  0.00  0.00    +0.000 HD
ATOM     27  H   UNL     1      46.929   3.966   5.134  0.00  0.00    +0.000 HD
ENDBRANCH  17  24
ENDBRANCH  16  20
ENDBRANCH  15  16
ENDBRANCH   1  15
TORSDOF 5
ENDMDL
MODEL 5
REMARK VINA RESULT:    -8.222      2.423      3.024
REMARK INTER + INTRA:         -11.246
REMARK INTER:                 -10.552
REMARK INTRA:                  -0.694
REMARK UNBOUND:                -0.621
REMARK  Name = 
REMARK  5 active torsions:
REMARK  status: ('A' for Active; 'I' for Inactive)
REMARK    1  A    between atoms: C_2  and  C_4
REMARK    2  A    between atoms: C_7  and  C_8
REMARK    3  A    between atoms: C_8  and  S_9
REMARK    4  A    between atoms: S_9  and  C_10
REMARK    5  A    between atoms: C_15  and  C_16
REMARK                            x       y       z     vdW  Elec       q    Type
REMARK                         _______ _______ _______ _____ _____    ______ ____
ROOT
ATOM      1  C   UNL     1      45.071   5.609  12.332  0.00  0.00    +0.000 A 
ATOM      2  C   UNL     1      44.358   6.540  11.576  0.00  0.00    +0.000 A 
ATOM      3  C   UNL     1      44.734   7.880  11.604  0.00  0.00    +0.000 A 
ATOM      4  F   UNL     1      44.061   8.764  10.857  0.00  0.00    +0.000 F 
ATOM      5  C   UNL     1      45.815   8.315  12.365  0.00  0.00    +0.000 A 
ATOM      6  C   UNL     1      46.542   7.401  13.137  0.00  0.00    +0.000 A 
ATOM      7  C   UNL     1      46.157   6.047  13.105  0.00  0.00    +0.000 A 
ENDROOT
BRANCH   6   8
ATOM      8  C   UNL     1      47.762   7.823  13.937  0.00  0.00    +0.000 C 
ATOM      9  C   UNL     1      48.409   6.644  14.684  0.00  0.00    +0.000 C 
ATOM     10  C   UNL     1      49.625   7.107  15.487  0.00  0.00    +0.000 C 
ATOM     11  C   UNL     1      49.262   8.287  16.384  0.00  0.00    +0.000 C 
ATOM     12  C   UNL     1      48.570   9.395  15.594  0.00  0.00    +0.000 C 
ATOM     13  N   UNL     1      47.398   8.893  14.879  0.00  0.00    +0.000 NA
ATOM     14  H   UNL     1      46.968   9.658  14.358  0.00  0.00    +0.000 HD
ENDBRANCH   6   8
BRANCH   1  15
ATOM     15  S   UNL     1      44.770   3.853  12.240  0.00  0.00    +0.000 S 
BRANCH  15  16
ATOM     16  C   UNL     1      43.872   3.692  10.651  0.00  0.00    +0.000 C 
BRANCH  16  20
ATOM     17  C   UNL     1      46.552   2.691   7.468  0.00  0.00    +0.000 A 
ATOM     18  C   UNL     1      46.204   4.026   7.659  0.00  0.00    +0.000 A 
ATOM     19  C   UNL     1      45.322   4.361   8.687  0.00  0.00    +0.000 A 
ATOM     20  C   UNL     1      44.816   3.353   9.513  0.00  0.00    +0.000 A 
ATOM     21  N   UNL     1      45.128   2.046   9.322  0.00  0.00    +0.000 NA
ATOM     22  C   UNL     1      45.978   1.743   8.306  0.00  0.00    +0.000 A 
BRANCH  17  24
ATOM     23  N   UNL     1      47.447   2.931   5.221  0.00  0.00    +0.000 N 
ATOM     24  C   UNL     1      47.479   2.246   6.406  0.00  0.00    +0.000 C 
ATOM     25  O   UNL     1      48.263   1.325   6.583  0.00  0.00    +0.000 OA
ATOM     26  H   UNL     1      48.155   2.682   4.540  0.00  0.00    +0.000 HD
ATOM     27  H   UNL     1      47.008   3.835   5.125  0.00  0.00    +0.000 HD
ENDBRANCH  17  24
ENDBRANCH  16  20
ENDBRANCH  15  16
ENDBRANCH   1  15
TORSDOF 5
ENDMDL
MODEL 6
REMARK VINA RESULT:    -8.158      3.089      7.498
REMARK INTER + INTRA:         -11.164
REMARK INTER:                 -10.324
REMARK INTRA:                  -0.840
REMARK UNBOUND:                -0.621
REMARK  Name = 
REMARK  5 active torsions:
REMARK  status: ('A' for Active; 'I' for Inactive)
REMARK    1  A    between atoms: C_2  and  C_4
REMARK    2  A    between atoms: C_7  and  C_8
REMARK    3  A    between atoms: C_8  and  S_9
REMARK    4  A    between atoms: S_9  and  C_10
REMARK    5  A    between atoms: C_15  and  C_16
REMARK                            x       y       z     vdW  Elec       q    Type
REMARK                         _______ _______ _______ _____ _____    ______ ____
ROOT
ATOM      1  C   UNL     1      45.300   6.620  11.389  0.00  0.00    +0.000 A 
ATOM      2  C   UNL     1      44.045   6.504  11.988  0.00  0.00    +0.000 A 
ATOM      3  C   UNL     1      43.150   5.545  11.525  0.00  0.00    +0.000 A 
ATOM      4  F   UNL     1      41.956   5.423  12.121  0.00  0.00    +0.000 F 
ATOM      5  C   UNL     1      43.478   4.690  10.477  0.00  0.00    +0.000 A 
ATOM      6  C   UNL     1      44.729   4.791   9.855  0.00  0.00    +0.000 A 
ATOM      7  C   UNL     1      45.631   5.763  10.328  0.00  0.00    +0.000 A 
ENDROOT
BRANCH   6   8
ATOM      8  C   UNL     1      45.149   3.842   8.747  0.00  0.00    +0.000 C 
ATOM      9  C   UNL     1      45.571   2.464   9.285  0.00  0.00    +0.000 C 
ATOM     10  C   UNL     1      45.997   1.539   8.146  0.00  0.00    +0.000 C 
ATOM     11  C   UNL     1      47.048   2.212   7.269  0.00  0.00    +0.000 C 
ATOM     12  C   UNL     1      46.594   3.598   6.818  0.00  0.00    +0.000 C 
ATOM     13  N   UNL     1      46.234   4.442   7.957  0.00  0.00    +0.000 NA
ATOM     14  H   UNL     1      45.928   5.354   7.617  0.00  0.00    +0.000 HD
ENDBRANCH   6   8
BRANCH   1  15
ATOM     15  S   UNL     1      46.573   7.705  12.010  0.00  0.00    +0.000 S 
BRANCH  15  16
ATOM     16  C   UNL     1      47.961   6.547  12.313  0.00  0.00    +0.000 C 
BRANCH  16  20
ATOM     17  C   UNL     1      47.462   4.389  15.975  0.00  0.00    +0.000 A 
ATOM     18  C   UNL     1      46.825   3.922  14.828  0.00  0.00    +0.000 A 
ATOM     19  C   UNL     1      46.973   4.625  13.632  0.00  0.00    +0.000 A 
ATOM     20  C   UNL     1      47.767   5.775  13.605  0.00  0.00    +0.000 A 
ATOM     21  N   UNL     1      48.373   6.254  14.721  0.00  0.00    +0.000 NA
ATOM     22  C   UNL     1      48.203   5.560  15.877  0.00  0.00    +0.000 A 
BRANCH  17  24
ATOM     23  N   UNL     1      48.303   4.022  18.226  0.00  0.00    +0.000 N 
ATOM     24  C   UNL     1      47.362   3.708  17.283  0.00  0.00    +0.000 C 
ATOM     25  O   UNL     1      46.460   2.920  17.528  0.00  0.00    +0.000 OA
ATOM     26  H   UNL     1      48.164   3.627  19.148  0.00  0.00    +0.000 HD
ATOM     27  H   UNL     1      48.896   4.836  18.155  0.00  0.00    +0.000 HD
ENDBRANCH  17  24
ENDBRANCH  16  20
ENDBRANCH  15  16
ENDBRANCH   1  15
TORSDOF 5
ENDMDL
MODEL 7
REMARK VINA RESULT:    -7.558      3.609      8.508
REMARK INTER + INTRA:         -10.388
REMARK INTER:                  -9.909
REMARK INTRA:                  -0.479
REMARK UNBOUND:                -0.621
REMARK  Name = 
REMARK  5 active torsions:
REMARK  status: ('A' for Active; 'I' for Inactive)
REMARK    1  A    between atoms: C_2  and  C_4
REMARK    2  A    between atoms: C_7  and  C_8
REMARK    3  A    between atoms: C_8  and  S_9
REMARK    4  A    between atoms: S_9  and  C_10
REMARK    5  A    between atoms: C_15  and  C_16
REMARK                            x       y       z     vdW  Elec       q    Type
REMARK                         _______ _______ _______ _____ _____    ______ ____
ROOT
ATOM      1  C   UNL     1      45.386   5.581  12.175  0.00  0.00    +0.000 A 
ATOM      2  C   UNL     1      44.048   5.894  12.419  0.00  0.00    +0.000 A 
ATOM      3  C   UNL     1      43.074   5.505  11.506  0.00  0.00    +0.000 A 
ATOM      4  F   UNL     1      41.790   5.788  11.759  0.00  0.00    +0.000 F 
ATOM      5  C   UNL     1      43.401   4.801  10.351  0.00  0.00    +0.000 A 
ATOM      6  C   UNL     1      44.737   4.480  10.080  0.00  0.00    +0.000 A 
ATOM      7  C   UNL     1      45.719   4.877  11.008  0.00  0.00    +0.000 A 
ENDROOT
BRANCH   6   8
ATOM      8  C   UNL     1      45.131   3.665   8.861  0.00  0.00    +0.000 C 
ATOM      9  C   UNL     1      45.671   2.274   9.236  0.00  0.00    +0.000 C 
ATOM     10  C   UNL     1      46.067   1.487   7.988  0.00  0.00    +0.000 C 
ATOM     11  C   UNL     1      47.012   2.303   7.112  0.00  0.00    +0.000 C 
ATOM     12  C   UNL     1      46.447   3.692   6.826  0.00  0.00    +0.000 C 
ATOM     13  N   UNL     1      46.121   4.403   8.062  0.00  0.00    +0.000 NA
ATOM     14  H   UNL     1      45.739   5.321   7.831  0.00  0.00    +0.000 HD
ENDBRANCH   6   8
BRANCH   1  15
ATOM     15  S   UNL     1      46.686   5.894  13.357  0.00  0.00    +0.000 S 
BRANCH  15  16
ATOM     16  C   UNL     1      46.876   4.263  14.171  0.00  0.00    +0.000 C 
BRANCH  16  20
ATOM     17  C   UNL     1      48.355   4.640  18.169  0.00  0.00    +0.000 A 
ATOM     18  C   UNL     1      48.651   5.640  17.246  0.00  0.00    +0.000 A 
ATOM     19  C   UNL     1      48.183   5.520  15.937  0.00  0.00    +0.000 A 
ATOM     20  C   UNL     1      47.415   4.407  15.581  0.00  0.00    +0.000 A 
ATOM     21  N   UNL     1      47.141   3.414  16.465  0.00  0.00    +0.000 NA
ATOM     22  C   UNL     1      47.619   3.547  17.730  0.00  0.00    +0.000 A 
BRANCH  17  24
ATOM     23  N   UNL     1      48.440   3.645  20.384  0.00  0.00    +0.000 N 
ATOM     24  C   UNL     1      48.809   4.685  19.575  0.00  0.00    +0.000 C 
ATOM     25  O   UNL     1      49.510   5.595  19.993  0.00  0.00    +0.000 OA
ATOM     26  H   UNL     1      48.841   3.637  21.315  0.00  0.00    +0.000 HD
ATOM     27  H   UNL     1      48.088   2.770  20.023  0.00  0.00    +0.000 HD
ENDBRANCH  17  24
ENDBRANCH  16  20
ENDBRANCH  15  16
ENDBRANCH   1  15
TORSDOF 5
ENDMDL
MODEL 8
REMARK VINA RESULT:    -7.395      3.337      7.682
REMARK INTER + INTRA:         -10.177
REMARK INTER:                  -9.555
REMARK INTRA:                  -0.622
REMARK UNBOUND:                -0.621
REMARK  Name = 
REMARK  5 active torsions:
REMARK  status: ('A' for Active; 'I' for Inactive)
REMARK    1  A    between atoms: C_2  and  C_4
REMARK    2  A    between atoms: C_7  and  C_8
REMARK    3  A    between atoms: C_8  and  S_9
REMARK    4  A    between atoms: S_9  and  C_10
REMARK    5  A    between atoms: C_15  and  C_16
REMARK                            x       y       z     vdW  Elec       q    Type
REMARK                         _______ _______ _______ _____ _____    ______ ____
ROOT
ATOM      1  C   UNL     1      47.452   7.513  12.154  0.00  0.00    +0.000 A 
ATOM      2  C   UNL     1      46.716   8.645  12.505  0.00  0.00    +0.000 A 
ATOM      3  C   UNL     1      45.366   8.717  12.173  0.00  0.00    +0.000 A 
ATOM      4  F   UNL     1      44.660   9.795  12.535  0.00  0.00    +0.000 F 
ATOM      5  C   UNL     1      44.728   7.678  11.502  0.00  0.00    +0.000 A 
ATOM      6  C   UNL     1      45.447   6.534  11.134  0.00  0.00    +0.000 A 
ATOM      7  C   UNL     1      46.812   6.468  11.472  0.00  0.00    +0.000 A 
ENDROOT
BRANCH   6   8
ATOM      8  C   UNL     1      44.776   5.355  10.451  0.00  0.00    +0.000 C 
ATOM      9  C   UNL     1      44.805   4.083  11.317  0.00  0.00    +0.000 C 
ATOM     10  C   UNL     1      44.133   2.916  10.596  0.00  0.00    +0.000 C 
ATOM     11  C   UNL     1      44.723   2.731   9.202  0.00  0.00    +0.000 C 
ATOM     12  C   UNL     1      44.719   4.041   8.417  0.00  0.00    +0.000 C 
ATOM     13  N   UNL     1      45.407   5.105   9.147  0.00  0.00    +0.000 NA
ATOM     14  H   UNL     1      45.377   5.964   8.597  0.00  0.00    +0.000 HD
ENDBRANCH   6   8
BRANCH   1  15
ATOM     15  S   UNL     1      49.141   7.258  12.671  0.00  0.00    +0.000 S 
BRANCH  15  16
ATOM     16  C   UNL     1      49.100   7.797  14.422  0.00  0.00    +0.000 C 
BRANCH  16  20
ATOM     17  C   UNL     1      47.998   4.560  16.996  0.00  0.00    +0.000 A 
ATOM     18  C   UNL     1      48.768   5.598  17.514  0.00  0.00    +0.000 A 
ATOM     19  C   UNL     1      49.142   6.652  16.680  0.00  0.00    +0.000 A 
ATOM     20  C   UNL     1      48.725   6.653  15.345  0.00  0.00    +0.000 A 
ATOM     21  N   UNL     1      47.995   5.635  14.822  0.00  0.00    +0.000 NA
ATOM     22  C   UNL     1      47.655   4.613  15.651  0.00  0.00    +0.000 A 
BRANCH  17  24
ATOM     23  N   UNL     1      48.298   3.100  18.916  0.00  0.00    +0.000 N 
ATOM     24  C   UNL     1      47.557   3.405  17.806  0.00  0.00    +0.000 C 
ATOM     25  O   UNL     1      46.556   2.765  17.519  0.00  0.00    +0.000 OA
ATOM     26  H   UNL     1      47.929   2.372  19.516  0.00  0.00    +0.000 HD
ATOM     27  H   UNL     1      48.964   3.742  19.321  0.00  0.00    +0.000 HD
ENDBRANCH  17  24
ENDBRANCH  16  20
ENDBRANCH  15  16
ENDBRANCH   1  15
TORSDOF 5
ENDMDL
MODEL 9
REMARK VINA RESULT:    -7.212      4.169      7.554
REMARK INTER + INTRA:          -9.940
REMARK INTER:                  -9.247
REMARK INTRA:                  -0.694
REMARK UNBOUND:                -0.621
REMARK  Name = 
REMARK  5 active torsions:
REMARK  status: ('A' for Active; 'I' for Inactive)
REMARK    1  A    between atoms: C_2  and  C_4
REMARK    2  A    between atoms: C_7  and  C_8
REMARK    3  A    between atoms: C_8  and  S_9
REMARK    4  A    between atoms: S_9  and  C_10
REMARK    5  A    between atoms: C_15  and  C_16
REMARK                            x       y       z     vdW  Elec       q    Type
REMARK                         _______ _______ _______ _____ _____    ______ ____
ROOT
ATOM      1  C   UNL     1      44.265   5.287  10.925  0.00  0.00    +0.000 A 
ATOM      2  C   UNL     1      43.719   4.374  11.829  0.00  0.00    +0.000 A 
ATOM      3  C   UNL     1      43.715   3.018  11.516  0.00  0.00    +0.000 A 
ATOM      4  F   UNL     1      43.211   2.145  12.399  0.00  0.00    +0.000 F 
ATOM      5  C   UNL     1      44.251   2.546  10.322  0.00  0.00    +0.000 A 
ATOM      6  C   UNL     1      44.799   3.442   9.396  0.00  0.00    +0.000 A 
ATOM      7  C   UNL     1      44.800   4.813   9.717  0.00  0.00    +0.000 A 
ENDROOT
BRANCH   6   8
ATOM      8  C   UNL     1      45.444   2.965   8.107  0.00  0.00    +0.000 C 
ATOM      9  C   UNL     1      46.211   1.643   8.291  0.00  0.00    +0.000 C 
ATOM     10  C   UNL     1      46.855   1.199   6.979  0.00  0.00    +0.000 C 
ATOM     11  C   UNL     1      47.693   2.325   6.380  0.00  0.00    +0.000 C 
ATOM     12  C   UNL     1      46.893   3.622   6.280  0.00  0.00    +0.000 C 
ATOM     13  N   UNL     1      46.334   4.007   7.575  0.00  0.00    +0.000 NA
ATOM     14  H   UNL     1      45.800   4.871   7.467  0.00  0.00    +0.000 HD
ENDBRANCH   6   8
BRANCH   1  15
ATOM     15  S   UNL     1      44.462   7.020  11.300  0.00  0.00    +0.000 S 
BRANCH  15  16
ATOM     16  C   UNL     1      45.324   6.976  12.917  0.00  0.00    +0.000 C 
BRANCH  16  20
ATOM     17  C   UNL     1      49.350   8.391  12.601  0.00  0.00    +0.000 A 
ATOM     18  C   UNL     1      48.858   7.540  11.615  0.00  0.00    +0.000 A 
ATOM     19  C   UNL     1      47.550   7.064  11.715  0.00  0.00    +0.000 A 
ATOM     20  C   UNL     1      46.755   7.461  12.795  0.00  0.00    +0.000 A 
ATOM     21  N   UNL     1      47.231   8.271  13.775  0.00  0.00    +0.000 NA
ATOM     22  C   UNL     1      48.512   8.710  13.662  0.00  0.00    +0.000 A 
BRANCH  17  24
ATOM     23  N   UNL     1      51.740   8.101  12.934  0.00  0.00    +0.000 N 
ATOM     24  C   UNL     1      50.721   8.942  12.575  0.00  0.00    +0.000 C 
ATOM     25  O   UNL     1      50.944  10.090  12.220  0.00  0.00    +0.000 OA
ATOM     26  H   UNL     1      52.680   8.460  12.815  0.00  0.00    +0.000 HD
ATOM     27  H   UNL     1      51.628   7.099  12.986  0.00  0.00    +0.000 HD
ENDBRANCH  17  24
ENDBRANCH  16  20
ENDBRANCH  15  16
ENDBRANCH   1  15
TORSDOF 5
ENDMDL
