MODEL 1
REMARK VINA RESULT:    -9.690      0.000      0.000
REMARK INTER + INTRA:         -13.925
REMARK INTER:                 -13.089
REMARK INTRA:                  -0.836
REMARK UNBOUND:                -0.836
REMARK  Name = 
REMARK  6 active torsions:
REMARK  status: ('A' for Active; 'I' for Inactive)
REMARK    1  A    between atoms: C_2  and  C_4
REMARK    2  A    between atoms: N_8  and  C_9
REMARK    3  A    between atoms: C_9  and  C_10
REMARK    4  A    between atoms: C_10  and  C_13
REMARK    5  A    between atoms: C_18  and  O_19
REMARK    6  A    between atoms: O_19  and  C_20
REMARK                            x       y       z     vdW  Elec       q    Type
REMARK                         _______ _______ _______ _____ _____    ______ ____
ROOT
ATOM      1  C   UNL     1      43.553   5.566  12.213  0.00  0.00    +0.000 C 
ATOM      2  F   UNL     1      43.127   6.737  11.645  0.00  0.00    +0.000 F 
ATOM      3  F   UNL     1      42.770   5.401  13.320  0.00  0.00    +0.000 F 
ENDROOT
BRANCH   1   4
ATOM      4  C   UNL     1      45.024   5.621  12.584  0.00  0.00    +0.000 A 
ATOM      5  C   UNL     1      45.887   6.509  11.923  0.00  0.00    +0.000 A 
ATOM      6  C   UNL     1      47.230   6.557  12.276  0.00  0.00    +0.000 A 
ATOM      7  F   UNL     1      48.046   7.403  11.634  0.00  0.00    +0.000 F 
ATOM      8  C   UNL     1      47.739   5.747  13.282  0.00  0.00    +0.000 A 
ATOM      9  C   UNL     1      46.894   4.870  13.962  0.00  0.00    +0.000 A 
ATOM     10  C   UNL     1      45.544   4.793  13.605  0.00  0.00    +0.000 A 
BRANCH   9  11
ATOM     11  O   UNL     1      47.506   4.120  14.936  0.00  0.00    +0.000 OA
BRANCH  11  12
ATOM     12  C   UNL     1      47.115   4.286  16.318  0.00  0.00    +0.000 C 
ATOM     13  C   UNL     1      48.063   5.059  17.263  0.00  0.00    +0.000 C 
ATOM     14  N   UNL     1      47.838   4.031  18.304  0.00  0.00    +0.000 NA
ATOM     15  C   UNL     1      47.438   3.083  17.241  0.00  0.00    +0.000 C 
ATOM     16  H   UNL     1      47.083   4.259  18.952  0.00  0.00    +0.000 HD
ENDBRANCH  11  12
ENDBRANCH   9  11
ENDBRANCH   1   4
BRANCH   1  17
ATOM     17  C   UNL     1      43.259   4.415  11.213  0.00  0.00    +0.000 C 
BRANCH  17  22
ATOM     18  C   UNL     1      46.463   2.488   7.724  0.00  0.00    +0.000 A 
ATOM     19  C   UNL     1      45.648   1.831   8.639  0.00  0.00    +0.000 A 
ATOM     20  C   UNL     1      44.731   2.569   9.387  0.00  0.00    +0.000 A 
ATOM     21  C   UNL     1      44.649   3.948   9.218  0.00  0.00    +0.000 A 
ATOM     22  N   UNL     1      43.691   4.724   9.842  0.00  0.00    +0.000 N 
ATOM     23  N   UNL     1      45.456   4.601   8.360  0.00  0.00    +0.000 NA
ATOM     24  C   UNL     1      46.352   3.868   7.641  0.00  0.00    +0.000 A 
ATOM     25  H   UNL     1      43.893   5.704   9.653  0.00  0.00    +0.000 HD
BRANCH  18  27
ATOM     26  N   UNL     1      48.483   2.510   6.382  0.00  0.00    +0.000 N 
ATOM     27  C   UNL     1      47.426   1.781   6.858  0.00  0.00    +0.000 C 
ATOM     28  O   UNL     1      47.308   0.590   6.607  0.00  0.00    +0.000 OA
ATOM     29  H   UNL     1      49.197   1.989   5.885  0.00  0.00    +0.000 HD
ATOM     30  H   UNL     1      48.747   3.400   6.772  0.00  0.00    +0.000 HD
ENDBRANCH  18  27
ENDBRANCH  17  22
ENDBRANCH   1  17
TORSDOF 6
ENDMDL
MODEL 2
REMARK VINA RESULT:    -9.158      2.345      3.143
REMARK INTER + INTRA:         -13.206
REMARK INTER:                 -12.280
REMARK INTRA:                  -0.926
REMARK UNBOUND:                -0.836
REMARK  Name = 
REMARK  6 active torsions:
REMARK  status: ('A' for Active; 'I' for Inactive)
REMARK    1  A    between atoms: C_2  and  C_4
REMARK    2  A    between atoms: N_8  and  C_9
REMARK    3  A    between atoms: C_9  and  C_10
REMARK    4  A    between atoms: C_10  and  C_13
REMARK    5  A    between atoms: C_18  and  O_19
REMARK    6  A    between atoms: O_19  and  C_20
REMARK                            x       y       z     vdW  Elec       q    Type
REMARK                         _______ _______ _______ _____ _____    ______ ____
ROOT
ATOM      1  C   UNL     1      43.470   5.551  12.115  0.00  0.00    +0.000 C 
ATOM      2  F   UNL     1      43.102   6.737  11.538  0.00  0.00    +0.000 F 
ATOM      3  F   UNL     1      42.613   5.385  13.166  0.00  0.00    +0.000 F 
ENDROOT
BRANCH   1   4
ATOM      4  C   UNL     1      44.914   5.575  12.583  0.00  0.00    +0.000 A 
ATOM      5  C   UNL     1      45.393   4.579  13.449  0.00  0.00    +0.000 A 
ATOM      6  C   UNL     1      46.718   4.605  13.863  0.00  0.00    +0.000 A 
ATOM      7  F   UNL     1      47.163   3.654  14.695  0.00  0.00    +0.000 F 
ATOM      8  C   UNL     1      47.588   5.596  13.430  0.00  0.00    +0.000 A 
ATOM      9  C   UNL     1      47.136   6.584  12.556  0.00  0.00    +0.000 A 
ATOM     10  C   UNL     1      45.800   6.587  12.146  0.00  0.00    +0.000 A 
BRANCH   9  11
ATOM     11  O   UNL     1      48.083   7.511  12.195  0.00  0.00    +0.000 OA
BRANCH  11  12
ATOM     12  C   UNL     1      49.482   7.232  12.428  0.00  0.00    +0.000 C 
ATOM     13  C   UNL     1      50.278   8.181  13.353  0.00  0.00    +0.000 C 
ATOM     14  N   UNL     1      51.402   8.153  12.390  0.00  0.00    +0.000 NA
ATOM     15  C   UNL     1      50.448   7.753  11.333  0.00  0.00    +0.000 C 
ATOM     16  H   UNL     1      52.103   7.440  12.596  0.00  0.00    +0.000 HD
ENDBRANCH  11  12
ENDBRANCH   9  11
ENDBRANCH   1   4
BRANCH   1  17
ATOM     17  C   UNL     1      43.222   4.419  11.082  0.00  0.00    +0.000 C 
BRANCH  17  22
ATOM     18  C   UNL     1      46.520   2.525   7.662  0.00  0.00    +0.000 A 
ATOM     19  C   UNL     1      45.660   1.859   8.528  0.00  0.00    +0.000 A 
ATOM     20  C   UNL     1      44.729   2.594   9.262  0.00  0.00    +0.000 A 
ATOM     21  C   UNL     1      44.677   3.979   9.127  0.00  0.00    +0.000 A 
ATOM     22  N   UNL     1      43.711   4.756   9.737  0.00  0.00    +0.000 N 
ATOM     23  N   UNL     1      45.527   4.639   8.318  0.00  0.00    +0.000 NA
ATOM     24  C   UNL     1      46.437   3.908   7.613  0.00  0.00    +0.000 A 
ATOM     25  H   UNL     1      43.937   5.737   9.582  0.00  0.00    +0.000 HD
BRANCH  18  27
ATOM     26  N   UNL     1      48.559   2.559   6.350  0.00  0.00    +0.000 N 
ATOM     27  C   UNL     1      47.502   1.823   6.813  0.00  0.00    +0.000 C 
ATOM     28  O   UNL     1      47.398   0.629   6.566  0.00  0.00    +0.000 OA
ATOM     29  H   UNL     1      49.285   2.044   5.866  0.00  0.00    +0.000 HD
ATOM     30  H   UNL     1      48.809   3.454   6.739  0.00  0.00    +0.000 HD
ENDBRANCH  18  27
ENDBRANCH  17  22
ENDBRANCH   1  17
TORSDOF 6
ENDMDL
MODEL 3
REMARK VINA RESULT:    -8.332      3.079      4.488
REMARK INTER + INTRA:         -12.090
REMARK INTER:                 -11.232
REMARK INTRA:                  -0.858
REMARK UNBOUND:                -0.836
REMARK  Name = 
REMARK  6 active torsions:
REMARK  status: ('A' for Active; 'I' for Inactive)
REMARK    1  A    between atoms: C_2  and  C_4
REMARK    2  A    between atoms: N_8  and  C_9
REMARK    3  A    between atoms: C_9  and  C_10
REMARK    4  A    between atoms: C_10  and  C_13
REMARK    5  A    between atoms: C_18  and  O_19
REMARK    6  A    between atoms: O_19  and  C_20
REMARK                            x       y       z     vdW  Elec       q    Type
REMARK                         _______ _______ _______ _____ _____    ______ ____
ROOT
ATOM      1  C   UNL     1      44.528   4.529  12.338  0.00  0.00    +0.000 C 
ATOM      2  F   UNL     1      43.900   4.387  13.546  0.00  0.00    +0.000 F 
ATOM      3  F   UNL     1      45.391   3.473  12.258  0.00  0.00    +0.000 F 
ENDROOT
BRANCH   1   4
ATOM      4  C   UNL     1      45.268   5.851  12.238  0.00  0.00    +0.000 A 
ATOM      5  C   UNL     1      46.645   5.871  11.967  0.00  0.00    +0.000 A 
ATOM      6  C   UNL     1      47.311   7.086  11.868  0.00  0.00    +0.000 A 
ATOM      7  F   UNL     1      48.627   7.094  11.616  0.00  0.00    +0.000 F 
ATOM      8  C   UNL     1      46.638   8.290  12.026  0.00  0.00    +0.000 A 
ATOM      9  C   UNL     1      45.266   8.292  12.280  0.00  0.00    +0.000 A 
ATOM     10  C   UNL     1      44.584   7.078  12.403  0.00  0.00    +0.000 A 
BRANCH   9  11
ATOM     11  O   UNL     1      44.707   9.538  12.417  0.00  0.00    +0.000 OA
BRANCH  11  12
ATOM     12  C   UNL     1      44.334  10.288  11.238  0.00  0.00    +0.000 C 
ATOM     13  C   UNL     1      43.411  11.516  11.409  0.00  0.00    +0.000 C 
ATOM     14  N   UNL     1      42.636  11.080  10.225  0.00  0.00    +0.000 NA
ATOM     15  C   UNL     1      43.141   9.705  10.439  0.00  0.00    +0.000 C 
ATOM     16  H   UNL     1      42.952  11.497   9.349  0.00  0.00    +0.000 HD
ENDBRANCH  11  12
ENDBRANCH   9  11
ENDBRANCH   1   4
BRANCH   1  17
ATOM     17  C   UNL     1      43.457   4.388  11.223  0.00  0.00    +0.000 C 
BRANCH  17  22
ATOM     18  C   UNL     1      46.606   2.762   7.534  0.00  0.00    +0.000 A 
ATOM     19  C   UNL     1      45.736   2.038   8.342  0.00  0.00    +0.000 A 
ATOM     20  C   UNL     1      44.851   2.722   9.175  0.00  0.00    +0.000 A 
ATOM     21  C   UNL     1      44.854   4.114   9.196  0.00  0.00    +0.000 A 
ATOM     22  N   UNL     1      43.933   4.855   9.912  0.00  0.00    +0.000 N 
ATOM     23  N   UNL     1      45.714   4.827   8.445  0.00  0.00    +0.000 NA
ATOM     24  C   UNL     1      46.579   4.145   7.641  0.00  0.00    +0.000 A 
ATOM     25  H   UNL     1      44.197   5.837   9.861  0.00  0.00    +0.000 HD
BRANCH  18  27
ATOM     26  N   UNL     1      47.955   2.875   5.523  0.00  0.00    +0.000 N 
ATOM     27  C   UNL     1      47.540   2.122   6.589  0.00  0.00    +0.000 C 
ATOM     28  O   UNL     1      47.957   0.987   6.768  0.00  0.00    +0.000 OA
ATOM     29  H   UNL     1      48.682   2.469   4.945  0.00  0.00    +0.000 HD
ATOM     30  H   UNL     1      47.841   3.875   5.487  0.00  0.00    +0.000 HD
ENDBRANCH  18  27
ENDBRANCH  17  22
ENDBRANCH   1  17
TORSDOF 6
ENDMDL
MODEL 4
REMARK VINA RESULT:    -8.322      2.189      8.027
REMARK INTER + INTRA:         -12.077
REMARK INTER:                 -11.444
REMARK INTRA:                  -0.633
REMARK UNBOUND:                -0.836
REMARK  Name = 
REMARK  6 active torsions:
REMARK  status: ('A' for Active; 'I' for Inactive)
REMARK    1  A    between atoms: C_2  and  C_4
REMARK    2  A    between atoms: N_8  and  C_9
REMARK    3  A    between atoms: C_9  and  C_10
REMARK    4  A    between atoms: C_10  and  C_13
REMARK    5  A    between atoms: C_18  and  O_19
REMARK    6  A    between atoms: O_19  and  C_20
REMARK                            x       y       z     vdW  Elec       q    Type
REMARK                         _______ _______ _______ _____ _____    ______ ____
ROOT
ATOM      1  C   UNL     1      45.709   6.200  11.381  0.00  0.00    +0.000 C 
ATOM      2  F   UNL     1      44.811   7.223  11.234  0.00  0.00    +0.000 F 
ATOM      3  F   UNL     1      46.898   6.701  10.929  0.00  0.00    +0.000 F 
ENDROOT
BRANCH   1   4
ATOM      4  C   UNL     1      45.297   4.969  10.594  0.00  0.00    +0.000 A 
ATOM      5  C   UNL     1      44.503   3.980  11.194  0.00  0.00    +0.000 A 
ATOM      6  C   UNL     1      44.123   2.862  10.463  0.00  0.00    +0.000 A 
ATOM      7  F   UNL     1      43.370   1.921  11.047  0.00  0.00    +0.000 F 
ATOM      8  C   UNL     1      44.509   2.704   9.138  0.00  0.00    +0.000 A 
ATOM      9  C   UNL     1      45.285   3.684   8.519  0.00  0.00    +0.000 A 
ATOM     10  C   UNL     1      45.694   4.805   9.246  0.00  0.00    +0.000 A 
BRANCH   9  11
ATOM     11  O   UNL     1      45.606   3.422   7.210  0.00  0.00    +0.000 OA
BRANCH  11  12
ATOM     12  C   UNL     1      46.987   3.202   6.843  0.00  0.00    +0.000 C 
ATOM     13  C   UNL     1      47.310   2.846   5.374  0.00  0.00    +0.000 C 
ATOM     14  N   UNL     1      48.253   1.807   5.848  0.00  0.00    +0.000 NA
ATOM     15  C   UNL     1      47.526   1.779   7.137  0.00  0.00    +0.000 C 
ATOM     16  H   UNL     1      49.217   2.134   5.932  0.00  0.00    +0.000 HD
ENDBRANCH  11  12
ENDBRANCH   9  11
ENDBRANCH   1   4
BRANCH   1  17
ATOM     17  C   UNL     1      45.839   5.892  12.897  0.00  0.00    +0.000 C 
BRANCH  17  22
ATOM     18  C   UNL     1      48.503   4.476  17.028  0.00  0.00    +0.000 A 
ATOM     19  C   UNL     1      47.463   3.824  16.376  0.00  0.00    +0.000 A 
ATOM     20  C   UNL     1      46.994   4.330  15.164  0.00  0.00    +0.000 A 
ATOM     21  C   UNL     1      47.563   5.480  14.627  0.00  0.00    +0.000 A 
ATOM     22  N   UNL     1      47.225   5.973  13.380  0.00  0.00    +0.000 N 
ATOM     23  N   UNL     1      48.548   6.141  15.264  0.00  0.00    +0.000 NA
ATOM     24  C   UNL     1      48.991   5.640  16.452  0.00  0.00    +0.000 A 
ATOM     25  H   UNL     1      47.687   6.871  13.250  0.00  0.00    +0.000 HD
BRANCH  18  27
ATOM     26  N   UNL     1      48.326   3.134  19.039  0.00  0.00    +0.000 N 
ATOM     27  C   UNL     1      49.092   3.984  18.288  0.00  0.00    +0.000 C 
ATOM     28  O   UNL     1      50.227   4.290  18.627  0.00  0.00    +0.000 OA
ATOM     29  H   UNL     1      48.781   2.712  19.840  0.00  0.00    +0.000 HD
ATOM     30  H   UNL     1      47.514   2.666  18.670  0.00  0.00    +0.000 HD
ENDBRANCH  18  27
ENDBRANCH  17  22
ENDBRANCH   1  17
TORSDOF 6
ENDMDL
MODEL 5
REMARK VINA RESULT:    -8.228      2.163      2.585
REMARK INTER + INTRA:         -11.950
REMARK INTER:                 -11.428
REMARK INTRA:                  -0.522
REMARK UNBOUND:                -0.836
REMARK  Name = 
REMARK  6 active torsions:
REMARK  status: ('A' for Active; 'I' for Inactive)
REMARK    1  A    between atoms: C_2  and  C_4
REMARK    2  A    between atoms: N_8  and  C_9
REMARK    3  A    between atoms: C_9  and  C_10
REMARK    4  A    between atoms: C_10  and  C_13
REMARK    5  A    between atoms: C_18  and  O_19
REMARK    6  A    between atoms: O_19  and  C_20
REMARK                            x       y       z     vdW  Elec       q    Type
REMARK                         _______ _______ _______ _____ _____    ______ ____
ROOT
ATOM      1  C   UNL     1      44.344   4.316  12.223  0.00  0.00    +0.000 C 
ATOM      2  F   UNL     1      43.648   4.197  13.395  0.00  0.00    +0.000 F 
ATOM      3  F   UNL     1      45.173   3.231  12.187  0.00  0.00    +0.000 F 
ENDROOT
BRANCH   1   4
ATOM      4  C   UNL     1      45.133   5.612  12.163  0.00  0.00    +0.000 A 
ATOM      5  C   UNL     1      44.493   6.815  11.827  0.00  0.00    +0.000 A 
ATOM      6  C   UNL     1      45.222   7.996  11.784  0.00  0.00    +0.000 A 
ATOM      7  F   UNL     1      44.602   9.138  11.456  0.00  0.00    +0.000 F 
ATOM      8  C   UNL     1      46.579   8.015  12.077  0.00  0.00    +0.000 A 
ATOM      9  C   UNL     1      47.230   6.833  12.430  0.00  0.00    +0.000 A 
ATOM     10  C   UNL     1      46.517   5.632  12.457  0.00  0.00    +0.000 A 
BRANCH   9  11
ATOM     11  O   UNL     1      48.570   6.972  12.698  0.00  0.00    +0.000 OA
BRANCH  11  12
ATOM     12  C   UNL     1      48.992   7.677  13.887  0.00  0.00    +0.000 C 
ATOM     13  C   UNL     1      50.505   7.883  14.122  0.00  0.00    +0.000 C 
ATOM     14  N   UNL     1      50.319   7.519  15.545  0.00  0.00    +0.000 NA
ATOM     15  C   UNL     1      49.075   6.811  15.170  0.00  0.00    +0.000 C 
ATOM     16  H   UNL     1      50.162   8.320  16.159  0.00  0.00    +0.000 HD
ENDBRANCH  11  12
ENDBRANCH   9  11
ENDBRANCH   1   4
BRANCH   1  17
ATOM     17  C   UNL     1      43.330   4.212  11.052  0.00  0.00    +0.000 C 
BRANCH  17  22
ATOM     18  C   UNL     1      46.638   2.748   7.436  0.00  0.00    +0.000 A 
ATOM     19  C   UNL     1      45.734   1.990   8.171  0.00  0.00    +0.000 A 
ATOM     20  C   UNL     1      44.813   2.637   8.994  0.00  0.00    +0.000 A 
ATOM     21  C   UNL     1      44.814   4.027   9.078  0.00  0.00    +0.000 A 
ATOM     22  N   UNL     1      43.863   4.736   9.785  0.00  0.00    +0.000 N 
ATOM     23  N   UNL     1      45.707   4.771   8.399  0.00  0.00    +0.000 NA
ATOM     24  C   UNL     1      46.606   4.125   7.604  0.00  0.00    +0.000 A 
ATOM     25  H   UNL     1      44.128   5.719   9.791  0.00  0.00    +0.000 HD
BRANCH  18  27
ATOM     26  N   UNL     1      47.981   2.906   5.423  0.00  0.00    +0.000 N 
ATOM     27  C   UNL     1      47.614   2.150   6.505  0.00  0.00    +0.000 C 
ATOM     28  O   UNL     1      48.101   1.047   6.708  0.00  0.00    +0.000 OA
ATOM     29  H   UNL     1      48.735   2.535   4.855  0.00  0.00    +0.000 HD
ATOM     30  H   UNL     1      47.804   3.895   5.367  0.00  0.00    +0.000 HD
ENDBRANCH  18  27
ENDBRANCH  17  22
ENDBRANCH   1  17
TORSDOF 6
ENDMDL
MODEL 6
REMARK VINA RESULT:    -7.865      2.188      8.157
REMARK INTER + INTRA:         -11.460
REMARK INTER:                 -11.063
REMARK INTRA:                  -0.397
REMARK UNBOUND:                -0.836
REMARK  Name = 
REMARK  6 active torsions:
REMARK  status: ('A' for Active; 'I' for Inactive)
REMARK    1  A    between atoms: C_2  and  C_4
REMARK    2  A    between atoms: N_8  and  C_9
REMARK    3  A    between atoms: C_9  and  C_10
REMARK    4  A    between atoms: C_10  and  C_13
REMARK    5  A    between atoms: C_18  and  O_19
REMARK    6  A    between atoms: O_19  and  C_20
REMARK                            x       y       z     vdW  Elec       q    Type
REMARK                         _______ _______ _______ _____ _____    ______ ____
ROOT
ATOM      1  C   UNL     1      45.796   6.303  12.038  0.00  0.00    +0.000 C 
ATOM      2  F   UNL     1      44.814   6.866  12.808  0.00  0.00    +0.000 F 
ATOM      3  F   UNL     1      46.283   7.328  11.276  0.00  0.00    +0.000 F 
ENDROOT
BRANCH   1   4
ATOM      4  C   UNL     1      45.259   5.180  11.169  0.00  0.00    +0.000 A 
ATOM      5  C   UNL     1      44.393   4.219  11.712  0.00  0.00    +0.000 A 
ATOM      6  C   UNL     1      43.899   3.201  10.906  0.00  0.00    +0.000 A 
ATOM      7  F   UNL     1      43.079   2.284  11.437  0.00  0.00    +0.000 F 
ATOM      8  C   UNL     1      44.241   3.117   9.563  0.00  0.00    +0.000 A 
ATOM      9  C   UNL     1      45.086   4.073   9.000  0.00  0.00    +0.000 A 
ATOM     10  C   UNL     1      45.609   5.092   9.801  0.00  0.00    +0.000 A 
BRANCH   9  11
ATOM     11  O   UNL     1      45.354   3.891   7.666  0.00  0.00    +0.000 OA
BRANCH  11  12
ATOM     12  C   UNL     1      46.630   3.346   7.260  0.00  0.00    +0.000 C 
ATOM     13  C   UNL     1      46.818   2.933   5.783  0.00  0.00    +0.000 C 
ATOM     14  N   UNL     1      47.495   1.695   6.230  0.00  0.00    +0.000 NA
ATOM     15  C   UNL     1      46.818   1.833   7.539  0.00  0.00    +0.000 C 
ATOM     16  H   UNL     1      48.511   1.778   6.288  0.00  0.00    +0.000 HD
ENDBRANCH  11  12
ENDBRANCH   9  11
ENDBRANCH   1   4
BRANCH   1  17
ATOM     17  C   UNL     1      46.920   5.804  12.986  0.00  0.00    +0.000 C 
BRANCH  17  22
ATOM     18  C   UNL     1      48.627   4.383  17.593  0.00  0.00    +0.000 A 
ATOM     19  C   UNL     1      48.908   5.528  16.857  0.00  0.00    +0.000 A 
ATOM     20  C   UNL     1      48.193   5.778  15.685  0.00  0.00    +0.000 A 
ATOM     21  C   UNL     1      47.219   4.879  15.263  0.00  0.00    +0.000 A 
ATOM     22  N   UNL     1      46.399   5.117  14.177  0.00  0.00    +0.000 N 
ATOM     23  N   UNL     1      46.960   3.749  15.948  0.00  0.00    +0.000 NA
ATOM     24  C   UNL     1      47.672   3.514  17.087  0.00  0.00    +0.000 A 
ATOM     25  H   UNL     1      45.845   4.281  13.999  0.00  0.00    +0.000 HD
BRANCH  18  27
ATOM     26  N   UNL     1      48.524   3.529  19.860  0.00  0.00    +0.000 N 
ATOM     27  C   UNL     1      49.300   4.065  18.867  0.00  0.00    +0.000 C 
ATOM     28  O   UNL     1      50.501   4.236  19.018  0.00  0.00    +0.000 OA
ATOM     29  H   UNL     1      49.015   3.208  20.687  0.00  0.00    +0.000 HD
ATOM     30  H   UNL     1      47.611   3.141  19.685  0.00  0.00    +0.000 HD
ENDBRANCH  18  27
ENDBRANCH  17  22
ENDBRANCH   1  17
TORSDOF 6
ENDMDL
MODEL 7
REMARK VINA RESULT:    -7.114      3.140      7.495
REMARK INTER + INTRA:         -10.446
REMARK INTER:                  -9.728
REMARK INTRA:                  -0.718
REMARK UNBOUND:                -0.836
REMARK  Name = 
REMARK  6 active torsions:
REMARK  status: ('A' for Active; 'I' for Inactive)
REMARK    1  A    between atoms: C_2  and  C_4
REMARK    2  A    between atoms: N_8  and  C_9
REMARK    3  A    between atoms: C_9  and  C_10
REMARK    4  A    between atoms: C_10  and  C_13
REMARK    5  A    between atoms: C_18  and  O_19
REMARK    6  A    between atoms: O_19  and  C_20
REMARK                            x       y       z     vdW  Elec       q    Type
REMARK                         _______ _______ _______ _____ _____    ______ ____
ROOT
ATOM      1  C   UNL     1      44.629   6.294  11.286  0.00  0.00    +0.000 C 
ATOM      2  F   UNL     1      43.396   6.883  11.378  0.00  0.00    +0.000 F 
ATOM      3  F   UNL     1      45.387   7.163  10.554  0.00  0.00    +0.000 F 
ENDROOT
BRANCH   1   4
ATOM      4  C   UNL     1      44.556   4.932  10.619  0.00  0.00    +0.000 A 
ATOM      5  C   UNL     1      43.949   3.853  11.279  0.00  0.00    +0.000 A 
ATOM      6  C   UNL     1      43.879   2.613  10.656  0.00  0.00    +0.000 A 
ATOM      7  F   UNL     1      43.303   1.588  11.298  0.00  0.00    +0.000 F 
ATOM      8  C   UNL     1      44.394   2.419   9.381  0.00  0.00    +0.000 A 
ATOM      9  C   UNL     1      44.986   3.483   8.701  0.00  0.00    +0.000 A 
ATOM     10  C   UNL     1      45.084   4.732   9.322  0.00  0.00    +0.000 A 
BRANCH   9  11
ATOM     11  O   UNL     1      45.459   3.176   7.450  0.00  0.00    +0.000 OA
BRANCH  11  12
ATOM     12  C   UNL     1      46.868   2.910   7.263  0.00  0.00    +0.000 C 
ATOM     13  C   UNL     1      47.425   2.875   5.822  0.00  0.00    +0.000 C 
ATOM     14  N   UNL     1      48.206   1.666   6.169  0.00  0.00    +0.000 NA
ATOM     15  C   UNL     1      47.262   1.412   7.280  0.00  0.00    +0.000 C 
ATOM     16  H   UNL     1      49.157   1.866   6.482  0.00  0.00    +0.000 HD
ENDBRANCH  11  12
ENDBRANCH   9  11
ENDBRANCH   1   4
BRANCH   1  17
ATOM     17  C   UNL     1      45.219   6.196  12.719  0.00  0.00    +0.000 C 
BRANCH  17  22
ATOM     18  C   UNL     1      49.926   8.077  13.408  0.00  0.00    +0.000 A 
ATOM     19  C   UNL     1      49.446   7.227  12.418  0.00  0.00    +0.000 A 
ATOM     20  C   UNL     1      48.076   6.976  12.340  0.00  0.00    +0.000 A 
ATOM     21  C   UNL     1      47.210   7.569  13.255  0.00  0.00    +0.000 A 
ATOM     22  N   UNL     1      45.836   7.453  13.169  0.00  0.00    +0.000 N 
ATOM     23  N   UNL     1      47.665   8.367  14.239  0.00  0.00    +0.000 NA
ATOM     24  C   UNL     1      49.007   8.597  14.308  0.00  0.00    +0.000 A 
ATOM     25  H   UNL     1      45.422   7.877  13.998  0.00  0.00    +0.000 HD
BRANCH  18  27
ATOM     26  N   UNL     1      52.100   7.698  14.410  0.00  0.00    +0.000 N 
ATOM     27  C   UNL     1      51.351   8.436  13.532  0.00  0.00    +0.000 C 
ATOM     28  O   UNL     1      51.851   9.324  12.856  0.00  0.00    +0.000 OA
ATOM     29  H   UNL     1      53.099   7.875  14.404  0.00  0.00    +0.000 HD
ATOM     30  H   UNL     1      51.790   6.814  14.778  0.00  0.00    +0.000 HD
ENDBRANCH  18  27
ENDBRANCH  17  22
ENDBRANCH   1  17
TORSDOF 6
ENDMDL
MODEL 8
REMARK VINA RESULT:    -6.916      3.506      7.367
REMARK INTER + INTRA:         -10.178
REMARK INTER:                  -9.142
REMARK INTRA:                  -1.036
REMARK UNBOUND:                -0.836
REMARK  Name = 
REMARK  6 active torsions:
REMARK  status: ('A' for Active; 'I' for Inactive)
REMARK    1  A    between atoms: C_2  and  C_4
REMARK    2  A    between atoms: N_8  and  C_9
REMARK    3  A    between atoms: C_9  and  C_10
REMARK    4  A    between atoms: C_10  and  C_13
REMARK    5  A    between atoms: C_18  and  O_19
REMARK    6  A    between atoms: O_19  and  C_20
REMARK                            x       y       z     vdW  Elec       q    Type
REMARK                         _______ _______ _______ _____ _____    ______ ____
ROOT
ATOM      1  C   UNL     1      49.126   8.157  12.377  0.00  0.00    +0.000 C 
ATOM      2  F   UNL     1      49.638   9.177  11.621  0.00  0.00    +0.000 F 
ATOM      3  F   UNL     1      49.807   7.041  11.980  0.00  0.00    +0.000 F 
ENDROOT
BRANCH   1   4
ATOM      4  C   UNL     1      47.632   7.993  12.167  0.00  0.00    +0.000 A 
ATOM      5  C   UNL     1      46.763   9.070  12.400  0.00  0.00    +0.000 A 
ATOM      6  C   UNL     1      45.398   8.912  12.196  0.00  0.00    +0.000 A 
ATOM      7  F   UNL     1      44.577   9.945  12.427  0.00  0.00    +0.000 F 
ATOM      8  C   UNL     1      44.872   7.706  11.755  0.00  0.00    +0.000 A 
ATOM      9  C   UNL     1      45.720   6.628  11.502  0.00  0.00    +0.000 A 
ATOM     10  C   UNL     1      47.094   6.763  11.723  0.00  0.00    +0.000 A 
BRANCH   9  11
ATOM     11  O   UNL     1      45.090   5.487  11.071  0.00  0.00    +0.000 OA
BRANCH  11  12
ATOM     12  C   UNL     1      44.516   4.578  12.038  0.00  0.00    +0.000 C 
ATOM     13  C   UNL     1      45.278   3.274  12.365  0.00  0.00    +0.000 C 
ATOM     14  N   UNL     1      43.999   2.530  12.310  0.00  0.00    +0.000 NA
ATOM     15  C   UNL     1      43.438   3.616  11.476  0.00  0.00    +0.000 C 
ATOM     16  H   UNL     1      43.539   2.434  13.216  0.00  0.00    +0.000 HD
ENDBRANCH  11  12
ENDBRANCH   9  11
ENDBRANCH   1   4
BRANCH   1  17
ATOM     17  C   UNL     1      49.465   8.448  13.865  0.00  0.00    +0.000 C 
BRANCH  17  22
ATOM     18  C   UNL     1      48.227   4.516  16.893  0.00  0.00    +0.000 A 
ATOM     19  C   UNL     1      47.522   5.078  15.834  0.00  0.00    +0.000 A 
ATOM     20  C   UNL     1      48.137   6.050  15.045  0.00  0.00    +0.000 A 
ATOM     21  C   UNL     1      49.439   6.451  15.329  0.00  0.00    +0.000 A 
ATOM     22  N   UNL     1      50.146   7.325  14.526  0.00  0.00    +0.000 N 
ATOM     23  N   UNL     1      50.120   5.941  16.372  0.00  0.00    +0.000 NA
ATOM     24  C   UNL     1      49.504   4.998  17.140  0.00  0.00    +0.000 A 
ATOM     25  H   UNL     1      51.026   7.550  14.986  0.00  0.00    +0.000 HD
BRANCH  18  27
ATOM     26  N   UNL     1      48.361   3.153  18.893  0.00  0.00    +0.000 N 
ATOM     27  C   UNL     1      47.672   3.450  17.748  0.00  0.00    +0.000 C 
ATOM     28  O   UNL     1      46.624   2.884  17.469  0.00  0.00    +0.000 OA
ATOM     29  H   UNL     1      47.913   2.502  19.529  0.00  0.00    +0.000 HD
ATOM     30  H   UNL     1      49.065   3.762  19.276  0.00  0.00    +0.000 HD
ENDBRANCH  18  27
ENDBRANCH  17  22
ENDBRANCH   1  17
TORSDOF 6
ENDMDL
MODEL 9
REMARK VINA RESULT:    -6.690      3.131      4.595
REMARK INTER + INTRA:          -9.872
REMARK INTER:                  -9.241
REMARK INTRA:                  -0.631
REMARK UNBOUND:                -0.836
REMARK  Name = 
REMARK  6 active torsions:
REMARK  status: ('A' for Active; 'I' for Inactive)
REMARK    1  A    between atoms: C_2  and  C_4
REMARK    2  A    between atoms: N_8  and  C_9
REMARK    3  A    between atoms: C_9  and  C_10
REMARK    4  A    between atoms: C_10  and  C_13
REMARK    5  A    between atoms: C_18  and  O_19
REMARK    6  A    between atoms: O_19  and  C_20
REMARK                            x       y       z     vdW  Elec       q    Type
REMARK                         _______ _______ _______ _____ _____    ______ ____
ROOT
ATOM      1  C   UNL     1      47.793   8.350  13.308  0.00  0.00    +0.000 C 
ATOM      2  F   UNL     1      48.163   7.425  12.369  0.00  0.00    +0.000 F 
ATOM      3  F   UNL     1      48.374   9.520  12.904  0.00  0.00    +0.000 F 
ENDROOT
BRANCH   1   4
ATOM      4  C   UNL     1      48.257   7.959  14.699  0.00  0.00    +0.000 A 
ATOM      5  C   UNL     1      48.283   8.911  15.729  0.00  0.00    +0.000 A 
ATOM      6  C   UNL     1      48.700   8.541  17.002  0.00  0.00    +0.000 A 
ATOM      7  F   UNL     1      48.728   9.460  17.976  0.00  0.00    +0.000 F 
ATOM      8  C   UNL     1      49.087   7.237  17.280  0.00  0.00    +0.000 A 
ATOM      9  C   UNL     1      49.052   6.271  16.274  0.00  0.00    +0.000 A 
ATOM     10  C   UNL     1      48.655   6.632  14.983  0.00  0.00    +0.000 A 
BRANCH   9  11
ATOM     11  O   UNL     1      49.455   5.018  16.664  0.00  0.00    +0.000 OA
BRANCH  11  12
ATOM     12  C   UNL     1      48.586   4.212  17.491  0.00  0.00    +0.000 C 
ATOM     13  C   UNL     1      48.025   2.896  16.905  0.00  0.00    +0.000 C 
ATOM     14  N   UNL     1      46.698   3.227  17.472  0.00  0.00    +0.000 NA
ATOM     15  C   UNL     1      47.099   4.651  17.504  0.00  0.00    +0.000 C 
ATOM     16  H   UNL     1      46.534   2.829  18.398  0.00  0.00    +0.000 HD
ENDBRANCH  11  12
ENDBRANCH   9  11
ENDBRANCH   1   4
BRANCH   1  17
ATOM     17  C   UNL     1      46.250   8.507  13.243  0.00  0.00    +0.000 C 
BRANCH  17  22
ATOM     18  C   UNL     1      44.361   4.147  11.351  0.00  0.00    +0.000 A 
ATOM     19  C   UNL     1      44.245   4.684  12.628  0.00  0.00    +0.000 A 
ATOM     20  C   UNL     1      44.713   5.976  12.869  0.00  0.00    +0.000 A 
ATOM     21  C   UNL     1      45.296   6.705  11.837  0.00  0.00    +0.000 A 
ATOM     22  N   UNL     1      45.679   8.026  11.976  0.00  0.00    +0.000 N 
ATOM     23  N   UNL     1      45.446   6.184  10.605  0.00  0.00    +0.000 NA
ATOM     24  C   UNL     1      44.991   4.918  10.385  0.00  0.00    +0.000 A 
ATOM     25  H   UNL     1      46.173   8.311  11.132  0.00  0.00    +0.000 HD
BRANCH  18  27
ATOM     26  N   UNL     1      44.454   2.175   9.944  0.00  0.00    +0.000 N 
ATOM     27  C   UNL     1      43.850   2.809  10.996  0.00  0.00    +0.000 C 
ATOM     28  O   UNL     1      42.956   2.273  11.636  0.00  0.00    +0.000 OA
ATOM     29  H   UNL     1      44.176   1.213   9.781  0.00  0.00    +0.000 HD
ATOM     30  H   UNL     1      45.343   2.467   9.572  0.00  0.00    +0.000 HD
ENDBRANCH  18  27
ENDBRANCH  17  22
ENDBRANCH   1  17
TORSDOF 6
ENDMDL
