MODEL 1
REMARK VINA RESULT:    -9.220      0.000      0.000
REMARK INTER + INTRA:         -13.558
REMARK INTER:                 -12.454
REMARK INTRA:                  -1.104
REMARK UNBOUND:                -1.104
REMARK  Name = 
REMARK  6 active torsions:
REMARK  status: ('A' for Active; 'I' for Inactive)
REMARK    1  A    between atoms: C_2  and  C_4
REMARK    2  A    between atoms: N_8  and  C_9
REMARK    3  A    between atoms: C_9  and  C_10
REMARK    4  A    between atoms: C_10  and  C_13
REMARK    5  A    between atoms: C_15  and  O_16
REMARK    6  A    between atoms: O_16  and  C_17
REMARK                            x       y       z     vdW  Elec       q    Type
REMARK                         _______ _______ _______ _____ _____    ______ ____
ROOT
ATOM      1  C   UNL     1      43.056   4.306  11.140  0.00  0.00    +0.000 C 
ENDROOT
BRANCH   1   6
ATOM      2  C   UNL     1      46.444   2.465   7.721  0.00  0.00    +0.000 A 
ATOM      3  C   UNL     1      45.693   1.823   8.699  0.00  0.00    +0.000 A 
ATOM      4  C   UNL     1      44.843   2.581   9.508  0.00  0.00    +0.000 A 
ATOM      5  C   UNL     1      44.757   3.959   9.328  0.00  0.00    +0.000 A 
ATOM      6  N   UNL     1      43.937   4.764  10.067  0.00  0.00    +0.000 N 
ATOM      7  N   UNL     1      45.493   4.588   8.393  0.00  0.00    +0.000 NA
ATOM      8  C   UNL     1      46.324   3.841   7.620  0.00  0.00    +0.000 A 
ATOM      9  H   UNL     1      43.983   5.750   9.830  0.00  0.00    +0.000 HD
BRANCH   2  11
ATOM     10  N   UNL     1      48.429   2.447   6.323  0.00  0.00    +0.000 N 
ATOM     11  C   UNL     1      47.362   1.747   6.815  0.00  0.00    +0.000 C 
ATOM     12  O   UNL     1      47.199   0.565   6.544  0.00  0.00    +0.000 OA
ATOM     13  H   UNL     1      49.108   1.914   5.794  0.00  0.00    +0.000 HD
ATOM     14  H   UNL     1      48.736   3.323   6.723  0.00  0.00    +0.000 HD
ENDBRANCH   2  11
ENDBRANCH   1   6
BRANCH   1  15
ATOM     15  C   UNL     1      43.199   5.110  12.454  0.00  0.00    +0.000 C 
ATOM     16  F   UNL     1      42.415   6.231  12.365  0.00  0.00    +0.000 F 
ATOM     17  F   UNL     1      42.651   4.379  13.476  0.00  0.00    +0.000 F 
BRANCH  15  18
ATOM     18  C   UNL     1      44.653   5.477  12.745  0.00  0.00    +0.000 A 
ATOM     19  C   UNL     1      45.428   4.594  13.500  0.00  0.00    +0.000 A 
ATOM     20  C   UNL     1      46.739   4.948  13.801  0.00  0.00    +0.000 A 
ATOM     21  C   UNL     1      47.260   6.141  13.316  0.00  0.00    +0.000 A 
ATOM     22  C   UNL     1      46.434   6.958  12.565  0.00  0.00    +0.000 A 
ATOM     23  N   UNL     1      45.149   6.656  12.276  0.00  0.00    +0.000 NA
BRANCH  20  24
ATOM     24  O   UNL     1      47.602   4.180  14.544  0.00  0.00    +0.000 OA
BRANCH  24  25
ATOM     25  C   UNL     1      47.404   4.102  15.974  0.00  0.00    +0.000 C 
ATOM     26  C   UNL     1      48.252   5.052  16.854  0.00  0.00    +0.000 C 
ATOM     27  C   UNL     1      48.602   3.867  17.762  0.00  0.00    +0.000 C 
ATOM     28  C   UNL     1      48.131   2.916  16.655  0.00  0.00    +0.000 C 
ENDBRANCH  24  25
ENDBRANCH  20  24
ENDBRANCH  15  18
ENDBRANCH   1  15
TORSDOF 6
ENDMDL
MODEL 2
REMARK VINA RESULT:    -8.963      1.151      1.503
REMARK INTER + INTRA:         -13.212
REMARK INTER:                 -12.025
REMARK INTRA:                  -1.186
REMARK UNBOUND:                -1.104
REMARK  Name = 
REMARK  6 active torsions:
REMARK  status: ('A' for Active; 'I' for Inactive)
REMARK    1  A    between atoms: C_2  and  C_4
REMARK    2  A    between atoms: N_8  and  C_9
REMARK    3  A    between atoms: C_9  and  C_10
REMARK    4  A    between atoms: C_10  and  C_13
REMARK    5  A    between atoms: C_15  and  O_16
REMARK    6  A    between atoms: O_16  and  C_17
REMARK                            x       y       z     vdW  Elec       q    Type
REMARK                         _______ _______ _______ _____ _____    ______ ____
ROOT
ATOM      1  C   UNL     1      43.052   4.442  11.120  0.00  0.00    +0.000 C 
ENDROOT
BRANCH   1   6
ATOM      2  C   UNL     1      46.433   2.466   7.770  0.00  0.00    +0.000 A 
ATOM      3  C   UNL     1      45.660   1.859   8.753  0.00  0.00    +0.000 A 
ATOM      4  C   UNL     1      44.817   2.649   9.538  0.00  0.00    +0.000 A 
ATOM      5  C   UNL     1      44.762   4.025   9.332  0.00  0.00    +0.000 A 
ATOM      6  N   UNL     1      43.953   4.862  10.048  0.00  0.00    +0.000 N 
ATOM      7  N   UNL     1      45.520   4.622   8.392  0.00  0.00    +0.000 NA
ATOM      8  C   UNL     1      46.343   3.843   7.642  0.00  0.00    +0.000 A 
ATOM      9  H   UNL     1      44.022   5.842   9.793  0.00  0.00    +0.000 HD
BRANCH   2  11
ATOM     10  N   UNL     1      48.466   2.359   6.447  0.00  0.00    +0.000 N 
ATOM     11  C   UNL     1      47.344   1.712   6.886  0.00  0.00    +0.000 C 
ATOM     12  O   UNL     1      47.127   0.545   6.590  0.00  0.00    +0.000 OA
ATOM     13  H   UNL     1      49.134   1.797   5.935  0.00  0.00    +0.000 HD
ATOM     14  H   UNL     1      48.805   3.211   6.873  0.00  0.00    +0.000 HD
ENDBRANCH   2  11
ENDBRANCH   1   6
BRANCH   1  15
ATOM     15  C   UNL     1      43.704   4.447  12.523  0.00  0.00    +0.000 C 
ATOM     16  F   UNL     1      42.720   4.641  13.458  0.00  0.00    +0.000 F 
ATOM     17  F   UNL     1      44.193   3.194  12.784  0.00  0.00    +0.000 F 
BRANCH  15  18
ATOM     18  C   UNL     1      44.794   5.511  12.645  0.00  0.00    +0.000 A 
ATOM     19  C   UNL     1      46.010   5.158  13.234  0.00  0.00    +0.000 A 
ATOM     20  C   UNL     1      46.987   6.136  13.383  0.00  0.00    +0.000 A 
ATOM     21  C   UNL     1      46.754   7.422  12.911  0.00  0.00    +0.000 A 
ATOM     22  C   UNL     1      45.529   7.692  12.327  0.00  0.00    +0.000 A 
ATOM     23  N   UNL     1      44.550   6.771  12.190  0.00  0.00    +0.000 NA
BRANCH  20  24
ATOM     24  O   UNL     1      48.217   5.928  13.958  0.00  0.00    +0.000 OA
BRANCH  24  25
ATOM     25  C   UNL     1      48.573   6.694  15.130  0.00  0.00    +0.000 C 
ATOM     26  C   UNL     1      50.071   7.033  15.320  0.00  0.00    +0.000 C 
ATOM     27  C   UNL     1      49.971   6.573  16.780  0.00  0.00    +0.000 C 
ATOM     28  C   UNL     1      48.656   5.864  16.435  0.00  0.00    +0.000 C 
ENDBRANCH  24  25
ENDBRANCH  20  24
ENDBRANCH  15  18
ENDBRANCH   1  15
TORSDOF 6
ENDMDL
MODEL 3
REMARK VINA RESULT:    -8.522      2.054      3.347
REMARK INTER + INTRA:         -12.616
REMARK INTER:                 -11.625
REMARK INTRA:                  -0.991
REMARK UNBOUND:                -1.104
REMARK  Name = 
REMARK  6 active torsions:
REMARK  status: ('A' for Active; 'I' for Inactive)
REMARK    1  A    between atoms: C_2  and  C_4
REMARK    2  A    between atoms: N_8  and  C_9
REMARK    3  A    between atoms: C_9  and  C_10
REMARK    4  A    between atoms: C_10  and  C_13
REMARK    5  A    between atoms: C_15  and  O_16
REMARK    6  A    between atoms: O_16  and  C_17
REMARK                            x       y       z     vdW  Elec       q    Type
REMARK                         _______ _______ _______ _____ _____    ______ ____
ROOT
ATOM      1  C   UNL     1      43.267   4.172  11.161  0.00  0.00    +0.000 C 
ENDROOT
BRANCH   1   6
ATOM      2  C   UNL     1      46.484   2.817   7.370  0.00  0.00    +0.000 A 
ATOM      3  C   UNL     1      46.002   4.062   7.757  0.00  0.00    +0.000 A 
ATOM      4  C   UNL     1      45.118   4.142   8.837  0.00  0.00    +0.000 A 
ATOM      5  C   UNL     1      44.733   2.984   9.507  0.00  0.00    +0.000 A 
ATOM      6  N   UNL     1      43.886   2.982  10.579  0.00  0.00    +0.000 N 
ATOM      7  N   UNL     1      45.184   1.774   9.127  0.00  0.00    +0.000 NA
ATOM      8  C   UNL     1      46.035   1.709   8.069  0.00  0.00    +0.000 A 
ATOM      9  H   UNL     1      43.688   2.064  10.964  0.00  0.00    +0.000 HD
BRANCH   2  11
ATOM     10  N   UNL     1      48.648   2.092   6.541  0.00  0.00    +0.000 N 
ATOM     11  C   UNL     1      47.428   2.636   6.249  0.00  0.00    +0.000 C 
ATOM     12  O   UNL     1      47.118   2.923   5.101  0.00  0.00    +0.000 OA
ATOM     13  H   UNL     1      49.240   1.872   5.750  0.00  0.00    +0.000 HD
ATOM     14  H   UNL     1      48.835   1.611   7.410  0.00  0.00    +0.000 HD
ENDBRANCH   2  11
ENDBRANCH   1   6
BRANCH   1  15
ATOM     15  C   UNL     1      43.525   4.334  12.678  0.00  0.00    +0.000 C 
ATOM     16  F   UNL     1      42.560   5.158  13.196  0.00  0.00    +0.000 F 
ATOM     17  F   UNL     1      43.318   3.125  13.289  0.00  0.00    +0.000 F 
BRANCH  15  18
ATOM     18  C   UNL     1      44.924   4.876  12.966  0.00  0.00    +0.000 A 
ATOM     19  C   UNL     1      45.412   5.921  12.178  0.00  0.00    +0.000 A 
ATOM     20  C   UNL     1      46.700   6.387  12.412  0.00  0.00    +0.000 A 
ATOM     21  C   UNL     1      47.456   5.838  13.441  0.00  0.00    +0.000 A 
ATOM     22  C   UNL     1      46.899   4.814  14.187  0.00  0.00    +0.000 A 
ATOM     23  N   UNL     1      45.661   4.322  13.969  0.00  0.00    +0.000 NA
BRANCH  20  24
ATOM     24  O   UNL     1      47.306   7.395  11.703  0.00  0.00    +0.000 OA
BRANCH  24  25
ATOM     25  C   UNL     1      48.504   7.998  12.240  0.00  0.00    +0.000 C 
ATOM     26  C   UNL     1      48.742   9.494  11.922  0.00  0.00    +0.000 C 
ATOM     27  C   UNL     1      50.187   9.162  11.532  0.00  0.00    +0.000 C 
ATOM     28  C   UNL     1      49.792   7.683  11.440  0.00  0.00    +0.000 C 
ENDBRANCH  24  25
ENDBRANCH  20  24
ENDBRANCH  15  18
ENDBRANCH   1  15
TORSDOF 6
ENDMDL
MODEL 4
REMARK VINA RESULT:    -8.307      2.383      4.137
REMARK INTER + INTRA:         -12.325
REMARK INTER:                 -11.379
REMARK INTRA:                  -0.946
REMARK UNBOUND:                -1.104
REMARK  Name = 
REMARK  6 active torsions:
REMARK  status: ('A' for Active; 'I' for Inactive)
REMARK    1  A    between atoms: C_2  and  C_4
REMARK    2  A    between atoms: N_8  and  C_9
REMARK    3  A    between atoms: C_9  and  C_10
REMARK    4  A    between atoms: C_10  and  C_13
REMARK    5  A    between atoms: C_15  and  O_16
REMARK    6  A    between atoms: O_16  and  C_17
REMARK                            x       y       z     vdW  Elec       q    Type
REMARK                         _______ _______ _______ _____ _____    ______ ____
ROOT
ATOM      1  C   UNL     1      43.044   4.702  11.005  0.00  0.00    +0.000 C 
ENDROOT
BRANCH   1   6
ATOM      2  C   UNL     1      46.396   2.455   7.800  0.00  0.00    +0.000 A 
ATOM      3  C   UNL     1      45.551   1.916   8.764  0.00  0.00    +0.000 A 
ATOM      4  C   UNL     1      44.738   2.772   9.509  0.00  0.00    +0.000 A 
ATOM      5  C   UNL     1      44.780   4.145   9.282  0.00  0.00    +0.000 A 
ATOM      6  N   UNL     1      44.005   5.045   9.958  0.00  0.00    +0.000 N 
ATOM      7  N   UNL     1      45.607   4.675   8.361  0.00  0.00    +0.000 NA
ATOM      8  C   UNL     1      46.401   3.832   7.650  0.00  0.00    +0.000 A 
ATOM      9  H   UNL     1      44.147   6.014   9.693  0.00  0.00    +0.000 HD
BRANCH   2  11
ATOM     10  N   UNL     1      48.291   2.272   6.294  0.00  0.00    +0.000 N 
ATOM     11  C   UNL     1      47.284   1.629   6.958  0.00  0.00    +0.000 C 
ATOM     12  O   UNL     1      47.150   0.415   6.888  0.00  0.00    +0.000 OA
ATOM     13  H   UNL     1      48.956   1.681   5.811  0.00  0.00    +0.000 HD
ATOM     14  H   UNL     1      48.587   3.209   6.531  0.00  0.00    +0.000 HD
ENDBRANCH   2  11
ENDBRANCH   1   6
BRANCH   1  15
ATOM     15  C   UNL     1      43.635   4.739  12.435  0.00  0.00    +0.000 C 
ATOM     16  F   UNL     1      42.650   5.138  13.301  0.00  0.00    +0.000 F 
ATOM     17  F   UNL     1      43.938   3.459  12.816  0.00  0.00    +0.000 F 
BRANCH  15  18
ATOM     18  C   UNL     1      44.853   5.656  12.527  0.00  0.00    +0.000 A 
ATOM     19  C   UNL     1      44.647   7.033  12.637  0.00  0.00    +0.000 A 
ATOM     20  C   UNL     1      45.755   7.871  12.679  0.00  0.00    +0.000 A 
ATOM     21  C   UNL     1      47.034   7.327  12.652  0.00  0.00    +0.000 A 
ATOM     22  C   UNL     1      47.157   5.952  12.555  0.00  0.00    +0.000 A 
ATOM     23  N   UNL     1      46.101   5.112  12.487  0.00  0.00    +0.000 NA
BRANCH  20  24
ATOM     24  O   UNL     1      45.694   9.240  12.770  0.00  0.00    +0.000 OA
BRANCH  24  25
ATOM     25  C   UNL     1      44.591   9.928  12.139  0.00  0.00    +0.000 C 
ATOM     26  C   UNL     1      44.348   9.639  10.638  0.00  0.00    +0.000 C 
ATOM     27  C   UNL     1      44.235  11.147  10.385  0.00  0.00    +0.000 C 
ATOM     28  C   UNL     1      44.893  11.396  11.748  0.00  0.00    +0.000 C 
ENDBRANCH  24  25
ENDBRANCH  20  24
ENDBRANCH  15  18
ENDBRANCH   1  15
TORSDOF 6
ENDMDL
MODEL 5
REMARK VINA RESULT:    -7.904      2.862      8.118
REMARK INTER + INTRA:         -11.782
REMARK INTER:                 -10.930
REMARK INTRA:                  -0.852
REMARK UNBOUND:                -1.104
REMARK  Name = 
REMARK  6 active torsions:
REMARK  status: ('A' for Active; 'I' for Inactive)
REMARK    1  A    between atoms: C_2  and  C_4
REMARK    2  A    between atoms: N_8  and  C_9
REMARK    3  A    between atoms: C_9  and  C_10
REMARK    4  A    between atoms: C_10  and  C_13
REMARK    5  A    between atoms: C_15  and  O_16
REMARK    6  A    between atoms: O_16  and  C_17
REMARK                            x       y       z     vdW  Elec       q    Type
REMARK                         _______ _______ _______ _____ _____    ______ ____
ROOT
ATOM      1  C   UNL     1      46.983   5.870  12.914  0.00  0.00    +0.000 C 
ENDROOT
BRANCH   1   6
ATOM      2  C   UNL     1      48.231   4.414  17.697  0.00  0.00    +0.000 A 
ATOM      3  C   UNL     1      48.644   5.502  16.937  0.00  0.00    +0.000 A 
ATOM      4  C   UNL     1      48.143   5.654  15.642  0.00  0.00    +0.000 A 
ATOM      5  C   UNL     1      47.245   4.722  15.129  0.00  0.00    +0.000 A 
ATOM      6  N   UNL     1      46.699   4.810  13.880  0.00  0.00    +0.000 N 
ATOM      7  N   UNL     1      46.853   3.657  15.855  0.00  0.00    +0.000 NA
ATOM      8  C   UNL     1      47.355   3.516  17.110  0.00  0.00    +0.000 A 
ATOM      9  H   UNL     1      46.065   4.056  13.638  0.00  0.00    +0.000 HD
BRANCH   2  11
ATOM     10  N   UNL     1      48.326   3.003  19.670  0.00  0.00    +0.000 N 
ATOM     11  C   UNL     1      48.698   4.177  19.078  0.00  0.00    +0.000 C 
ATOM     12  O   UNL     1      49.421   4.978  19.654  0.00  0.00    +0.000 OA
ATOM     13  H   UNL     1      48.743   2.804  20.571  0.00  0.00    +0.000 HD
ATOM     14  H   UNL     1      47.960   2.220  19.144  0.00  0.00    +0.000 HD
ENDBRANCH   2  11
ENDBRANCH   1   6
BRANCH   1  15
ATOM     15  C   UNL     1      45.756   6.297  12.074  0.00  0.00    +0.000 C 
ATOM     16  F   UNL     1      44.781   6.745  12.927  0.00  0.00    +0.000 F 
ATOM     17  F   UNL     1      46.097   7.392  11.325  0.00  0.00    +0.000 F 
BRANCH  15  18
ATOM     18  C   UNL     1      45.238   5.158  11.197  0.00  0.00    +0.000 A 
ATOM     19  C   UNL     1      45.577   5.148   9.843  0.00  0.00    +0.000 A 
ATOM     20  C   UNL     1      45.072   4.135   9.036  0.00  0.00    +0.000 A 
ATOM     21  C   UNL     1      44.280   3.139   9.594  0.00  0.00    +0.000 A 
ATOM     22  C   UNL     1      43.997   3.210  10.946  0.00  0.00    +0.000 A 
ATOM     23  N   UNL     1      44.452   4.193  11.753  0.00  0.00    +0.000 NA
BRANCH  20  24
ATOM     24  O   UNL     1      45.315   4.017   7.690  0.00  0.00    +0.000 OA
BRANCH  24  25
ATOM     25  C   UNL     1      46.611   3.546   7.257  0.00  0.00    +0.000 C 
ATOM     26  C   UNL     1      46.772   3.208   5.755  0.00  0.00    +0.000 C 
ATOM     27  C   UNL     1      47.440   1.884   6.143  0.00  0.00    +0.000 C 
ATOM     28  C   UNL     1      46.882   2.052   7.562  0.00  0.00    +0.000 C 
ENDBRANCH  24  25
ENDBRANCH  20  24
ENDBRANCH  15  18
ENDBRANCH   1  15
TORSDOF 6
ENDMDL
MODEL 6
REMARK VINA RESULT:    -7.421      3.156      6.905
REMARK INTER + INTRA:         -11.128
REMARK INTER:                 -10.160
REMARK INTRA:                  -0.968
REMARK UNBOUND:                -1.104
REMARK  Name = 
REMARK  6 active torsions:
REMARK  status: ('A' for Active; 'I' for Inactive)
REMARK    1  A    between atoms: C_2  and  C_4
REMARK    2  A    between atoms: N_8  and  C_9
REMARK    3  A    between atoms: C_9  and  C_10
REMARK    4  A    between atoms: C_10  and  C_13
REMARK    5  A    between atoms: C_15  and  O_16
REMARK    6  A    between atoms: O_16  and  C_17
REMARK                            x       y       z     vdW  Elec       q    Type
REMARK                         _______ _______ _______ _____ _____    ______ ____
ROOT
ATOM      1  C   UNL     1      43.922   5.861  12.752  0.00  0.00    +0.000 C 
ENDROOT
BRANCH   1   6
ATOM      2  C   UNL     1      48.618   7.939  12.321  0.00  0.00    +0.000 A 
ATOM      3  C   UNL     1      48.198   6.615  12.278  0.00  0.00    +0.000 A 
ATOM      4  C   UNL     1      46.840   6.328  12.433  0.00  0.00    +0.000 A 
ATOM      5  C   UNL     1      45.929   7.363  12.629  0.00  0.00    +0.000 A 
ATOM      6  N   UNL     1      44.584   7.165  12.773  0.00  0.00    +0.000 N 
ATOM      7  N   UNL     1      46.331   8.647  12.687  0.00  0.00    +0.000 NA
ATOM      8  C   UNL     1      47.656   8.911  12.545  0.00  0.00    +0.000 A 
ATOM      9  H   UNL     1      44.042   8.010  12.915  0.00  0.00    +0.000 HD
BRANCH   2  11
ATOM     10  N   UNL     1      50.853   7.470  11.496  0.00  0.00    +0.000 N 
ATOM     11  C   UNL     1      50.030   8.339  12.158  0.00  0.00    +0.000 C 
ATOM     12  O   UNL     1      50.440   9.418  12.563  0.00  0.00    +0.000 OA
ATOM     13  H   UNL     1      51.787   7.804  11.295  0.00  0.00    +0.000 HD
ATOM     14  H   UNL     1      50.499   6.710  10.931  0.00  0.00    +0.000 HD
ENDBRANCH   2  11
ENDBRANCH   1   6
BRANCH   1  15
ATOM     15  C   UNL     1      43.150   5.572  11.443  0.00  0.00    +0.000 C 
ATOM     16  F   UNL     1      41.856   5.253  11.764  0.00  0.00    +0.000 F 
ATOM     17  F   UNL     1      43.056   6.734  10.724  0.00  0.00    +0.000 F 
BRANCH  15  18
ATOM     18  C   UNL     1      43.804   4.459  10.626  0.00  0.00    +0.000 A 
ATOM     19  C   UNL     1      44.678   4.810   9.596  0.00  0.00    +0.000 A 
ATOM     20  C   UNL     1      45.241   3.799   8.825  0.00  0.00    +0.000 A 
ATOM     21  C   UNL     1      44.958   2.470   9.117  0.00  0.00    +0.000 A 
ATOM     22  C   UNL     1      44.091   2.201  10.161  0.00  0.00    +0.000 A 
ATOM     23  N   UNL     1      43.508   3.160  10.913  0.00  0.00    +0.000 NA
BRANCH  20  24
ATOM     24  O   UNL     1      46.102   4.007   7.776  0.00  0.00    +0.000 OA
BRANCH  24  25
ATOM     25  C   UNL     1      46.362   2.914   6.866  0.00  0.00    +0.000 C 
ATOM     26  C   UNL     1      47.737   2.214   6.982  0.00  0.00    +0.000 C 
ATOM     27  C   UNL     1      47.894   2.308   5.460  0.00  0.00    +0.000 C 
ATOM     28  C   UNL     1      46.773   3.355   5.439  0.00  0.00    +0.000 C 
ENDBRANCH  24  25
ENDBRANCH  20  24
ENDBRANCH  15  18
ENDBRANCH   1  15
TORSDOF 6
ENDMDL
MODEL 7
REMARK VINA RESULT:    -7.238      2.757      7.211
REMARK INTER + INTRA:         -10.881
REMARK INTER:                 -10.070
REMARK INTRA:                  -0.811
REMARK UNBOUND:                -1.104
REMARK  Name = 
REMARK  6 active torsions:
REMARK  status: ('A' for Active; 'I' for Inactive)
REMARK    1  A    between atoms: C_2  and  C_4
REMARK    2  A    between atoms: N_8  and  C_9
REMARK    3  A    between atoms: C_9  and  C_10
REMARK    4  A    between atoms: C_10  and  C_13
REMARK    5  A    between atoms: C_15  and  O_16
REMARK    6  A    between atoms: O_16  and  C_17
REMARK                            x       y       z     vdW  Elec       q    Type
REMARK                         _______ _______ _______ _____ _____    ______ ____
ROOT
ATOM      1  C   UNL     1      47.145   7.014  11.933  0.00  0.00    +0.000 C 
ENDROOT
BRANCH   1   6
ATOM      2  C   UNL     1      47.811   4.397  16.321  0.00  0.00    +0.000 A 
ATOM      3  C   UNL     1      47.028   4.125  15.205  0.00  0.00    +0.000 A 
ATOM      4  C   UNL     1      47.030   5.026  14.139  0.00  0.00    +0.000 A 
ATOM      5  C   UNL     1      47.808   6.179  14.204  0.00  0.00    +0.000 A 
ATOM      6  N   UNL     1      47.875   7.100  13.197  0.00  0.00    +0.000 N 
ATOM      7  N   UNL     1      48.556   6.456  15.288  0.00  0.00    +0.000 NA
ATOM      8  C   UNL     1      48.538   5.576  16.323  0.00  0.00    +0.000 A 
ATOM      9  H   UNL     1      48.478   7.894  13.385  0.00  0.00    +0.000 HD
BRANCH   2  11
ATOM     10  N   UNL     1      46.820   2.661  17.699  0.00  0.00    +0.000 N 
ATOM     11  C   UNL     1      47.880   3.498  17.491  0.00  0.00    +0.000 C 
ATOM     12  O   UNL     1      48.860   3.476  18.223  0.00  0.00    +0.000 OA
ATOM     13  H   UNL     1      46.929   1.976  18.437  0.00  0.00    +0.000 HD
ATOM     14  H   UNL     1      46.130   2.469  16.985  0.00  0.00    +0.000 HD
ENDBRANCH   2  11
ENDBRANCH   1   6
BRANCH   1  15
ATOM     15  C   UNL     1      45.641   7.358  12.054  0.00  0.00    +0.000 C 
ATOM     16  F   UNL     1      45.417   7.891  13.296  0.00  0.00    +0.000 F 
ATOM     17  F   UNL     1      45.352   8.373  11.179  0.00  0.00    +0.000 F 
BRANCH  15  18
ATOM     18  C   UNL     1      44.754   6.138  11.811  0.00  0.00    +0.000 A 
ATOM     19  C   UNL     1      45.020   5.327  10.706  0.00  0.00    +0.000 A 
ATOM     20  C   UNL     1      44.188   4.241  10.460  0.00  0.00    +0.000 A 
ATOM     21  C   UNL     1      43.141   3.962  11.331  0.00  0.00    +0.000 A 
ATOM     22  C   UNL     1      42.948   4.806  12.411  0.00  0.00    +0.000 A 
ATOM     23  N   UNL     1      43.723   5.883  12.664  0.00  0.00    +0.000 NA
BRANCH  20  24
ATOM     24  O   UNL     1      44.328   3.374   9.404  0.00  0.00    +0.000 OA
BRANCH  24  25
ATOM     25  C   UNL     1      45.660   3.060   8.938  0.00  0.00    +0.000 C 
ATOM     26  C   UNL     1      46.033   3.527   7.510  0.00  0.00    +0.000 C 
ATOM     27  C   UNL     1      46.595   2.130   7.220  0.00  0.00    +0.000 C 
ATOM     28  C   UNL     1      45.836   1.603   8.444  0.00  0.00    +0.000 C 
ENDBRANCH  24  25
ENDBRANCH  20  24
ENDBRANCH  15  18
ENDBRANCH   1  15
TORSDOF 6
ENDMDL
MODEL 8
REMARK VINA RESULT:    -6.923      3.773      7.871
REMARK INTER + INTRA:         -10.456
REMARK INTER:                  -9.854
REMARK INTRA:                  -0.602
REMARK UNBOUND:                -1.104
REMARK  Name = 
REMARK  6 active torsions:
REMARK  status: ('A' for Active; 'I' for Inactive)
REMARK    1  A    between atoms: C_2  and  C_4
REMARK    2  A    between atoms: N_8  and  C_9
REMARK    3  A    between atoms: C_9  and  C_10
REMARK    4  A    between atoms: C_10  and  C_13
REMARK    5  A    between atoms: C_15  and  O_16
REMARK    6  A    between atoms: O_16  and  C_17
REMARK                            x       y       z     vdW  Elec       q    Type
REMARK                         _______ _______ _______ _____ _____    ______ ____
ROOT
ATOM      1  C   UNL     1      46.427   4.426  15.330  0.00  0.00    +0.000 C 
ENDROOT
BRANCH   1   6
ATOM      2  C   UNL     1      50.689   2.365  17.366  0.00  0.00    +0.000 A 
ATOM      3  C   UNL     1      49.672   1.796  16.608  0.00  0.00    +0.000 A 
ATOM      4  C   UNL     1      48.611   2.600  16.185  0.00  0.00    +0.000 A 
ATOM      5  C   UNL     1      48.582   3.950  16.525  0.00  0.00    +0.000 A 
ATOM      6  N   UNL     1      47.587   4.803  16.136  0.00  0.00    +0.000 N 
ATOM      7  N   UNL     1      49.556   4.503  17.272  0.00  0.00    +0.000 NA
ATOM      8  C   UNL     1      50.577   3.708  17.686  0.00  0.00    +0.000 A 
ATOM      9  H   UNL     1      47.694   5.758  16.462  0.00  0.00    +0.000 HD
BRANCH   2  11
ATOM     10  N   UNL     1      51.660   0.271  18.118  0.00  0.00    +0.000 N 
ATOM     11  C   UNL     1      51.854   1.597  17.850  0.00  0.00    +0.000 C 
ATOM     12  O   UNL     1      52.956   2.115  17.969  0.00  0.00    +0.000 OA
ATOM     13  H   UNL     1      52.490  -0.265  18.342  0.00  0.00    +0.000 HD
ATOM     14  H   UNL     1      50.852  -0.238  17.789  0.00  0.00    +0.000 HD
ENDBRANCH   2  11
ENDBRANCH   1   6
BRANCH   1  15
ATOM     15  C   UNL     1      46.602   4.694  13.816  0.00  0.00    +0.000 C 
ATOM     16  F   UNL     1      47.099   5.961  13.655  0.00  0.00    +0.000 F 
ATOM     17  F   UNL     1      47.584   3.868  13.336  0.00  0.00    +0.000 F 
BRANCH  15  18
ATOM     18  C   UNL     1      45.293   4.515  13.048  0.00  0.00    +0.000 A 
ATOM     19  C   UNL     1      45.209   3.495  12.099  0.00  0.00    +0.000 A 
ATOM     20  C   UNL     1      44.034   3.358  11.369  0.00  0.00    +0.000 A 
ATOM     21  C   UNL     1      42.961   4.204  11.624  0.00  0.00    +0.000 A 
ATOM     22  C   UNL     1      43.116   5.184  12.589  0.00  0.00    +0.000 A 
ATOM     23  N   UNL     1      44.253   5.359  13.298  0.00  0.00    +0.000 NA
BRANCH  20  24
ATOM     24  O   UNL     1      43.824   2.410  10.398  0.00  0.00    +0.000 OA
BRANCH  24  25
ATOM     25  C   UNL     1      44.250   2.696   9.047  0.00  0.00    +0.000 C 
ATOM     26  C   UNL     1      45.658   2.205   8.634  0.00  0.00    +0.000 C 
ATOM     27  C   UNL     1      45.946   3.588   8.039  0.00  0.00    +0.000 C 
ATOM     28  C   UNL     1      44.755   4.144   8.829  0.00  0.00    +0.000 C 
ENDBRANCH  24  25
ENDBRANCH  20  24
ENDBRANCH  15  18
ENDBRANCH   1  15
TORSDOF 6
ENDMDL
MODEL 9
REMARK VINA RESULT:    -6.864      3.385      4.797
REMARK INTER + INTRA:         -10.376
REMARK INTER:                  -9.157
REMARK INTRA:                  -1.219
REMARK UNBOUND:                -1.104
REMARK  Name = 
REMARK  6 active torsions:
REMARK  status: ('A' for Active; 'I' for Inactive)
REMARK    1  A    between atoms: C_2  and  C_4
REMARK    2  A    between atoms: N_8  and  C_9
REMARK    3  A    between atoms: C_9  and  C_10
REMARK    4  A    between atoms: C_10  and  C_13
REMARK    5  A    between atoms: C_15  and  O_16
REMARK    6  A    between atoms: O_16  and  C_17
REMARK                            x       y       z     vdW  Elec       q    Type
REMARK                         _______ _______ _______ _____ _____    ______ ____
ROOT
ATOM      1  C   UNL     1      46.610   8.802  12.438  0.00  0.00    +0.000 C 
ENDROOT
BRANCH   1   6
ATOM      2  C   UNL     1      44.403   4.239  11.509  0.00  0.00    +0.000 A 
ATOM      3  C   UNL     1      45.227   5.032  10.719  0.00  0.00    +0.000 A 
ATOM      4  C   UNL     1      45.686   6.250  11.227  0.00  0.00    +0.000 A 
ATOM      5  C   UNL     1      45.316   6.653  12.507  0.00  0.00    +0.000 A 
ATOM      6  N   UNL     1      45.735   7.821  13.079  0.00  0.00    +0.000 N 
ATOM      7  N   UNL     1      44.505   5.897  13.271  0.00  0.00    +0.000 NA
ATOM      8  C   UNL     1      44.057   4.720  12.761  0.00  0.00    +0.000 A 
ATOM      9  H   UNL     1      45.381   7.989  14.015  0.00  0.00    +0.000 HD
BRANCH   2  11
ATOM     10  N   UNL     1      44.494   2.345   9.992  0.00  0.00    +0.000 N 
ATOM     11  C   UNL     1      43.877   2.933  11.061  0.00  0.00    +0.000 C 
ATOM     12  O   UNL     1      42.955   2.382  11.644  0.00  0.00    +0.000 OA
ATOM     13  H   UNL     1      44.197   1.404   9.766  0.00  0.00    +0.000 HD
ATOM     14  H   UNL     1      45.403   2.637   9.660  0.00  0.00    +0.000 HD
ENDBRANCH   2  11
ENDBRANCH   1   6
BRANCH   1  15
ATOM     15  C   UNL     1      48.115   8.571  12.710  0.00  0.00    +0.000 C 
ATOM     16  F   UNL     1      48.555   7.565  11.889  0.00  0.00    +0.000 F 
ATOM     17  F   UNL     1      48.809   9.681  12.305  0.00  0.00    +0.000 F 
BRANCH  15  18
ATOM     18  C   UNL     1      48.389   8.243  14.177  0.00  0.00    +0.000 A 
ATOM     19  C   UNL     1      48.827   6.958  14.504  0.00  0.00    +0.000 A 
ATOM     20  C   UNL     1      49.036   6.646  15.843  0.00  0.00    +0.000 A 
ATOM     21  C   UNL     1      48.845   7.619  16.816  0.00  0.00    +0.000 A 
ATOM     22  C   UNL     1      48.422   8.873  16.412  0.00  0.00    +0.000 A 
ATOM     23  N   UNL     1      48.186   9.201  15.124  0.00  0.00    +0.000 NA
BRANCH  20  24
ATOM     24  O   UNL     1      49.450   5.420  16.301  0.00  0.00    +0.000 OA
BRANCH  24  25
ATOM     25  C   UNL     1      48.634   4.731  17.276  0.00  0.00    +0.000 C 
ATOM     26  C   UNL     1      48.973   3.247  17.555  0.00  0.00    +0.000 C 
ATOM     27  C   UNL     1      47.485   2.902  17.422  0.00  0.00    +0.000 C 
ATOM     28  C   UNL     1      47.262   4.256  16.738  0.00  0.00    +0.000 C 
ENDBRANCH  24  25
ENDBRANCH  20  24
ENDBRANCH  15  18
ENDBRANCH   1  15
TORSDOF 6
ENDMDL
