MODEL 1
REMARK VINA RESULT:    -9.056      0.000      0.000
REMARK INTER + INTRA:         -11.864
REMARK INTER:                 -11.174
REMARK INTRA:                  -0.691
REMARK UNBOUND:                -0.691
REMARK  Name = 
REMARK  4 active torsions:
REMARK  status: ('A' for Active; 'I' for Inactive)
REMARK    1  A    between atoms: C_2  and  C_4
REMARK    2  A    between atoms: N_8  and  C_9
REMARK    3  A    between atoms: C_9  and  C_10
REMARK    4  A    between atoms: C_13  and  C_14
REMARK                            x       y       z     vdW  Elec       q    Type
REMARK                         _______ _______ _______ _____ _____    ______ ____
ROOT
ATOM      1  C   UNL     1      46.406   2.310   7.706  0.00  0.00    +0.000 A 
ATOM      2  C   UNL     1      45.600   1.805   8.720  0.00  0.00    +0.000 A 
ATOM      3  C   UNL     1      44.739   2.671   9.395  0.00  0.00    +0.000 A 
ATOM      4  C   UNL     1      44.714   4.025   9.069  0.00  0.00    +0.000 A 
ATOM      5  N   UNL     1      43.830   4.918   9.657  0.00  0.00    +0.000 N 
ATOM      6  N   UNL     1      45.513   4.528   8.109  0.00  0.00    +0.000 NA
ATOM      7  C   UNL     1      46.342   3.670   7.451  0.00  0.00    +0.000 A 
ATOM      8  H   UNL     1      44.095   5.858   9.363  0.00  0.00    +0.000 HD
ENDROOT
BRANCH   1  10
ATOM      9  N   UNL     1      48.440   2.050   6.404  0.00  0.00    +0.000 N 
ATOM     10  C   UNL     1      47.315   1.457   6.912  0.00  0.00    +0.000 C 
ATOM     11  O   UNL     1      47.093   0.268   6.739  0.00  0.00    +0.000 OA
ATOM     12  H   UNL     1      49.106   1.436   5.949  0.00  0.00    +0.000 HD
ATOM     13  H   UNL     1      48.784   2.942   6.732  0.00  0.00    +0.000 HD
ENDBRANCH   1  10
BRANCH   5  14
ATOM     14  C   UNL     1      43.563   4.770  11.075  0.00  0.00    +0.000 C 
BRANCH  14  15
ATOM     15  C   UNL     1      44.736   5.241  11.898  0.00  0.00    +0.000 A 
ATOM     16  C   UNL     1      45.314   4.400  12.857  0.00  0.00    +0.000 A 
ATOM     17  C   UNL     1      46.448   4.804  13.569  0.00  0.00    +0.000 A 
ATOM     18  C   UNL     1      47.036   6.063  13.359  0.00  0.00    +0.000 A 
ATOM     19  C   UNL     1      46.419   6.912  12.420  0.00  0.00    +0.000 A 
ATOM     20  C   UNL     1      45.286   6.511  11.701  0.00  0.00    +0.000 A 
BRANCH  18  21
ATOM     21  C   UNL     1      48.236   6.499  14.097  0.00  0.00    +0.000 A 
ATOM     22  C   UNL     1      49.211   7.342  13.559  0.00  0.00    +0.000 A 
ATOM     23  N   UNL     1      50.336   7.714  14.223  0.00  0.00    +0.000 NA
ATOM     24  C   UNL     1      50.455   7.212  15.469  0.00  0.00    +0.000 A 
ATOM     25  C   UNL     1      49.493   6.393  16.030  0.00  0.00    +0.000 A 
ATOM     26  N   UNL     1      48.371   6.028  15.367  0.00  0.00    +0.000 NA
ENDBRANCH  18  21
ENDBRANCH  14  15
ENDBRANCH   5  14
TORSDOF 4
ENDMDL
MODEL 2
REMARK VINA RESULT:    -7.954      2.712      7.267
REMARK INTER + INTRA:         -10.505
REMARK INTER:                 -10.159
REMARK INTRA:                  -0.345
REMARK UNBOUND:                -0.691
REMARK  Name = 
REMARK  4 active torsions:
REMARK  status: ('A' for Active; 'I' for Inactive)
REMARK    1  A    between atoms: C_2  and  C_4
REMARK    2  A    between atoms: N_8  and  C_9
REMARK    3  A    between atoms: C_9  and  C_10
REMARK    4  A    between atoms: C_13  and  C_14
REMARK                            x       y       z     vdW  Elec       q    Type
REMARK                         _______ _______ _______ _____ _____    ______ ____
ROOT
ATOM      1  C   UNL     1      47.443   5.971  13.705  0.00  0.00    +0.000 A 
ATOM      2  C   UNL     1      46.446   6.653  13.018  0.00  0.00    +0.000 A 
ATOM      3  C   UNL     1      45.203   6.043  12.846  0.00  0.00    +0.000 A 
ATOM      4  C   UNL     1      44.984   4.756  13.334  0.00  0.00    +0.000 A 
ATOM      5  N   UNL     1      43.749   4.128  13.253  0.00  0.00    +0.000 N 
ATOM      6  N   UNL     1      45.953   4.076  13.974  0.00  0.00    +0.000 NA
ATOM      7  C   UNL     1      47.159   4.688  14.145  0.00  0.00    +0.000 A 
ATOM      8  H   UNL     1      43.873   3.160  13.546  0.00  0.00    +0.000 HD
ENDROOT
BRANCH   1  10
ATOM      9  N   UNL     1      49.474   7.028  12.893  0.00  0.00    +0.000 N 
ATOM     10  C   UNL     1      48.773   6.558  13.971  0.00  0.00    +0.000 C 
ATOM     11  O   UNL     1      49.219   6.651  15.105  0.00  0.00    +0.000 OA
ATOM     12  H   UNL     1      50.337   7.519  13.096  0.00  0.00    +0.000 HD
ATOM     13  H   UNL     1      49.044   7.202  11.995  0.00  0.00    +0.000 HD
ENDBRANCH   1  10
BRANCH   5  14
ATOM     14  C   UNL     1      42.978   4.309  12.038  0.00  0.00    +0.000 C 
BRANCH  14  15
ATOM     15  C   UNL     1      43.777   3.903  10.825  0.00  0.00    +0.000 A 
ATOM     16  C   UNL     1      44.226   4.868   9.916  0.00  0.00    +0.000 A 
ATOM     17  C   UNL     1      45.031   4.506   8.830  0.00  0.00    +0.000 A 
ATOM     18  C   UNL     1      45.404   3.170   8.609  0.00  0.00    +0.000 A 
ATOM     19  C   UNL     1      44.911   2.207   9.510  0.00  0.00    +0.000 A 
ATOM     20  C   UNL     1      44.108   2.564  10.600  0.00  0.00    +0.000 A 
BRANCH  18  21
ATOM     21  C   UNL     1      46.258   2.774   7.473  0.00  0.00    +0.000 A 
ATOM     22  C   UNL     1      47.026   1.608   7.453  0.00  0.00    +0.000 A 
ATOM     23  N   UNL     1      47.843   1.261   6.425  0.00  0.00    +0.000 NA
ATOM     24  C   UNL     1      47.864   2.130   5.394  0.00  0.00    +0.000 A 
ATOM     25  C   UNL     1      47.097   3.280   5.383  0.00  0.00    +0.000 A 
ATOM     26  N   UNL     1      46.280   3.621   6.407  0.00  0.00    +0.000 NA
ENDBRANCH  18  21
ENDBRANCH  14  15
ENDBRANCH   5  14
TORSDOF 4
ENDMDL
MODEL 3
REMARK VINA RESULT:    -6.843      1.934      2.360
REMARK INTER + INTRA:          -9.134
REMARK INTER:                  -8.808
REMARK INTRA:                  -0.326
REMARK UNBOUND:                -0.691
REMARK  Name = 
REMARK  4 active torsions:
REMARK  status: ('A' for Active; 'I' for Inactive)
REMARK    1  A    between atoms: C_2  and  C_4
REMARK    2  A    between atoms: N_8  and  C_9
REMARK    3  A    between atoms: C_9  and  C_10
REMARK    4  A    between atoms: C_13  and  C_14
REMARK                            x       y       z     vdW  Elec       q    Type
REMARK                         _______ _______ _______ _____ _____    ______ ____
ROOT
ATOM      1  C   UNL     1      46.440   2.628   7.417  0.00  0.00    +0.000 A 
ATOM      2  C   UNL     1      46.346   3.913   7.939  0.00  0.00    +0.000 A 
ATOM      3  C   UNL     1      45.593   4.121   9.094  0.00  0.00    +0.000 A 
ATOM      4  C   UNL     1      44.925   3.055   9.694  0.00  0.00    +0.000 A 
ATOM      5  N   UNL     1      44.220   3.189  10.881  0.00  0.00    +0.000 N 
ATOM      6  N   UNL     1      44.986   1.813   9.179  0.00  0.00    +0.000 NA
ATOM      7  C   UNL     1      45.733   1.621   8.056  0.00  0.00    +0.000 A 
ATOM      8  H   UNL     1      43.712   2.321  11.042  0.00  0.00    +0.000 HD
ENDROOT
BRANCH   1  10
ATOM      9  N   UNL     1      47.151   3.162   5.157  0.00  0.00    +0.000 N 
ATOM     10  C   UNL     1      47.250   2.309   6.223  0.00  0.00    +0.000 C 
ATOM     11  O   UNL     1      48.002   1.346   6.195  0.00  0.00    +0.000 OA
ATOM     12  H   UNL     1      47.784   2.993   4.384  0.00  0.00    +0.000 HD
ATOM     13  H   UNL     1      46.751   4.087   5.232  0.00  0.00    +0.000 HD
ENDBRANCH   1  10
BRANCH   5  14
ATOM     14  C   UNL     1      43.443   4.400  11.072  0.00  0.00    +0.000 C 
BRANCH  14  15
ATOM     15  C   UNL     1      44.308   5.521  11.594  0.00  0.00    +0.000 A 
ATOM     16  C   UNL     1      45.350   5.254  12.491  0.00  0.00    +0.000 A 
ATOM     17  C   UNL     1      46.201   6.278  12.919  0.00  0.00    +0.000 A 
ATOM     18  C   UNL     1      46.036   7.601  12.477  0.00  0.00    +0.000 A 
ATOM     19  C   UNL     1      44.959   7.859  11.607  0.00  0.00    +0.000 A 
ATOM     20  C   UNL     1      44.106   6.838  11.172  0.00  0.00    +0.000 A 
BRANCH  18  21
ATOM     21  C   UNL     1      46.931   8.690  12.914  0.00  0.00    +0.000 A 
ATOM     22  C   UNL     1      47.124   9.868  12.191  0.00  0.00    +0.000 A 
ATOM     23  N   UNL     1      47.977  10.855  12.571  0.00  0.00    +0.000 NA
ATOM     24  C   UNL     1      48.639  10.625  13.723  0.00  0.00    +0.000 A 
ATOM     25  C   UNL     1      48.448   9.474  14.466  0.00  0.00    +0.000 A 
ATOM     26  N   UNL     1      47.594   8.495  14.086  0.00  0.00    +0.000 NA
ENDBRANCH  18  21
ENDBRANCH  14  15
ENDBRANCH   5  14
TORSDOF 4
ENDMDL
MODEL 4
REMARK VINA RESULT:    -6.565      4.620      6.626
REMARK INTER + INTRA:          -8.792
REMARK INTER:                  -8.385
REMARK INTRA:                  -0.407
REMARK UNBOUND:                -0.691
REMARK  Name = 
REMARK  4 active torsions:
REMARK  status: ('A' for Active; 'I' for Inactive)
REMARK    1  A    between atoms: C_2  and  C_4
REMARK    2  A    between atoms: N_8  and  C_9
REMARK    3  A    between atoms: C_9  and  C_10
REMARK    4  A    between atoms: C_13  and  C_14
REMARK                            x       y       z     vdW  Elec       q    Type
REMARK                         _______ _______ _______ _____ _____    ______ ____
ROOT
ATOM      1  C   UNL     1      44.576   4.731  11.825  0.00  0.00    +0.000 A 
ATOM      2  C   UNL     1      45.148   5.625  12.723  0.00  0.00    +0.000 A 
ATOM      3  C   UNL     1      46.056   5.149  13.668  0.00  0.00    +0.000 A 
ATOM      4  C   UNL     1      46.357   3.790  13.723  0.00  0.00    +0.000 A 
ATOM      5  N   UNL     1      47.304   3.270  14.595  0.00  0.00    +0.000 N 
ATOM      6  N   UNL     1      45.786   2.912  12.878  0.00  0.00    +0.000 NA
ATOM      7  C   UNL     1      44.908   3.392  11.953  0.00  0.00    +0.000 A 
ATOM      8  H   UNL     1      47.246   2.253  14.548  0.00  0.00    +0.000 HD
ENDROOT
BRANCH   1  10
ATOM      9  N   UNL     1      43.900   4.722   9.492  0.00  0.00    +0.000 N 
ATOM     10  C   UNL     1      43.639   5.155  10.764  0.00  0.00    +0.000 C 
ATOM     11  O   UNL     1      42.655   5.837  11.012  0.00  0.00    +0.000 OA
ATOM     12  H   UNL     1      43.198   4.932   8.792  0.00  0.00    +0.000 HD
ATOM     13  H   UNL     1      44.538   3.964   9.293  0.00  0.00    +0.000 HD
ENDBRANCH   1  10
BRANCH   5  14
ATOM     14  C   UNL     1      47.360   3.820  15.936  0.00  0.00    +0.000 C 
BRANCH  14  15
ATOM     15  C   UNL     1      48.660   3.461  16.614  0.00  0.00    +0.000 A 
ATOM     16  C   UNL     1      49.165   2.158  16.534  0.00  0.00    +0.000 A 
ATOM     17  C   UNL     1      50.405   1.838  17.096  0.00  0.00    +0.000 A 
ATOM     18  C   UNL     1      51.177   2.803  17.765  0.00  0.00    +0.000 A 
ATOM     19  C   UNL     1      50.637   4.098  17.870  0.00  0.00    +0.000 A 
ATOM     20  C   UNL     1      49.397   4.425  17.307  0.00  0.00    +0.000 A 
BRANCH  18  21
ATOM     21  C   UNL     1      52.491   2.482  18.355  0.00  0.00    +0.000 A 
ATOM     22  C   UNL     1      53.144   1.262  18.168  0.00  0.00    +0.000 A 
ATOM     23  N   UNL     1      54.335   0.949  18.741  0.00  0.00    +0.000 NA
ATOM     24  C   UNL     1      54.865   1.915  19.520  0.00  0.00    +0.000 A 
ATOM     25  C   UNL     1      54.245   3.137  19.703  0.00  0.00    +0.000 A 
ATOM     26  N   UNL     1      53.061   3.447  19.126  0.00  0.00    +0.000 NA
ENDBRANCH  18  21
ENDBRANCH  14  15
ENDBRANCH   5  14
TORSDOF 4
ENDMDL
MODEL 5
REMARK VINA RESULT:    -6.309      4.879      7.135
REMARK INTER + INTRA:          -8.475
REMARK INTER:                  -7.997
REMARK INTRA:                  -0.478
REMARK UNBOUND:                -0.691
REMARK  Name = 
REMARK  4 active torsions:
REMARK  status: ('A' for Active; 'I' for Inactive)
REMARK    1  A    between atoms: C_2  and  C_4
REMARK    2  A    between atoms: N_8  and  C_9
REMARK    3  A    between atoms: C_9  and  C_10
REMARK    4  A    between atoms: C_13  and  C_14
REMARK                            x       y       z     vdW  Elec       q    Type
REMARK                         _______ _______ _______ _____ _____    ______ ____
ROOT
ATOM      1  C   UNL     1      45.872   5.770  12.248  0.00  0.00    +0.000 A 
ATOM      2  C   UNL     1      47.026   6.233  12.870  0.00  0.00    +0.000 A 
ATOM      3  C   UNL     1      47.499   5.569  14.002  0.00  0.00    +0.000 A 
ATOM      4  C   UNL     1      46.803   4.474  14.510  0.00  0.00    +0.000 A 
ATOM      5  N   UNL     1      47.263   3.733  15.589  0.00  0.00    +0.000 N 
ATOM      6  N   UNL     1      45.669   4.037  13.932  0.00  0.00    +0.000 NA
ATOM      7  C   UNL     1      45.223   4.689  12.822  0.00  0.00    +0.000 A 
ATOM      8  H   UNL     1      46.525   3.083  15.858  0.00  0.00    +0.000 HD
ENDROOT
BRANCH   1  10
ATOM      9  N   UNL     1      45.300   5.612   9.892  0.00  0.00    +0.000 N 
ATOM     10  C   UNL     1      45.325   6.386  11.022  0.00  0.00    +0.000 C 
ATOM     11  O   UNL     1      44.884   7.526  11.018  0.00  0.00    +0.000 OA
ATOM     12  H   UNL     1      44.831   6.007   9.086  0.00  0.00    +0.000 HD
ATOM     13  H   UNL     1      45.412   4.608   9.915  0.00  0.00    +0.000 HD
ENDBRANCH   1  10
BRANCH   5  14
ATOM     14  C   UNL     1      47.879   4.451  16.688  0.00  0.00    +0.000 C 
BRANCH  14  15
ATOM     15  C   UNL     1      49.178   3.802  17.098  0.00  0.00    +0.000 A 
ATOM     16  C   UNL     1      49.354   2.420  16.962  0.00  0.00    +0.000 A 
ATOM     17  C   UNL     1      50.582   1.824  17.269  0.00  0.00    +0.000 A 
ATOM     18  C   UNL     1      51.670   2.583  17.732  0.00  0.00    +0.000 A 
ATOM     19  C   UNL     1      51.463   3.965  17.900  0.00  0.00    +0.000 A 
ATOM     20  C   UNL     1      50.238   4.568  17.591  0.00  0.00    +0.000 A 
BRANCH  18  21
ATOM     21  C   UNL     1      52.972   1.969  18.052  0.00  0.00    +0.000 A 
ATOM     22  C   UNL     1      54.139   2.703  18.275  0.00  0.00    +0.000 A 
ATOM     23  N   UNL     1      55.347   2.139  18.532  0.00  0.00    +0.000 NA
ATOM     24  C   UNL     1      55.352   0.791  18.566  0.00  0.00    +0.000 A 
ATOM     25  C   UNL     1      54.205   0.044  18.369  0.00  0.00    +0.000 A 
ATOM     26  N   UNL     1      53.002   0.610  18.117  0.00  0.00    +0.000 NA
ENDBRANCH  18  21
ENDBRANCH  14  15
ENDBRANCH   5  14
TORSDOF 4
ENDMDL
