MODEL 1
REMARK VINA RESULT:    -9.286      0.000      0.000
REMARK INTER + INTRA:         -13.511
REMARK INTER:                 -12.543
REMARK INTRA:                  -0.967
REMARK UNBOUND:                -0.967
REMARK  Name = 
REMARK  6 active torsions:
REMARK  status: ('A' for Active; 'I' for Inactive)
REMARK    1  A    between atoms: C_2  and  C_3
REMARK    2  A    between atoms: C_6  and  C_7
REMARK    3  A    between atoms: C_9  and  C_10
REMARK    4  A    between atoms: C_10  and  N_11
REMARK    5  A    between atoms: N_11  and  C_12
REMARK    6  A    between atoms: C_15  and  C_16
REMARK                            x       y       z     vdW  Elec       q    Type
REMARK                         _______ _______ _______ _____ _____    ______ ____
ROOT
ATOM      1  C   UNL     1      43.681   5.282  11.241  0.00  0.00    +0.000 C 
ATOM      2  C   UNL     1      42.280   5.513  11.772  0.00  0.00    +0.000 C 
ATOM      3  O   UNL     1      42.804   4.198  11.648  0.00  0.00    +0.000 OA
ENDROOT
BRANCH   1   6
ATOM      4  C   UNL     1      46.981   6.704  12.626  0.00  0.00    +0.000 A 
ATOM      5  C   UNL     1      45.775   6.536  11.918  0.00  0.00    +0.000 A 
ATOM      6  C   UNL     1      44.869   5.482  12.163  0.00  0.00    +0.000 A 
ATOM      7  C   UNL     1      45.155   4.619  13.228  0.00  0.00    +0.000 A 
ATOM      8  C   UNL     1      46.316   4.785  13.985  0.00  0.00    +0.000 A 
ATOM      9  C   UNL     1      47.217   5.803  13.673  0.00  0.00    +0.000 A 
ATOM     10  F   UNL     1      48.347   5.869  14.393  0.00  0.00    +0.000 F 
BRANCH   4  14
ATOM     11  C   UNL     1      49.856   9.720  11.471  0.00  0.00    +0.000 A 
ATOM     12  C   UNL     1      48.604  10.095  11.963  0.00  0.00    +0.000 A 
ATOM     13  C   UNL     1      47.664   9.121  12.323  0.00  0.00    +0.000 A 
ATOM     14  C   UNL     1      47.951   7.749  12.217  0.00  0.00    +0.000 A 
ATOM     15  C   UNL     1      49.226   7.401  11.718  0.00  0.00    +0.000 A 
ATOM     16  C   UNL     1      50.167   8.368  11.348  0.00  0.00    +0.000 A 
BRANCH  11  18
ATOM     17  N   UNL     1      51.601  11.515  10.815  0.00  0.00    +0.000 NA
ATOM     18  C   UNL     1      50.818  10.713  11.107  0.00  0.00    +0.000 C 
ENDBRANCH  11  18
ENDBRANCH   4  14
ENDBRANCH   1   6
BRANCH   1  19
ATOM     19  N   UNL     1      43.999   5.144   9.827  0.00  0.00    +0.000 N 
ATOM     20  H   UNL     1      43.506   5.776   9.206  0.00  0.00    +0.000 HD
BRANCH  19  21
ATOM     21  C   UNL     1      44.650   4.081   9.188  0.00  0.00    +0.000 A 
ATOM     22  C   UNL     1      44.502   2.738   9.535  0.00  0.00    +0.000 A 
ATOM     23  C   UNL     1      45.280   1.745   8.912  0.00  0.00    +0.000 A 
ATOM     24  C   UNL     1      46.225   2.088   7.935  0.00  0.00    +0.000 A 
ATOM     25  C   UNL     1      46.381   3.428   7.581  0.00  0.00    +0.000 A 
ATOM     26  C   UNL     1      45.601   4.406   8.205  0.00  0.00    +0.000 A 
BRANCH  24  27
ATOM     27  C   UNL     1      47.089   1.025   7.358  0.00  0.00    +0.000 C 
ATOM     28  N   UNL     1      46.742  -0.276   7.599  0.00  0.00    +0.000 N 
ATOM     29  O   UNL     1      48.085   1.297   6.696  0.00  0.00    +0.000 OA
ATOM     30  H   UNL     1      46.055  -0.551   8.284  0.00  0.00    +0.000 HD
ATOM     31  H   UNL     1      47.368  -0.988   7.245  0.00  0.00    +0.000 HD
ENDBRANCH  24  27
ENDBRANCH  19  21
ENDBRANCH   1  19
TORSDOF 6
ENDMDL
MODEL 2
REMARK VINA RESULT:    -9.026      2.951      4.416
REMARK INTER + INTRA:         -13.160
REMARK INTER:                 -12.670
REMARK INTRA:                  -0.489
REMARK UNBOUND:                -0.967
REMARK  Name = 
REMARK  6 active torsions:
REMARK  status: ('A' for Active; 'I' for Inactive)
REMARK    1  A    between atoms: C_2  and  C_3
REMARK    2  A    between atoms: C_6  and  C_7
REMARK    3  A    between atoms: C_9  and  C_10
REMARK    4  A    between atoms: C_10  and  N_11
REMARK    5  A    between atoms: N_11  and  C_12
REMARK    6  A    between atoms: C_15  and  C_16
REMARK                            x       y       z     vdW  Elec       q    Type
REMARK                         _______ _______ _______ _____ _____    ______ ____
ROOT
ATOM      1  C   UNL     1      43.965   5.021  11.557  0.00  0.00    +0.000 C 
ATOM      2  C   UNL     1      42.823   5.206  12.538  0.00  0.00    +0.000 C 
ATOM      3  O   UNL     1      43.448   3.940  12.378  0.00  0.00    +0.000 OA
ENDROOT
BRANCH   1   6
ATOM      4  C   UNL     1      47.100   5.598  13.717  0.00  0.00    +0.000 A 
ATOM      5  C   UNL     1      45.883   5.105  13.210  0.00  0.00    +0.000 A 
ATOM      6  C   UNL     1      45.361   5.466  11.949  0.00  0.00    +0.000 A 
ATOM      7  C   UNL     1      46.151   6.287  11.135  0.00  0.00    +0.000 A 
ATOM      8  C   UNL     1      47.387   6.754  11.583  0.00  0.00    +0.000 A 
ATOM      9  C   UNL     1      47.841   6.424  12.860  0.00  0.00    +0.000 A 
ATOM     10  F   UNL     1      49.005   6.959  13.259  0.00  0.00    +0.000 F 
BRANCH   4  14
ATOM     11  C   UNL     1      48.244   4.684  17.785  0.00  0.00    +0.000 A 
ATOM     12  C   UNL     1      48.673   5.870  17.184  0.00  0.00    +0.000 A 
ATOM     13  C   UNL     1      48.318   6.161  15.861  0.00  0.00    +0.000 A 
ATOM     14  C   UNL     1      47.514   5.289  15.107  0.00  0.00    +0.000 A 
ATOM     15  C   UNL     1      47.094   4.099  15.742  0.00  0.00    +0.000 A 
ATOM     16  C   UNL     1      47.452   3.796  17.061  0.00  0.00    +0.000 A 
BRANCH  11  18
ATOM     17  N   UNL     1      48.889   4.149  20.234  0.00  0.00    +0.000 NA
ATOM     18  C   UNL     1      48.602   4.387  19.137  0.00  0.00    +0.000 C 
ENDBRANCH  11  18
ENDBRANCH   4  14
ENDBRANCH   1   6
BRANCH   1  19
ATOM     19  N   UNL     1      43.779   4.694  10.151  0.00  0.00    +0.000 N 
ATOM     20  H   UNL     1      42.877   4.946   9.760  0.00  0.00    +0.000 HD
BRANCH  19  21
ATOM     21  C   UNL     1      44.543   3.829   9.357  0.00  0.00    +0.000 A 
ATOM     22  C   UNL     1      44.610   2.447   9.531  0.00  0.00    +0.000 A 
ATOM     23  C   UNL     1      45.489   1.668   8.758  0.00  0.00    +0.000 A 
ATOM     24  C   UNL     1      46.322   2.267   7.803  0.00  0.00    +0.000 A 
ATOM     25  C   UNL     1      46.263   3.648   7.622  0.00  0.00    +0.000 A 
ATOM     26  C   UNL     1      45.384   4.413   8.393  0.00  0.00    +0.000 A 
BRANCH  24  27
ATOM     27  C   UNL     1      47.300   1.427   7.063  0.00  0.00    +0.000 C 
ATOM     28  N   UNL     1      48.410   2.044   6.553  0.00  0.00    +0.000 N 
ATOM     29  O   UNL     1      47.121   0.225   6.902  0.00  0.00    +0.000 OA
ATOM     30  H   UNL     1      48.511   3.046   6.492  0.00  0.00    +0.000 HD
ATOM     31  H   UNL     1      49.040   1.471   6.007  0.00  0.00    +0.000 HD
ENDBRANCH  24  27
ENDBRANCH  19  21
ENDBRANCH   1  19
TORSDOF 6
ENDMDL
MODEL 3
REMARK VINA RESULT:    -8.506      2.136      2.772
REMARK INTER + INTRA:         -12.457
REMARK INTER:                 -11.318
REMARK INTRA:                  -1.139
REMARK UNBOUND:                -0.967
REMARK  Name = 
REMARK  6 active torsions:
REMARK  status: ('A' for Active; 'I' for Inactive)
REMARK    1  A    between atoms: C_2  and  C_3
REMARK    2  A    between atoms: C_6  and  C_7
REMARK    3  A    between atoms: C_9  and  C_10
REMARK    4  A    between atoms: C_10  and  N_11
REMARK    5  A    between atoms: N_11  and  C_12
REMARK    6  A    between atoms: C_15  and  C_16
REMARK                            x       y       z     vdW  Elec       q    Type
REMARK                         _______ _______ _______ _____ _____    ______ ____
ROOT
ATOM      1  C   UNL     1      44.008   3.856  11.617  0.00  0.00    +0.000 C 
ATOM      2  C   UNL     1      43.458   3.282  12.908  0.00  0.00    +0.000 C 
ATOM      3  O   UNL     1      44.800   3.033  12.514  0.00  0.00    +0.000 OA
ENDROOT
BRANCH   1   6
ATOM      4  C   UNL     1      46.227   6.972  12.060  0.00  0.00    +0.000 A 
ATOM      5  C   UNL     1      45.774   5.646  11.922  0.00  0.00    +0.000 A 
ATOM      6  C   UNL     1      44.448   5.307  11.576  0.00  0.00    +0.000 A 
ATOM      7  C   UNL     1      43.573   6.356  11.270  0.00  0.00    +0.000 A 
ATOM      8  C   UNL     1      44.000   7.683  11.345  0.00  0.00    +0.000 A 
ATOM      9  C   UNL     1      45.301   7.979  11.750  0.00  0.00    +0.000 A 
ATOM     10  F   UNL     1      45.631   9.274  11.869  0.00  0.00    +0.000 F 
BRANCH   4  14
ATOM     11  C   UNL     1      50.183   7.818  13.584  0.00  0.00    +0.000 A 
ATOM     12  C   UNL     1      49.891   8.027  12.235  0.00  0.00    +0.000 A 
ATOM     13  C   UNL     1      48.615   7.739  11.734  0.00  0.00    +0.000 A 
ATOM     14  C   UNL     1      47.593   7.250  12.566  0.00  0.00    +0.000 A 
ATOM     15  C   UNL     1      47.917   7.051  13.926  0.00  0.00    +0.000 A 
ATOM     16  C   UNL     1      49.193   7.328  14.432  0.00  0.00    +0.000 A 
BRANCH  11  18
ATOM     17  N   UNL     1      52.540   8.355  14.511  0.00  0.00    +0.000 NA
ATOM     18  C   UNL     1      51.483   8.116  14.098  0.00  0.00    +0.000 C 
ENDBRANCH  11  18
ENDBRANCH   4  14
ENDBRANCH   1   6
BRANCH   1  19
ATOM     19  N   UNL     1      43.895   3.196  10.324  0.00  0.00    +0.000 N 
ATOM     20  H   UNL     1      43.102   2.571  10.222  0.00  0.00    +0.000 HD
BRANCH  19  21
ATOM     21  C   UNL     1      44.872   3.074   9.329  0.00  0.00    +0.000 A 
ATOM     22  C   UNL     1      45.294   4.116   8.502  0.00  0.00    +0.000 A 
ATOM     23  C   UNL     1      46.202   3.878   7.454  0.00  0.00    +0.000 A 
ATOM     24  C   UNL     1      46.692   2.587   7.215  0.00  0.00    +0.000 A 
ATOM     25  C   UNL     1      46.277   1.539   8.035  0.00  0.00    +0.000 A 
ATOM     26  C   UNL     1      45.377   1.787   9.075  0.00  0.00    +0.000 A 
BRANCH  24  27
ATOM     27  C   UNL     1      47.584   2.354   6.047  0.00  0.00    +0.000 C 
ATOM     28  N   UNL     1      47.495   3.227   4.998  0.00  0.00    +0.000 N 
ATOM     29  O   UNL     1      48.366   1.411   6.015  0.00  0.00    +0.000 OA
ATOM     30  H   UNL     1      46.747   3.896   4.891  0.00  0.00    +0.000 HD
ATOM     31  H   UNL     1      48.068   3.026   4.188  0.00  0.00    +0.000 HD
ENDBRANCH  24  27
ENDBRANCH  19  21
ENDBRANCH   1  19
TORSDOF 6
ENDMDL
MODEL 4
REMARK VINA RESULT:    -6.917      4.925      8.174
REMARK INTER + INTRA:         -10.311
REMARK INTER:                  -8.782
REMARK INTRA:                  -1.529
REMARK UNBOUND:                -0.967
REMARK  Name = 
REMARK  6 active torsions:
REMARK  status: ('A' for Active; 'I' for Inactive)
REMARK    1  A    between atoms: C_2  and  C_3
REMARK    2  A    between atoms: C_6  and  C_7
REMARK    3  A    between atoms: C_9  and  C_10
REMARK    4  A    between atoms: C_10  and  N_11
REMARK    5  A    between atoms: N_11  and  C_12
REMARK    6  A    between atoms: C_15  and  C_16
REMARK                            x       y       z     vdW  Elec       q    Type
REMARK                         _______ _______ _______ _____ _____    ______ ____
ROOT
ATOM      1  C   UNL     1      48.930   8.610  17.206  0.00  0.00    +0.000 C 
ATOM      2  C   UNL     1      48.019   9.771  17.555  0.00  0.00    +0.000 C 
ATOM      3  O   UNL     1      49.432   9.924  17.566  0.00  0.00    +0.000 OA
ENDROOT
BRANCH   1   6
ATOM      4  C   UNL     1      48.356   7.020  13.746  0.00  0.00    +0.000 A 
ATOM      5  C   UNL     1      48.170   7.525  15.047  0.00  0.00    +0.000 A 
ATOM      6  C   UNL     1      49.155   8.253  15.749  0.00  0.00    +0.000 A 
ATOM      7  C   UNL     1      50.340   8.558  15.067  0.00  0.00    +0.000 A 
ATOM      8  C   UNL     1      50.540   8.118  13.758  0.00  0.00    +0.000 A 
ATOM      9  C   UNL     1      49.567   7.348  13.120  0.00  0.00    +0.000 A 
ATOM     10  F   UNL     1      49.847   6.898  11.888  0.00  0.00    +0.000 F 
BRANCH   4  14
ATOM     11  C   UNL     1      45.333   4.510  11.942  0.00  0.00    +0.000 A 
ATOM     12  C   UNL     1      45.989   4.095  13.104  0.00  0.00    +0.000 A 
ATOM     13  C   UNL     1      46.980   4.898  13.681  0.00  0.00    +0.000 A 
ATOM     14  C   UNL     1      47.334   6.141  13.128  0.00  0.00    +0.000 A 
ATOM     15  C   UNL     1      46.652   6.534  11.956  0.00  0.00    +0.000 A 
ATOM     16  C   UNL     1      45.666   5.733  11.366  0.00  0.00    +0.000 A 
BRANCH  11  18
ATOM     17  N   UNL     1      43.496   3.027  10.879  0.00  0.00    +0.000 NA
ATOM     18  C   UNL     1      44.318   3.693  11.354  0.00  0.00    +0.000 C 
ENDBRANCH  11  18
ENDBRANCH   4  14
ENDBRANCH   1   6
BRANCH   1  19
ATOM     19  N   UNL     1      49.398   7.629  18.174  0.00  0.00    +0.000 N 
ATOM     20  H   UNL     1      49.789   8.012  19.028  0.00  0.00    +0.000 HD
BRANCH  19  21
ATOM     21  C   UNL     1      49.655   6.267  17.968  0.00  0.00    +0.000 A 
ATOM     22  C   UNL     1      50.912   5.733  17.683  0.00  0.00    +0.000 A 
ATOM     23  C   UNL     1      51.060   4.367  17.382  0.00  0.00    +0.000 A 
ATOM     24  C   UNL     1      49.945   3.519  17.354  0.00  0.00    +0.000 A 
ATOM     25  C   UNL     1      48.684   4.043  17.637  0.00  0.00    +0.000 A 
ATOM     26  C   UNL     1      48.549   5.401  17.938  0.00  0.00    +0.000 A 
BRANCH  24  27
ATOM     27  C   UNL     1      50.124   2.099  16.949  0.00  0.00    +0.000 C 
ATOM     28  N   UNL     1      50.957   1.323  17.708  0.00  0.00    +0.000 N 
ATOM     29  O   UNL     1      49.556   1.636  15.967  0.00  0.00    +0.000 OA
ATOM     30  H   UNL     1      51.587   1.696  18.402  0.00  0.00    +0.000 HD
ATOM     31  H   UNL     1      51.111   0.374  17.391  0.00  0.00    +0.000 HD
ENDBRANCH  24  27
ENDBRANCH  19  21
ENDBRANCH   1  19
TORSDOF 6
ENDMDL
MODEL 5
REMARK VINA RESULT:    -6.604      5.486      7.958
REMARK INTER + INTRA:          -9.888
REMARK INTER:                  -8.674
REMARK INTRA:                  -1.214
REMARK UNBOUND:                -0.967
REMARK  Name = 
REMARK  6 active torsions:
REMARK  status: ('A' for Active; 'I' for Inactive)
REMARK    1  A    between atoms: C_2  and  C_3
REMARK    2  A    between atoms: C_6  and  C_7
REMARK    3  A    between atoms: C_9  and  C_10
REMARK    4  A    between atoms: C_10  and  N_11
REMARK    5  A    between atoms: N_11  and  C_12
REMARK    6  A    between atoms: C_15  and  C_16
REMARK                            x       y       z     vdW  Elec       q    Type
REMARK                         _______ _______ _______ _____ _____    ______ ____
ROOT
ATOM      1  C   UNL     1      49.140   7.747  15.206  0.00  0.00    +0.000 C 
ATOM      2  C   UNL     1      49.727   9.145  15.197  0.00  0.00    +0.000 C 
ATOM      3  O   UNL     1      48.323   8.945  15.279  0.00  0.00    +0.000 OA
ENDROOT
BRANCH   1   6
ATOM      4  C   UNL     1      50.036   4.974  17.724  0.00  0.00    +0.000 A 
ATOM      5  C   UNL     1      50.056   5.866  16.634  0.00  0.00    +0.000 A 
ATOM      6  C   UNL     1      49.155   6.943  16.493  0.00  0.00    +0.000 A 
ATOM      7  C   UNL     1      48.258   7.177  17.543  0.00  0.00    +0.000 A 
ATOM      8  C   UNL     1      48.243   6.345  18.663  0.00  0.00    +0.000 A 
ATOM      9  C   UNL     1      49.109   5.254  18.738  0.00  0.00    +0.000 A 
ATOM     10  F   UNL     1      49.000   4.451  19.808  0.00  0.00    +0.000 F 
BRANCH   4  14
ATOM     11  C   UNL     1      52.652   1.532  17.719  0.00  0.00    +0.000 A 
ATOM     12  C   UNL     1      51.314   1.398  17.342  0.00  0.00    +0.000 A 
ATOM     13  C   UNL     1      50.460   2.507  17.359  0.00  0.00    +0.000 A 
ATOM     14  C   UNL     1      50.918   3.782  17.734  0.00  0.00    +0.000 A 
ATOM     15  C   UNL     1      52.276   3.887  18.107  0.00  0.00    +0.000 A 
ATOM     16  C   UNL     1      53.134   2.781  18.103  0.00  0.00    +0.000 A 
BRANCH  11  18
ATOM     17  N   UNL     1      54.237  -0.514  17.688  0.00  0.00    +0.000 NA
ATOM     18  C   UNL     1      53.527   0.401  17.699  0.00  0.00    +0.000 C 
ENDBRANCH  11  18
ENDBRANCH   4  14
ENDBRANCH   1   6
BRANCH   1  19
ATOM     19  N   UNL     1      48.804   7.002  14.002  0.00  0.00    +0.000 N 
ATOM     20  H   UNL     1      49.471   7.080  13.241  0.00  0.00    +0.000 HD
BRANCH  19  21
ATOM     21  C   UNL     1      47.568   6.447  13.646  0.00  0.00    +0.000 A 
ATOM     22  C   UNL     1      46.551   7.137  12.986  0.00  0.00    +0.000 A 
ATOM     23  C   UNL     1      45.300   6.534  12.766  0.00  0.00    +0.000 A 
ATOM     24  C   UNL     1      45.048   5.230  13.215  0.00  0.00    +0.000 A 
ATOM     25  C   UNL     1      46.058   4.532  13.876  0.00  0.00    +0.000 A 
ATOM     26  C   UNL     1      47.299   5.140  14.087  0.00  0.00    +0.000 A 
BRANCH  24  27
ATOM     27  C   UNL     1      43.689   4.653  13.042  0.00  0.00    +0.000 C 
ATOM     28  N   UNL     1      42.637   5.524  12.948  0.00  0.00    +0.000 N 
ATOM     29  O   UNL     1      43.507   3.442  12.995  0.00  0.00    +0.000 OA
ATOM     30  H   UNL     1      42.705   6.506  13.169  0.00  0.00    +0.000 HD
ATOM     31  H   UNL     1      41.713   5.117  12.884  0.00  0.00    +0.000 HD
ENDBRANCH  24  27
ENDBRANCH  19  21
ENDBRANCH   1  19
TORSDOF 6
ENDMDL
MODEL 6
REMARK VINA RESULT:    -6.539      4.782      6.882
REMARK INTER + INTRA:          -9.800
REMARK INTER:                  -8.764
REMARK INTRA:                  -1.036
REMARK UNBOUND:                -0.967
REMARK  Name = 
REMARK  6 active torsions:
REMARK  status: ('A' for Active; 'I' for Inactive)
REMARK    1  A    between atoms: C_2  and  C_3
REMARK    2  A    between atoms: C_6  and  C_7
REMARK    3  A    between atoms: C_9  and  C_10
REMARK    4  A    between atoms: C_10  and  N_11
REMARK    5  A    between atoms: N_11  and  C_12
REMARK    6  A    between atoms: C_15  and  C_16
REMARK                            x       y       z     vdW  Elec       q    Type
REMARK                         _______ _______ _______ _____ _____    ______ ____
ROOT
ATOM      1  C   UNL     1      48.432   8.254  13.766  0.00  0.00    +0.000 C 
ATOM      2  C   UNL     1      48.577   9.678  13.266  0.00  0.00    +0.000 C 
ATOM      3  O   UNL     1      47.296   9.131  13.548  0.00  0.00    +0.000 OA
ENDROOT
BRANCH   1   6
ATOM      4  C   UNL     1      49.581   6.351  16.911  0.00  0.00    +0.000 A 
ATOM      5  C   UNL     1      49.423   6.794  15.583  0.00  0.00    +0.000 A 
ATOM      6  C   UNL     1      48.693   7.949  15.229  0.00  0.00    +0.000 A 
ATOM      7  C   UNL     1      48.182   8.734  16.270  0.00  0.00    +0.000 A 
ATOM      8  C   UNL     1      48.363   8.355  17.600  0.00  0.00    +0.000 A 
ATOM      9  C   UNL     1      49.038   7.174  17.908  0.00  0.00    +0.000 A 
ATOM     10  F   UNL     1      49.120   6.828  19.202  0.00  0.00    +0.000 F 
BRANCH   4  14
ATOM     11  C   UNL     1      51.539   2.577  17.697  0.00  0.00    +0.000 A 
ATOM     12  C   UNL     1      50.165   2.618  17.449  0.00  0.00    +0.000 A 
ATOM     13  C   UNL     1      49.525   3.840  17.210  0.00  0.00    +0.000 A 
ATOM     14  C   UNL     1      50.237   5.052  17.196  0.00  0.00    +0.000 A 
ATOM     15  C   UNL     1      51.625   4.979  17.448  0.00  0.00    +0.000 A 
ATOM     16  C   UNL     1      52.271   3.763  17.696  0.00  0.00    +0.000 A 
BRANCH  11  18
ATOM     17  N   UNL     1      52.732   0.321  18.129  0.00  0.00    +0.000 NA
ATOM     18  C   UNL     1      52.196   1.330  17.937  0.00  0.00    +0.000 C 
ENDBRANCH  11  18
ENDBRANCH   4  14
ENDBRANCH   1   6
BRANCH   1  19
ATOM     19  N   UNL     1      48.326   7.095  12.890  0.00  0.00    +0.000 N 
ATOM     20  H   UNL     1      49.051   7.013  12.186  0.00  0.00    +0.000 HD
BRANCH  19  21
ATOM     21  C   UNL     1      47.219   6.259  12.695  0.00  0.00    +0.000 A 
ATOM     22  C   UNL     1      46.849   5.223  13.553  0.00  0.00    +0.000 A 
ATOM     23  C   UNL     1      45.787   4.362  13.223  0.00  0.00    +0.000 A 
ATOM     24  C   UNL     1      45.086   4.524  12.020  0.00  0.00    +0.000 A 
ATOM     25  C   UNL     1      45.448   5.556  11.155  0.00  0.00    +0.000 A 
ATOM     26  C   UNL     1      46.503   6.408  11.495  0.00  0.00    +0.000 A 
BRANCH  24  27
ATOM     27  C   UNL     1      44.025   3.546  11.661  0.00  0.00    +0.000 C 
ATOM     28  N   UNL     1      43.801   2.508  12.524  0.00  0.00    +0.000 N 
ATOM     29  O   UNL     1      43.377   3.653  10.627  0.00  0.00    +0.000 OA
ATOM     30  H   UNL     1      44.423   2.268  13.281  0.00  0.00    +0.000 HD
ATOM     31  H   UNL     1      43.113   1.821  12.242  0.00  0.00    +0.000 HD
ENDBRANCH  24  27
ENDBRANCH  19  21
ENDBRANCH   1  19
TORSDOF 6
ENDMDL
MODEL 7
REMARK VINA RESULT:    -6.426      4.340      6.463
REMARK INTER + INTRA:          -9.648
REMARK INTER:                  -8.374
REMARK INTRA:                  -1.274
REMARK UNBOUND:                -0.967
REMARK  Name = 
REMARK  6 active torsions:
REMARK  status: ('A' for Active; 'I' for Inactive)
REMARK    1  A    between atoms: C_2  and  C_3
REMARK    2  A    between atoms: C_6  and  C_7
REMARK    3  A    between atoms: C_9  and  C_10
REMARK    4  A    between atoms: C_10  and  N_11
REMARK    5  A    between atoms: N_11  and  C_12
REMARK    6  A    between atoms: C_15  and  C_16
REMARK                            x       y       z     vdW  Elec       q    Type
REMARK                         _______ _______ _______ _____ _____    ______ ____
ROOT
ATOM      1  C   UNL     1      46.249   4.506  13.792  0.00  0.00    +0.000 C 
ATOM      2  C   UNL     1      46.119   3.273  12.919  0.00  0.00    +0.000 C 
ATOM      3  O   UNL     1      44.966   3.967  13.376  0.00  0.00    +0.000 OA
ENDROOT
BRANCH   1   6
ATOM      4  C   UNL     1      48.344   7.462  12.485  0.00  0.00    +0.000 A 
ATOM      5  C   UNL     1      47.934   6.190  12.931  0.00  0.00    +0.000 A 
ATOM      6  C   UNL     1      46.584   5.840  13.151  0.00  0.00    +0.000 A 
ATOM      7  C   UNL     1      45.609   6.788  12.818  0.00  0.00    +0.000 A 
ATOM      8  C   UNL     1      45.974   8.040  12.325  0.00  0.00    +0.000 A 
ATOM      9  C   UNL     1      47.322   8.371  12.179  0.00  0.00    +0.000 A 
ATOM     10  F   UNL     1      47.611   9.614  11.765  0.00  0.00    +0.000 F 
BRANCH   4  14
ATOM     11  C   UNL     1      52.533   8.515  12.312  0.00  0.00    +0.000 A 
ATOM     12  C   UNL     1      51.862   8.111  11.156  0.00  0.00    +0.000 A 
ATOM     13  C   UNL     1      50.510   7.753  11.212  0.00  0.00    +0.000 A 
ATOM     14  C   UNL     1      49.785   7.804  12.415  0.00  0.00    +0.000 A 
ATOM     15  C   UNL     1      50.490   8.218  13.566  0.00  0.00    +0.000 A 
ATOM     16  C   UNL     1      51.844   8.568  13.521  0.00  0.00    +0.000 A 
BRANCH  11  18
ATOM     17  N   UNL     1      55.033   9.180  12.208  0.00  0.00    +0.000 NA
ATOM     18  C   UNL     1      53.913   8.885  12.257  0.00  0.00    +0.000 C 
ENDBRANCH  11  18
ENDBRANCH   4  14
ENDBRANCH   1   6
BRANCH   1  19
ATOM     19  N   UNL     1      46.346   4.464  15.244  0.00  0.00    +0.000 N 
ATOM     20  H   UNL     1      45.525   4.787  15.745  0.00  0.00    +0.000 HD
BRANCH  19  21
ATOM     21  C   UNL     1      47.497   4.326  16.030  0.00  0.00    +0.000 A 
ATOM     22  C   UNL     1      48.312   5.384  16.434  0.00  0.00    +0.000 A 
ATOM     23  C   UNL     1      49.510   5.142  17.129  0.00  0.00    +0.000 A 
ATOM     24  C   UNL     1      49.914   3.832  17.420  0.00  0.00    +0.000 A 
ATOM     25  C   UNL     1      49.108   2.767  17.019  0.00  0.00    +0.000 A 
ATOM     26  C   UNL     1      47.917   3.019  16.332  0.00  0.00    +0.000 A 
BRANCH  24  27
ATOM     27  C   UNL     1      51.227   3.607  18.080  0.00  0.00    +0.000 C 
ATOM     28  N   UNL     1      51.702   2.325  18.129  0.00  0.00    +0.000 N 
ATOM     29  O   UNL     1      51.863   4.531  18.574  0.00  0.00    +0.000 OA
ATOM     30  H   UNL     1      51.141   1.515  17.912  0.00  0.00    +0.000 HD
ATOM     31  H   UNL     1      52.571   2.179  18.627  0.00  0.00    +0.000 HD
ENDBRANCH  24  27
ENDBRANCH  19  21
ENDBRANCH   1  19
TORSDOF 6
ENDMDL
