MODEL 1
REMARK VINA RESULT:    -9.185      0.000      0.000
REMARK INTER + INTRA:         -14.333
REMARK INTER:                 -13.212
REMARK INTRA:                  -1.121
REMARK UNBOUND:                -1.121
REMARK  Name = 
REMARK  8 active torsions:
REMARK  status: ('A' for Active; 'I' for Inactive)
REMARK    1  A    between atoms: N_1  and  C_2
REMARK    2  A    between atoms: C_2  and  C_3
REMARK    3  A    between atoms: C_2  and  C_17
REMARK    4  A    between atoms: C_3  and  N_4
REMARK    5  A    between atoms: C_5  and  C_7
REMARK    6  A    between atoms: C_20  and  C_21
REMARK    7  A    between atoms: C_21  and  N_22
REMARK    8  A    between atoms: C_23  and  C_25
REMARK                            x       y       z     vdW  Elec       q    Type
REMARK                         _______ _______ _______ _____ _____    ______ ____
ROOT
ATOM      1  C   UNL     1      46.802   4.188  14.997  0.00  0.00    +0.000 C 
ENDROOT
BRANCH   1   2
ATOM      2  C   UNL     1      45.975   4.451  13.740  0.00  0.00    +0.000 A 
ATOM      3  C   UNL     1      45.798   5.749  13.263  0.00  0.00    +0.000 A 
ATOM      4  C   UNL     1      45.056   5.957  12.104  0.00  0.00    +0.000 A 
ATOM      5  C   UNL     1      44.510   4.868  11.425  0.00  0.00    +0.000 A 
ATOM      6  C   UNL     1      44.766   3.607  11.944  0.00  0.00    +0.000 A 
ATOM      7  N   UNL     1      45.475   3.377  13.072  0.00  0.00    +0.000 NA
BRANCH   5   8
ATOM      8  C   UNL     1      43.715   5.043  10.170  0.00  0.00    +0.000 C 
BRANCH   8   9
ATOM      9  N   UNL     1      44.193   4.191   9.113  0.00  0.00    +0.000 N 
ATOM     10  C   UNL     1      45.393   4.432   8.483  0.00  0.00    +0.000 C 
ATOM     11  O   UNL     1      46.083   5.424   8.704  0.00  0.00    +0.000 OA
ATOM     12  H   UNL     1      43.764   3.287   8.928  0.00  0.00    +0.000 HD
BRANCH  10  13
ATOM     13  C   UNL     1      45.772   3.377   7.427  0.00  0.00    +0.000 C 
ATOM     14  C   UNL     1      46.361   2.147   8.125  0.00  0.00    +0.000 C 
ATOM     15  C   UNL     1      46.834   1.107   7.114  0.00  0.00    +0.000 C 
ATOM     16  C   UNL     1      47.764   1.740   6.085  0.00  0.00    +0.000 C 
ATOM     17  C   UNL     1      47.132   2.978   5.454  0.00  0.00    +0.000 C 
ATOM     18  N   UNL     1      46.751   3.962   6.470  0.00  0.00    +0.000 NA
ATOM     19  H   UNL     1      46.301   4.752   6.004  0.00  0.00    +0.000 HD
ENDBRANCH  10  13
ENDBRANCH   8   9
ENDBRANCH   5   8
ENDBRANCH   1   2
BRANCH   1  20
ATOM     20  N   UNL     1      47.554   2.910  14.934  0.00  0.00    +0.000 NA
ATOM     21  H   UNL     1      47.087   2.249  15.556  0.00  0.00    +0.000 HD
ATOM     22  H   UNL     1      48.457   3.064  15.393  0.00  0.00    +0.000 HD
ENDBRANCH   1  20
BRANCH   1  23
ATOM     23  C   UNL     1      47.754   5.376  15.302  0.00  0.00    +0.000 C 
BRANCH  23  24
ATOM     24  N   UNL     1      48.951   4.968  16.025  0.00  0.00    +0.000 N 
ATOM     25  C   UNL     1      48.996   4.786  17.382  0.00  0.00    +0.000 C 
ATOM     26  O   UNL     1      48.010   4.932  18.098  0.00  0.00    +0.000 OA
ATOM     27  H   UNL     1      49.818   5.008  15.500  0.00  0.00    +0.000 HD
BRANCH  25  28
ATOM     28  C   UNL     1      50.294   4.381  17.930  0.00  0.00    +0.000 A 
ATOM     29  C   UNL     1      51.019   5.262  18.719  0.00  0.00    +0.000 A 
ATOM     30  S   UNL     1      52.476   4.602  19.314  0.00  0.00    +0.000 S 
ATOM     31  C   UNL     1      52.213   3.136  18.490  0.00  0.00    +0.000 A 
ATOM     32  N   UNL     1      53.111   2.117  18.567  0.00  0.00    +0.000 NA
ATOM     33  C   UNL     1      52.803   1.080  17.860  0.00  0.00    +0.000 A 
ATOM     34  N   UNL     1      51.678   0.969  17.084  0.00  0.00    +0.000 N 
ATOM     35  C   UNL     1      50.721   1.951  17.013  0.00  0.00    +0.000 A 
ATOM     36  O   UNL     1      49.691   1.791  16.368  0.00  0.00    +0.000 OA
ATOM     37  C   UNL     1      51.026   3.145  17.780  0.00  0.00    +0.000 A 
ATOM     38  H   UNL     1      51.493   0.124  16.564  0.00  0.00    +0.000 HD
ENDBRANCH  25  28
ENDBRANCH  23  24
ENDBRANCH   1  23
TORSDOF 8
ENDMDL
MODEL 2
REMARK VINA RESULT:    -8.756      1.353      1.783
REMARK INTER + INTRA:         -13.716
REMARK INTER:                 -12.638
REMARK INTRA:                  -1.078
REMARK UNBOUND:                -1.121
REMARK  Name = 
REMARK  8 active torsions:
REMARK  status: ('A' for Active; 'I' for Inactive)
REMARK    1  A    between atoms: N_1  and  C_2
REMARK    2  A    between atoms: C_2  and  C_3
REMARK    3  A    between atoms: C_2  and  C_17
REMARK    4  A    between atoms: C_3  and  N_4
REMARK    5  A    between atoms: C_5  and  C_7
REMARK    6  A    between atoms: C_20  and  C_21
REMARK    7  A    between atoms: C_21  and  N_22
REMARK    8  A    between atoms: C_23  and  C_25
REMARK                            x       y       z     vdW  Elec       q    Type
REMARK                         _______ _______ _______ _____ _____    ______ ____
ROOT
ATOM      1  C   UNL     1      48.710   6.811  14.429  0.00  0.00    +0.000 C 
ENDROOT
BRANCH   1   2
ATOM      2  C   UNL     1      47.643   5.930  13.782  0.00  0.00    +0.000 A 
ATOM      3  C   UNL     1      46.867   6.410  12.727  0.00  0.00    +0.000 A 
ATOM      4  C   UNL     1      45.916   5.579  12.143  0.00  0.00    +0.000 A 
ATOM      5  C   UNL     1      45.758   4.273  12.607  0.00  0.00    +0.000 A 
ATOM      6  C   UNL     1      46.597   3.860  13.632  0.00  0.00    +0.000 A 
ATOM      7  N   UNL     1      47.522   4.650  14.223  0.00  0.00    +0.000 NA
BRANCH   5   8
ATOM      8  C   UNL     1      44.756   3.340  12.002  0.00  0.00    +0.000 C 
BRANCH   8   9
ATOM      9  N   UNL     1      45.162   2.898  10.694  0.00  0.00    +0.000 N 
ATOM     10  C   UNL     1      44.628   3.450   9.552  0.00  0.00    +0.000 C 
ATOM     11  O   UNL     1      43.717   4.273   9.563  0.00  0.00    +0.000 OA
ATOM     12  H   UNL     1      45.982   2.309  10.567  0.00  0.00    +0.000 HD
BRANCH  10  13
ATOM     13  C   UNL     1      45.233   2.899   8.247  0.00  0.00    +0.000 C 
ATOM     14  C   UNL     1      46.035   1.630   8.552  0.00  0.00    +0.000 C 
ATOM     15  C   UNL     1      46.728   1.095   7.303  0.00  0.00    +0.000 C 
ATOM     16  C   UNL     1      47.541   2.193   6.626  0.00  0.00    +0.000 C 
ATOM     17  C   UNL     1      46.694   3.439   6.382  0.00  0.00    +0.000 C 
ATOM     18  N   UNL     1      46.102   3.937   7.626  0.00  0.00    +0.000 NA
ATOM     19  H   UNL     1      45.518   4.745   7.406  0.00  0.00    +0.000 HD
ENDBRANCH  10  13
ENDBRANCH   8   9
ENDBRANCH   5   8
ENDBRANCH   1   2
BRANCH   1  20
ATOM     20  N   UNL     1      48.680   8.209  13.933  0.00  0.00    +0.000 NA
ATOM     21  H   UNL     1      47.748   8.379  13.553  0.00  0.00    +0.000 HD
ATOM     22  H   UNL     1      49.280   8.253  13.105  0.00  0.00    +0.000 HD
ENDBRANCH   1  20
BRANCH   1  23
ATOM     23  C   UNL     1      48.606   6.772  15.979  0.00  0.00    +0.000 C 
BRANCH  23  24
ATOM     24  N   UNL     1      49.701   6.037  16.598  0.00  0.00    +0.000 N 
ATOM     25  C   UNL     1      49.528   4.904  17.348  0.00  0.00    +0.000 C 
ATOM     26  O   UNL     1      48.425   4.400  17.536  0.00  0.00    +0.000 OA
ATOM     27  H   UNL     1      50.597   6.512  16.615  0.00  0.00    +0.000 HD
BRANCH  25  28
ATOM     28  C   UNL     1      50.751   4.309  17.896  0.00  0.00    +0.000 A 
ATOM     29  C   UNL     1      51.590   5.066  18.701  0.00  0.00    +0.000 A 
ATOM     30  S   UNL     1      52.932   4.195  19.294  0.00  0.00    +0.000 S 
ATOM     31  C   UNL     1      52.466   2.793  18.450  0.00  0.00    +0.000 A 
ATOM     32  N   UNL     1      53.208   1.654  18.517  0.00  0.00    +0.000 NA
ATOM     33  C   UNL     1      52.759   0.682  17.795  0.00  0.00    +0.000 A 
ATOM     34  N   UNL     1      51.634   0.743  17.012  0.00  0.00    +0.000 N 
ATOM     35  C   UNL     1      50.829   1.854  16.949  0.00  0.00    +0.000 A 
ATOM     36  O   UNL     1      49.791   1.853  16.297  0.00  0.00    +0.000 OA
ATOM     37  C   UNL     1      51.298   2.982  17.733  0.00  0.00    +0.000 A 
ATOM     38  H   UNL     1      51.333  -0.060  16.479  0.00  0.00    +0.000 HD
ENDBRANCH  25  28
ENDBRANCH  23  24
ENDBRANCH   1  23
TORSDOF 8
ENDMDL
MODEL 3
REMARK VINA RESULT:    -8.482      2.364      3.543
REMARK INTER + INTRA:         -13.322
REMARK INTER:                 -12.234
REMARK INTRA:                  -1.088
REMARK UNBOUND:                -1.121
REMARK  Name = 
REMARK  8 active torsions:
REMARK  status: ('A' for Active; 'I' for Inactive)
REMARK    1  A    between atoms: N_1  and  C_2
REMARK    2  A    between atoms: C_2  and  C_3
REMARK    3  A    between atoms: C_2  and  C_17
REMARK    4  A    between atoms: C_3  and  N_4
REMARK    5  A    between atoms: C_5  and  C_7
REMARK    6  A    between atoms: C_20  and  C_21
REMARK    7  A    between atoms: C_21  and  N_22
REMARK    8  A    between atoms: C_23  and  C_25
REMARK                            x       y       z     vdW  Elec       q    Type
REMARK                         _______ _______ _______ _____ _____    ______ ____
ROOT
ATOM      1  C   UNL     1      46.906   4.382  14.898  0.00  0.00    +0.000 C 
ENDROOT
BRANCH   1   2
ATOM      2  C   UNL     1      46.005   4.500  13.670  0.00  0.00    +0.000 A 
ATOM      3  C   UNL     1      45.652   5.751  13.165  0.00  0.00    +0.000 A 
ATOM      4  C   UNL     1      44.845   5.829  12.033  0.00  0.00    +0.000 A 
ATOM      5  C   UNL     1      44.410   4.659  11.410  0.00  0.00    +0.000 A 
ATOM      6  C   UNL     1      44.838   3.457  11.953  0.00  0.00    +0.000 A 
ATOM      7  N   UNL     1      45.614   3.353  13.056  0.00  0.00    +0.000 NA
BRANCH   5   8
ATOM      8  C   UNL     1      43.550   4.695  10.186  0.00  0.00    +0.000 C 
BRANCH   8   9
ATOM      9  N   UNL     1      44.103   3.898   9.123  0.00  0.00    +0.000 N 
ATOM     10  C   UNL     1      45.256   4.271   8.471  0.00  0.00    +0.000 C 
ATOM     11  O   UNL     1      45.831   5.337   8.676  0.00  0.00    +0.000 OA
ATOM     12  H   UNL     1      43.777   2.949   8.949  0.00  0.00    +0.000 HD
BRANCH  10  13
ATOM     13  C   UNL     1      45.734   3.260   7.411  0.00  0.00    +0.000 C 
ATOM     14  C   UNL     1      46.420   2.080   8.106  0.00  0.00    +0.000 C 
ATOM     15  C   UNL     1      46.990   1.093   7.093  0.00  0.00    +0.000 C 
ATOM     16  C   UNL     1      47.872   1.811   6.077  0.00  0.00    +0.000 C 
ATOM     17  C   UNL     1      47.142   2.995   5.449  0.00  0.00    +0.000 C 
ATOM     18  N   UNL     1      46.668   3.935   6.468  0.00  0.00    +0.000 NA
ATOM     19  H   UNL     1      46.157   4.687   6.004  0.00  0.00    +0.000 HD
ENDBRANCH  10  13
ENDBRANCH   8   9
ENDBRANCH   5   8
ENDBRANCH   1   2
BRANCH   1  20
ATOM     20  N   UNL     1      47.663   3.106  14.935  0.00  0.00    +0.000 NA
ATOM     21  H   UNL     1      47.200   2.457  14.298  0.00  0.00    +0.000 HD
ATOM     22  H   UNL     1      47.506   2.684  15.854  0.00  0.00    +0.000 HD
ENDBRANCH   1  20
BRANCH   1  23
ATOM     23  C   UNL     1      47.867   5.598  15.008  0.00  0.00    +0.000 C 
BRANCH  23  24
ATOM     24  N   UNL     1      48.130   5.985  16.388  0.00  0.00    +0.000 N 
ATOM     25  C   UNL     1      49.087   5.399  17.174  0.00  0.00    +0.000 C 
ATOM     26  O   UNL     1      49.823   4.508  16.760  0.00  0.00    +0.000 OA
ATOM     27  H   UNL     1      47.435   6.586  16.817  0.00  0.00    +0.000 HD
BRANCH  25  28
ATOM     28  C   UNL     1      49.197   5.918  18.540  0.00  0.00    +0.000 A 
ATOM     29  C   UNL     1      49.046   5.063  19.622  0.00  0.00    +0.000 A 
ATOM     30  S   UNL     1      49.262   5.829  21.131  0.00  0.00    +0.000 S 
ATOM     31  C   UNL     1      49.509   7.342  20.391  0.00  0.00    +0.000 A 
ATOM     32  N   UNL     1      49.742   8.457  21.134  0.00  0.00    +0.000 NA
ATOM     33  C   UNL     1      49.870   9.541  20.443  0.00  0.00    +0.000 A 
ATOM     34  N   UNL     1      49.788   9.611  19.076  0.00  0.00    +0.000 N 
ATOM     35  C   UNL     1      49.602   8.506  18.282  0.00  0.00    +0.000 A 
ATOM     36  O   UNL     1      49.606   8.592  17.059  0.00  0.00    +0.000 OA
ATOM     37  C   UNL     1      49.438   7.262  19.011  0.00  0.00    +0.000 A 
ATOM     38  H   UNL     1      49.909  10.492  18.598  0.00  0.00    +0.000 HD
ENDBRANCH  25  28
ENDBRANCH  23  24
ENDBRANCH   1  23
TORSDOF 8
ENDMDL
MODEL 4
REMARK VINA RESULT:    -8.292      3.609     10.325
REMARK INTER + INTRA:         -13.048
REMARK INTER:                 -12.042
REMARK INTRA:                  -1.006
REMARK UNBOUND:                -1.121
REMARK  Name = 
REMARK  8 active torsions:
REMARK  status: ('A' for Active; 'I' for Inactive)
REMARK    1  A    between atoms: N_1  and  C_2
REMARK    2  A    between atoms: C_2  and  C_3
REMARK    3  A    between atoms: C_2  and  C_17
REMARK    4  A    between atoms: C_3  and  N_4
REMARK    5  A    between atoms: C_5  and  C_7
REMARK    6  A    between atoms: C_20  and  C_21
REMARK    7  A    between atoms: C_21  and  N_22
REMARK    8  A    between atoms: C_23  and  C_25
REMARK                            x       y       z     vdW  Elec       q    Type
REMARK                         _______ _______ _______ _____ _____    ______ ____
ROOT
ATOM      1  C   UNL     1      47.885   3.323  16.628  0.00  0.00    +0.000 C 
ENDROOT
BRANCH   1   2
ATOM      2  C   UNL     1      49.328   2.995  17.008  0.00  0.00    +0.000 A 
ATOM      3  C   UNL     1      50.094   3.900  17.741  0.00  0.00    +0.000 A 
ATOM      4  C   UNL     1      51.399   3.566  18.090  0.00  0.00    +0.000 A 
ATOM      5  C   UNL     1      51.922   2.328  17.716  0.00  0.00    +0.000 A 
ATOM      6  C   UNL     1      51.081   1.470  17.022  0.00  0.00    +0.000 A 
ATOM      7  N   UNL     1      49.813   1.772  16.663  0.00  0.00    +0.000 NA
BRANCH   5   8
ATOM      8  C   UNL     1      53.316   1.922  18.078  0.00  0.00    +0.000 C 
BRANCH   8   9
ATOM      9  N   UNL     1      53.374   0.555  18.522  0.00  0.00    +0.000 N 
ATOM     10  C   UNL     1      54.448  -0.253  18.224  0.00  0.00    +0.000 C 
ATOM     11  O   UNL     1      55.370   0.096  17.491  0.00  0.00    +0.000 OA
ATOM     12  H   UNL     1      52.727   0.200  19.224  0.00  0.00    +0.000 HD
BRANCH  10  13
ATOM     13  C   UNL     1      54.366  -1.661  18.843  0.00  0.00    +0.000 C 
ATOM     14  C   UNL     1      54.855  -2.695  17.823  0.00  0.00    +0.000 C 
ATOM     15  C   UNL     1      54.709  -4.116  18.358  0.00  0.00    +0.000 C 
ATOM     16  C   UNL     1      53.289  -4.361  18.858  0.00  0.00    +0.000 C 
ATOM     17  C   UNL     1      52.853  -3.279  19.841  0.00  0.00    +0.000 C 
ATOM     18  N   UNL     1      52.963  -1.943  19.251  0.00  0.00    +0.000 NA
ATOM     19  H   UNL     1      52.696  -1.253  19.956  0.00  0.00    +0.000 HD
ENDBRANCH  10  13
ENDBRANCH   8   9
ENDBRANCH   5   8
ENDBRANCH   1   2
BRANCH   1  20
ATOM     20  N   UNL     1      46.905   2.876  17.650  0.00  0.00    +0.000 NA
ATOM     21  H   UNL     1      46.831   3.617  18.347  0.00  0.00    +0.000 HD
ATOM     22  H   UNL     1      47.336   2.107  18.171  0.00  0.00    +0.000 HD
ENDBRANCH   1  20
BRANCH   1  23
ATOM     23  C   UNL     1      47.714   4.837  16.324  0.00  0.00    +0.000 C 
BRANCH  23  24
ATOM     24  N   UNL     1      46.836   5.088  15.190  0.00  0.00    +0.000 N 
ATOM     25  C   UNL     1      47.241   5.704  14.036  0.00  0.00    +0.000 C 
ATOM     26  O   UNL     1      48.397   6.074  13.857  0.00  0.00    +0.000 OA
ATOM     27  H   UNL     1      45.845   4.960  15.363  0.00  0.00    +0.000 HD
BRANCH  25  28
ATOM     28  C   UNL     1      46.209   5.876  13.008  0.00  0.00    +0.000 A 
ATOM     29  C   UNL     1      45.842   7.150  12.599  0.00  0.00    +0.000 A 
ATOM     30  S   UNL     1      44.671   7.157  11.358  0.00  0.00    +0.000 S 
ATOM     31  C   UNL     1      44.574   5.457  11.365  0.00  0.00    +0.000 A 
ATOM     32  N   UNL     1      43.728   4.799  10.527  0.00  0.00    +0.000 NA
ATOM     33  C   UNL     1      43.728   3.515  10.669  0.00  0.00    +0.000 A 
ATOM     34  N   UNL     1      44.499   2.828  11.571  0.00  0.00    +0.000 N 
ATOM     35  C   UNL     1      45.402   3.445  12.403  0.00  0.00    +0.000 A 
ATOM     36  O   UNL     1      46.129   2.796  13.147  0.00  0.00    +0.000 OA
ATOM     37  C   UNL     1      45.430   4.892  12.293  0.00  0.00    +0.000 A 
ATOM     38  H   UNL     1      44.458   1.821  11.622  0.00  0.00    +0.000 HD
ENDBRANCH  25  28
ENDBRANCH  23  24
ENDBRANCH   1  23
TORSDOF 8
ENDMDL
MODEL 5
REMARK VINA RESULT:    -8.270      2.394      3.200
REMARK INTER + INTRA:         -13.017
REMARK INTER:                 -11.851
REMARK INTRA:                  -1.166
REMARK UNBOUND:                -1.121
REMARK  Name = 
REMARK  8 active torsions:
REMARK  status: ('A' for Active; 'I' for Inactive)
REMARK    1  A    between atoms: N_1  and  C_2
REMARK    2  A    between atoms: C_2  and  C_3
REMARK    3  A    between atoms: C_2  and  C_17
REMARK    4  A    between atoms: C_3  and  N_4
REMARK    5  A    between atoms: C_5  and  C_7
REMARK    6  A    between atoms: C_20  and  C_21
REMARK    7  A    between atoms: C_21  and  N_22
REMARK    8  A    between atoms: C_23  and  C_25
REMARK                            x       y       z     vdW  Elec       q    Type
REMARK                         _______ _______ _______ _____ _____    ______ ____
ROOT
ATOM      1  C   UNL     1      47.926   8.711  13.520  0.00  0.00    +0.000 C 
ENDROOT
BRANCH   1   2
ATOM      2  C   UNL     1      46.875   7.878  12.789  0.00  0.00    +0.000 A 
ATOM      3  C   UNL     1      45.638   8.428  12.454  0.00  0.00    +0.000 A 
ATOM      4  C   UNL     1      44.706   7.653  11.770  0.00  0.00    +0.000 A 
ATOM      5  C   UNL     1      45.023   6.341  11.415  0.00  0.00    +0.000 A 
ATOM      6  C   UNL     1      46.288   5.883  11.751  0.00  0.00    +0.000 A 
ATOM      7  N   UNL     1      47.209   6.612  12.422  0.00  0.00    +0.000 NA
BRANCH   5   8
ATOM      8  C   UNL     1      44.057   5.474  10.671  0.00  0.00    +0.000 C 
BRANCH   8   9
ATOM      9  N   UNL     1      44.693   4.781   9.582  0.00  0.00    +0.000 N 
ATOM     10  C   UNL     1      44.486   3.438   9.365  0.00  0.00    +0.000 C 
ATOM     11  O   UNL     1      43.835   2.726  10.125  0.00  0.00    +0.000 OA
ATOM     12  H   UNL     1      45.157   5.290   8.832  0.00  0.00    +0.000 HD
BRANCH  10  13
ATOM     13  C   UNL     1      45.194   2.886   8.113  0.00  0.00    +0.000 C 
ATOM     14  C   UNL     1      46.034   1.665   8.500  0.00  0.00    +0.000 C 
ATOM     15  C   UNL     1      46.826   1.135   7.309  0.00  0.00    +0.000 C 
ATOM     16  C   UNL     1      47.626   2.255   6.652  0.00  0.00    +0.000 C 
ATOM     17  C   UNL     1      46.738   3.452   6.326  0.00  0.00    +0.000 C 
ATOM     18  N   UNL     1      46.049   3.950   7.518  0.00  0.00    +0.000 NA
ATOM     19  H   UNL     1      45.442   4.724   7.243  0.00  0.00    +0.000 HD
ENDBRANCH  10  13
ENDBRANCH   8   9
ENDBRANCH   5   8
ENDBRANCH   1   2
BRANCH   1  20
ATOM     20  N   UNL     1      47.498   9.108  14.885  0.00  0.00    +0.000 NA
ATOM     21  H   UNL     1      46.521   9.398  14.827  0.00  0.00    +0.000 HD
ATOM     22  H   UNL     1      47.986   9.977  15.118  0.00  0.00    +0.000 HD
ENDBRANCH   1  20
BRANCH   1  23
ATOM     23  C   UNL     1      49.295   7.977  13.561  0.00  0.00    +0.000 C 
BRANCH  23  24
ATOM     24  N   UNL     1      49.364   6.973  14.614  0.00  0.00    +0.000 N 
ATOM     25  C   UNL     1      49.808   7.231  15.884  0.00  0.00    +0.000 C 
ATOM     26  O   UNL     1      50.162   8.350  16.243  0.00  0.00    +0.000 OA
ATOM     27  H   UNL     1      49.250   6.011  14.314  0.00  0.00    +0.000 HD
BRANCH  25  28
ATOM     28  C   UNL     1      49.812   6.089  16.803  0.00  0.00    +0.000 A 
ATOM     29  C   UNL     1      50.842   5.941  17.722  0.00  0.00    +0.000 A 
ATOM     30  S   UNL     1      50.653   4.589  18.744  0.00  0.00    +0.000 S 
ATOM     31  C   UNL     1      49.217   4.123  17.957  0.00  0.00    +0.000 A 
ATOM     32  N   UNL     1      48.534   3.011  18.342  0.00  0.00    +0.000 NA
ATOM     33  C   UNL     1      47.486   2.756  17.632  0.00  0.00    +0.000 A 
ATOM     34  N   UNL     1      47.058   3.513  16.571  0.00  0.00    +0.000 N 
ATOM     35  C   UNL     1      47.687   4.668  16.176  0.00  0.00    +0.000 A 
ATOM     36  O   UNL     1      47.237   5.361  15.270  0.00  0.00    +0.000 OA
ATOM     37  C   UNL     1      48.880   4.993  16.935  0.00  0.00    +0.000 A 
ATOM     38  H   UNL     1      46.222   3.261  16.064  0.00  0.00    +0.000 HD
ENDBRANCH  25  28
ENDBRANCH  23  24
ENDBRANCH   1  23
TORSDOF 8
ENDMDL
MODEL 6
REMARK VINA RESULT:    -7.959      2.441      3.016
REMARK INTER + INTRA:         -12.570
REMARK INTER:                 -11.482
REMARK INTRA:                  -1.087
REMARK UNBOUND:                -1.121
REMARK  Name = 
REMARK  8 active torsions:
REMARK  status: ('A' for Active; 'I' for Inactive)
REMARK    1  A    between atoms: N_1  and  C_2
REMARK    2  A    between atoms: C_2  and  C_3
REMARK    3  A    between atoms: C_2  and  C_17
REMARK    4  A    between atoms: C_3  and  N_4
REMARK    5  A    between atoms: C_5  and  C_7
REMARK    6  A    between atoms: C_20  and  C_21
REMARK    7  A    between atoms: C_21  and  N_22
REMARK    8  A    between atoms: C_23  and  C_25
REMARK                            x       y       z     vdW  Elec       q    Type
REMARK                         _______ _______ _______ _____ _____    ______ ____
ROOT
ATOM      1  C   UNL     1      47.974   8.162  13.967  0.00  0.00    +0.000 C 
ENDROOT
BRANCH   1   2
ATOM      2  C   UNL     1      46.896   7.486  13.122  0.00  0.00    +0.000 A 
ATOM      3  C   UNL     1      45.837   8.225  12.596  0.00  0.00    +0.000 A 
ATOM      4  C   UNL     1      44.879   7.587  11.813  0.00  0.00    +0.000 A 
ATOM      5  C   UNL     1      44.995   6.222  11.552  0.00  0.00    +0.000 A 
ATOM      6  C   UNL     1      46.099   5.568  12.080  0.00  0.00    +0.000 A 
ATOM      7  N   UNL     1      47.038   6.162  12.851  0.00  0.00    +0.000 NA
BRANCH   5   8
ATOM      8  C   UNL     1      43.995   5.496  10.707  0.00  0.00    +0.000 C 
BRANCH   8   9
ATOM      9  N   UNL     1      44.625   4.804   9.614  0.00  0.00    +0.000 N 
ATOM     10  C   UNL     1      44.459   3.450   9.430  0.00  0.00    +0.000 C 
ATOM     11  O   UNL     1      43.856   2.731  10.223  0.00  0.00    +0.000 OA
ATOM     12  H   UNL     1      45.048   5.312   8.840  0.00  0.00    +0.000 HD
BRANCH  10  13
ATOM     13  C   UNL     1      45.151   2.897   8.170  0.00  0.00    +0.000 C 
ATOM     14  C   UNL     1      45.996   1.676   8.545  0.00  0.00    +0.000 C 
ATOM     15  C   UNL     1      46.773   1.146   7.344  0.00  0.00    +0.000 C 
ATOM     16  C   UNL     1      47.564   2.265   6.676  0.00  0.00    +0.000 C 
ATOM     17  C   UNL     1      46.671   3.462   6.361  0.00  0.00    +0.000 C 
ATOM     18  N   UNL     1      45.998   3.960   7.562  0.00  0.00    +0.000 NA
ATOM     19  H   UNL     1      45.387   4.734   7.295  0.00  0.00    +0.000 HD
ENDBRANCH  10  13
ENDBRANCH   8   9
ENDBRANCH   5   8
ENDBRANCH   1   2
BRANCH   1  20
ATOM     20  N   UNL     1      47.420   8.864  15.152  0.00  0.00    +0.000 NA
ATOM     21  H   UNL     1      46.761   9.566  14.812  0.00  0.00    +0.000 HD
ATOM     22  H   UNL     1      48.174   9.428  15.554  0.00  0.00    +0.000 HD
ENDBRANCH   1  20
BRANCH   1  23
ATOM     23  C   UNL     1      49.074   7.150  14.389  0.00  0.00    +0.000 C 
BRANCH  23  24
ATOM     24  N   UNL     1      49.089   6.900  15.824  0.00  0.00    +0.000 N 
ATOM     25  C   UNL     1      48.563   5.778  16.407  0.00  0.00    +0.000 C 
ATOM     26  O   UNL     1      48.053   4.874  15.752  0.00  0.00    +0.000 OA
ATOM     27  H   UNL     1      49.339   7.692  16.407  0.00  0.00    +0.000 HD
BRANCH  25  28
ATOM     28  C   UNL     1      48.665   5.709  17.868  0.00  0.00    +0.000 A 
ATOM     29  C   UNL     1      47.558   5.991  18.656  0.00  0.00    +0.000 A 
ATOM     30  S   UNL     1      47.846   5.806  20.327  0.00  0.00    +0.000 S 
ATOM     31  C   UNL     1      49.477   5.397  20.057  0.00  0.00    +0.000 A 
ATOM     32  N   UNL     1      50.312   5.122  21.095  0.00  0.00    +0.000 NA
ATOM     33  C   UNL     1      51.530   4.868  20.746  0.00  0.00    +0.000 A 
ATOM     34  N   UNL     1      51.988   4.862  19.454  0.00  0.00    +0.000 N 
ATOM     35  C   UNL     1      51.172   5.087  18.372  0.00  0.00    +0.000 A 
ATOM     36  O   UNL     1      51.598   5.003  17.225  0.00  0.00    +0.000 OA
ATOM     37  C   UNL     1      49.795   5.392  18.711  0.00  0.00    +0.000 A 
ATOM     38  H   UNL     1      52.953   4.645  19.251  0.00  0.00    +0.000 HD
ENDBRANCH  25  28
ENDBRANCH  23  24
ENDBRANCH   1  23
TORSDOF 8
ENDMDL
MODEL 7
REMARK VINA RESULT:    -7.931      2.873      9.297
REMARK INTER + INTRA:         -12.530
REMARK INTER:                 -11.777
REMARK INTRA:                  -0.753
REMARK UNBOUND:                -1.121
REMARK  Name = 
REMARK  8 active torsions:
REMARK  status: ('A' for Active; 'I' for Inactive)
REMARK    1  A    between atoms: N_1  and  C_2
REMARK    2  A    between atoms: C_2  and  C_3
REMARK    3  A    between atoms: C_2  and  C_17
REMARK    4  A    between atoms: C_3  and  N_4
REMARK    5  A    between atoms: C_5  and  C_7
REMARK    6  A    between atoms: C_20  and  C_21
REMARK    7  A    between atoms: C_21  and  N_22
REMARK    8  A    between atoms: C_23  and  C_25
REMARK                            x       y       z     vdW  Elec       q    Type
REMARK                         _______ _______ _______ _____ _____    ______ ____
ROOT
ATOM      1  C   UNL     1      48.554   7.691  13.020  0.00  0.00    +0.000 C 
ENDROOT
BRANCH   1   2
ATOM      2  C   UNL     1      48.348   6.643  14.112  0.00  0.00    +0.000 A 
ATOM      3  C   UNL     1      48.772   6.884  15.419  0.00  0.00    +0.000 A 
ATOM      4  C   UNL     1      48.554   5.919  16.398  0.00  0.00    +0.000 A 
ATOM      5  C   UNL     1      47.903   4.730  16.067  0.00  0.00    +0.000 A 
ATOM      6  C   UNL     1      47.478   4.587  14.755  0.00  0.00    +0.000 A 
ATOM      7  N   UNL     1      47.685   5.503  13.782  0.00  0.00    +0.000 NA
BRANCH   5   8
ATOM      8  C   UNL     1      47.637   3.670  17.089  0.00  0.00    +0.000 C 
BRANCH   8   9
ATOM      9  N   UNL     1      48.855   3.191  17.688  0.00  0.00    +0.000 N 
ATOM     10  C   UNL     1      49.674   2.298  17.035  0.00  0.00    +0.000 C 
ATOM     11  O   UNL     1      49.385   1.781  15.959  0.00  0.00    +0.000 OA
ATOM     12  H   UNL     1      49.246   3.634  18.517  0.00  0.00    +0.000 HD
BRANCH  10  13
ATOM     13  C   UNL     1      50.965   1.954  17.801  0.00  0.00    +0.000 C 
ATOM     14  C   UNL     1      51.849   3.201  17.897  0.00  0.00    +0.000 C 
ATOM     15  C   UNL     1      53.182   2.890  18.571  0.00  0.00    +0.000 C 
ATOM     16  C   UNL     1      53.860   1.700  17.900  0.00  0.00    +0.000 C 
ATOM     17  C   UNL     1      52.915   0.505  17.806  0.00  0.00    +0.000 C 
ATOM     18  N   UNL     1      51.680   0.852  17.100  0.00  0.00    +0.000 NA
ATOM     19  H   UNL     1      51.068   0.034  17.095  0.00  0.00    +0.000 HD
ENDBRANCH  10  13
ENDBRANCH   8   9
ENDBRANCH   5   8
ENDBRANCH   1   2
BRANCH   1  20
ATOM     20  N   UNL     1      49.711   7.387  12.141  0.00  0.00    +0.000 NA
ATOM     21  H   UNL     1      49.600   7.935  11.288  0.00  0.00    +0.000 HD
ATOM     22  H   UNL     1      49.602   6.423  11.815  0.00  0.00    +0.000 HD
ENDBRANCH   1  20
BRANCH   1  23
ATOM     23  C   UNL     1      47.261   7.893  12.183  0.00  0.00    +0.000 C 
BRANCH  23  24
ATOM     24  N   UNL     1      46.566   6.642  11.912  0.00  0.00    +0.000 N 
ATOM     25  C   UNL     1      45.228   6.561  11.627  0.00  0.00    +0.000 C 
ATOM     26  O   UNL     1      44.510   7.554  11.553  0.00  0.00    +0.000 OA
ATOM     27  H   UNL     1      47.078   5.795  12.134  0.00  0.00    +0.000 HD
BRANCH  25  28
ATOM     28  C   UNL     1      44.706   5.212  11.390  0.00  0.00    +0.000 A 
ATOM     29  C   UNL     1      43.951   4.579  12.367  0.00  0.00    +0.000 A 
ATOM     30  S   UNL     1      43.381   3.041  11.898  0.00  0.00    +0.000 S 
ATOM     31  C   UNL     1      44.171   3.146  10.394  0.00  0.00    +0.000 A 
ATOM     32  N   UNL     1      44.099   2.131   9.490  0.00  0.00    +0.000 NA
ATOM     33  C   UNL     1      44.779   2.329   8.410  0.00  0.00    +0.000 A 
ATOM     34  N   UNL     1      45.524   3.450   8.149  0.00  0.00    +0.000 N 
ATOM     35  C   UNL     1      45.589   4.519   9.010  0.00  0.00    +0.000 A 
ATOM     36  O   UNL     1      46.205   5.537   8.715  0.00  0.00    +0.000 OA
ATOM     37  C   UNL     1      44.852   4.341  10.247  0.00  0.00    +0.000 A 
ATOM     38  H   UNL     1      46.025   3.545   7.278  0.00  0.00    +0.000 HD
ENDBRANCH  25  28
ENDBRANCH  23  24
ENDBRANCH   1  23
TORSDOF 8
ENDMDL
MODEL 8
REMARK VINA RESULT:    -7.782      2.238      3.716
REMARK INTER + INTRA:         -12.315
REMARK INTER:                 -11.030
REMARK INTRA:                  -1.284
REMARK UNBOUND:                -1.121
REMARK  Name = 
REMARK  8 active torsions:
REMARK  status: ('A' for Active; 'I' for Inactive)
REMARK    1  A    between atoms: N_1  and  C_2
REMARK    2  A    between atoms: C_2  and  C_3
REMARK    3  A    between atoms: C_2  and  C_17
REMARK    4  A    between atoms: C_3  and  N_4
REMARK    5  A    between atoms: C_5  and  C_7
REMARK    6  A    between atoms: C_20  and  C_21
REMARK    7  A    between atoms: C_21  and  N_22
REMARK    8  A    between atoms: C_23  and  C_25
REMARK                            x       y       z     vdW  Elec       q    Type
REMARK                         _______ _______ _______ _____ _____    ______ ____
ROOT
ATOM      1  C   UNL     1      47.979   4.660  17.909  0.00  0.00    +0.000 C 
ENDROOT
BRANCH   1   2
ATOM      2  C   UNL     1      47.882   5.212  16.488  0.00  0.00    +0.000 A 
ATOM      3  C   UNL     1      48.605   6.344  16.114  0.00  0.00    +0.000 A 
ATOM      4  C   UNL     1      48.513   6.814  14.807  0.00  0.00    +0.000 A 
ATOM      5  C   UNL     1      47.713   6.141  13.883  0.00  0.00    +0.000 A 
ATOM      6  C   UNL     1      47.059   5.001  14.326  0.00  0.00    +0.000 A 
ATOM      7  N   UNL     1      47.123   4.528  15.591  0.00  0.00    +0.000 NA
BRANCH   5   8
ATOM      8  C   UNL     1      47.592   6.603  12.465  0.00  0.00    +0.000 C 
BRANCH   8   9
ATOM      9  N   UNL     1      46.749   5.731  11.691  0.00  0.00    +0.000 N 
ATOM     10  C   UNL     1      45.579   6.181  11.123  0.00  0.00    +0.000 C 
ATOM     11  O   UNL     1      45.129   7.308  11.311  0.00  0.00    +0.000 OA
ATOM     12  H   UNL     1      47.077   4.819  11.379  0.00  0.00    +0.000 HD
BRANCH  10  13
ATOM     13  C   UNL     1      44.846   5.125  10.274  0.00  0.00    +0.000 C 
ATOM     14  C   UNL     1      44.829   3.790  11.025  0.00  0.00    +0.000 C 
ATOM     15  C   UNL     1      44.190   2.688  10.186  0.00  0.00    +0.000 C 
ATOM     16  C   UNL     1      44.839   2.615   8.807  0.00  0.00    +0.000 C 
ATOM     17  C   UNL     1      44.855   3.983   8.130  0.00  0.00    +0.000 C 
ATOM     18  N   UNL     1      45.529   4.984   8.959  0.00  0.00    +0.000 NA
ATOM     19  H   UNL     1      45.482   5.886   8.482  0.00  0.00    +0.000 HD
ENDBRANCH  10  13
ENDBRANCH   8   9
ENDBRANCH   5   8
ENDBRANCH   1   2
BRANCH   1  20
ATOM     20  N   UNL     1      46.781   4.969  18.729  0.00  0.00    +0.000 NA
ATOM     21  H   UNL     1      46.840   5.951  18.999  0.00  0.00    +0.000 HD
ATOM     22  H   UNL     1      46.884   4.475  19.620  0.00  0.00    +0.000 HD
ENDBRANCH   1  20
BRANCH   1  23
ATOM     23  C   UNL     1      48.265   3.133  17.901  0.00  0.00    +0.000 C 
BRANCH  23  24
ATOM     24  N   UNL     1      49.677   2.824  18.084  0.00  0.00    +0.000 N 
ATOM     25  C   UNL     1      50.430   2.138  17.168  0.00  0.00    +0.000 C 
ATOM     26  O   UNL     1      49.971   1.748  16.099  0.00  0.00    +0.000 OA
ATOM     27  H   UNL     1      50.043   2.971  19.018  0.00  0.00    +0.000 HD
BRANCH  25  28
ATOM     28  C   UNL     1      51.832   1.915  17.533  0.00  0.00    +0.000 A 
ATOM     29  C   UNL     1      52.317   0.622  17.671  0.00  0.00    +0.000 A 
ATOM     30  S   UNL     1      53.980   0.554  18.043  0.00  0.00    +0.000 S 
ATOM     31  C   UNL     1      54.096   2.252  18.088  0.00  0.00    +0.000 A 
ATOM     32  N   UNL     1      55.276   2.867  18.371  0.00  0.00    +0.000 NA
ATOM     33  C   UNL     1      55.209   4.157  18.410  0.00  0.00    +0.000 A 
ATOM     34  N   UNL     1      54.070   4.888  18.192  0.00  0.00    +0.000 N 
ATOM     35  C   UNL     1      52.867   4.313  17.858  0.00  0.00    +0.000 A 
ATOM     36  O   UNL     1      51.885   4.998  17.597  0.00  0.00    +0.000 OA
ATOM     37  C   UNL     1      52.886   2.863  17.813  0.00  0.00    +0.000 A 
ATOM     38  H   UNL     1      54.090   5.896  18.228  0.00  0.00    +0.000 HD
ENDBRANCH  25  28
ENDBRANCH  23  24
ENDBRANCH   1  23
TORSDOF 8
ENDMDL
MODEL 9
REMARK VINA RESULT:    -7.666      3.105      4.415
REMARK INTER + INTRA:         -12.148
REMARK INTER:                 -10.660
REMARK INTRA:                  -1.488
REMARK UNBOUND:                -1.121
REMARK  Name = 
REMARK  8 active torsions:
REMARK  status: ('A' for Active; 'I' for Inactive)
REMARK    1  A    between atoms: N_1  and  C_2
REMARK    2  A    between atoms: C_2  and  C_3
REMARK    3  A    between atoms: C_2  and  C_17
REMARK    4  A    between atoms: C_3  and  N_4
REMARK    5  A    between atoms: C_5  and  C_7
REMARK    6  A    between atoms: C_20  and  C_21
REMARK    7  A    between atoms: C_21  and  N_22
REMARK    8  A    between atoms: C_23  and  C_25
REMARK                            x       y       z     vdW  Elec       q    Type
REMARK                         _______ _______ _______ _____ _____    ______ ____
ROOT
ATOM      1  C   UNL     1      48.788   8.940  13.743  0.00  0.00    +0.000 C 
ENDROOT
BRANCH   1   2
ATOM      2  C   UNL     1      47.584   8.262  13.092  0.00  0.00    +0.000 A 
ATOM      3  C   UNL     1      46.320   8.847  13.151  0.00  0.00    +0.000 A 
ATOM      4  C   UNL     1      45.244   8.217  12.532  0.00  0.00    +0.000 A 
ATOM      5  C   UNL     1      45.443   7.018  11.848  0.00  0.00    +0.000 A 
ATOM      6  C   UNL     1      46.738   6.524  11.803  0.00  0.00    +0.000 A 
ATOM      7  N   UNL     1      47.799   7.110  12.402  0.00  0.00    +0.000 NA
BRANCH   5   8
ATOM      8  C   UNL     1      44.319   6.310  11.159  0.00  0.00    +0.000 C 
BRANCH   8   9
ATOM      9  N   UNL     1      44.795   5.455  10.104  0.00  0.00    +0.000 N 
ATOM     10  C   UNL     1      44.239   4.217   9.877  0.00  0.00    +0.000 C 
ATOM     11  O   UNL     1      43.381   3.720  10.602  0.00  0.00    +0.000 OA
ATOM     12  H   UNL     1      45.417   5.807   9.379  0.00  0.00    +0.000 HD
BRANCH  10  13
ATOM     13  C   UNL     1      44.831   3.475   8.664  0.00  0.00    +0.000 C 
ATOM     14  C   UNL     1      45.435   2.145   9.124  0.00  0.00    +0.000 C 
ATOM     15  C   UNL     1      46.114   1.413   7.971  0.00  0.00    +0.000 C 
ATOM     16  C   UNL     1      47.102   2.329   7.258  0.00  0.00    +0.000 C 
ATOM     17  C   UNL     1      46.446   3.648   6.858  0.00  0.00    +0.000 C 
ATOM     18  N   UNL     1      45.863   4.330   8.015  0.00  0.00    +0.000 NA
ATOM     19  H   UNL     1      45.406   5.184   7.693  0.00  0.00    +0.000 HD
ENDBRANCH  10  13
ENDBRANCH   8   9
ENDBRANCH   5   8
ENDBRANCH   1   2
BRANCH   1  20
ATOM     20  N   UNL     1      48.408   9.834  14.865  0.00  0.00    +0.000 NA
ATOM     21  H   UNL     1      48.596   9.333  15.733  0.00  0.00    +0.000 HD
ATOM     22  H   UNL     1      47.387   9.916  14.859  0.00  0.00    +0.000 HD
ENDBRANCH   1  20
BRANCH   1  23
ATOM     23  C   UNL     1      49.842   7.895  14.202  0.00  0.00    +0.000 C 
BRANCH  23  24
ATOM     24  N   UNL     1      49.700   7.531  15.605  0.00  0.00    +0.000 N 
ATOM     25  C   UNL     1      48.991   6.443  16.041  0.00  0.00    +0.000 C 
ATOM     26  O   UNL     1      48.436   5.666  15.269  0.00  0.00    +0.000 OA
ATOM     27  H   UNL     1      49.990   8.235  16.275  0.00  0.00    +0.000 HD
BRANCH  25  28
ATOM     28  C   UNL     1      48.955   6.244  17.493  0.00  0.00    +0.000 A 
ATOM     29  C   UNL     1      49.411   5.054  18.042  0.00  0.00    +0.000 A 
ATOM     30  S   UNL     1      49.345   5.022  19.747  0.00  0.00    +0.000 S 
ATOM     31  C   UNL     1      48.653   6.576  19.805  0.00  0.00    +0.000 A 
ATOM     32  N   UNL     1      48.327   7.155  20.993  0.00  0.00    +0.000 NA
ATOM     33  C   UNL     1      47.773   8.317  20.885  0.00  0.00    +0.000 A 
ATOM     34  N   UNL     1      47.515   8.953  19.698  0.00  0.00    +0.000 N 
ATOM     35  C   UNL     1      47.868   8.429  18.478  0.00  0.00    +0.000 A 
ATOM     36  O   UNL     1      47.689   9.056  17.440  0.00  0.00    +0.000 OA
ATOM     37  C   UNL     1      48.483   7.116  18.543  0.00  0.00    +0.000 A 
ATOM     38  H   UNL     1      47.087   9.868  19.687  0.00  0.00    +0.000 HD
ENDBRANCH  25  28
ENDBRANCH  23  24
ENDBRANCH   1  23
TORSDOF 8
ENDMDL
