MODEL 1
REMARK VINA RESULT:    -9.334      0.000      0.000
REMARK INTER + INTRA:         -11.873
REMARK INTER:                 -11.790
REMARK INTRA:                  -0.083
REMARK UNBOUND:                -0.083
REMARK  Name = 
REMARK  5 active torsions:
REMARK  status: ('A' for Active; 'I' for Inactive)
REMARK    1  A    between atoms: C_2  and  C_4
REMARK    2  A    between atoms: N_8  and  C_9
REMARK    3  A    between atoms: C_9  and  C_10
REMARK    4  A    between atoms: C_14  and  C_15
REMARK    5  A    between atoms: C_19  and  O_20
REMARK                            x       y       z     vdW  Elec       q    Type
REMARK                         _______ _______ _______ _____ _____    ______ ____
ROOT
ATOM      1  C   UNL     1      43.857   4.944  11.449  0.00  0.00    +0.000 C 
ATOM      2  C   UNL     1      42.703   5.162  12.417  0.00  0.00    +0.000 C 
ATOM      3  C   UNL     1      42.821   6.019  11.199  0.00  0.00    +0.000 C 
ENDROOT
BRANCH   1   8
ATOM      4  C   UNL     1      46.368   2.713   7.611  0.00  0.00    +0.000 A 
ATOM      5  C   UNL     1      45.987   1.813   8.574  0.00  0.00    +0.000 A 
ATOM      6  N   UNL     1      45.188   2.132   9.617  0.00  0.00    +0.000 NA
ATOM      7  C   UNL     1      44.784   3.412   9.710  0.00  0.00    +0.000 A 
ATOM      8  N   UNL     1      43.846   3.666  10.715  0.00  0.00    +0.000 N 
ATOM      9  N   UNL     1      45.177   4.378   8.863  0.00  0.00    +0.000 NA
ATOM     10  C   UNL     1      45.963   4.007   7.826  0.00  0.00    +0.000 A 
ATOM     11  H   UNL     1      43.857   2.830  11.292  0.00  0.00    +0.000 HD
BRANCH   4  13
ATOM     12  N   UNL     1      47.065   3.213   5.344  0.00  0.00    +0.000 N 
ATOM     13  C   UNL     1      47.127   2.353   6.412  0.00  0.00    +0.000 C 
ATOM     14  O   UNL     1      47.837   1.356   6.380  0.00  0.00    +0.000 OA
ATOM     15  H   UNL     1      47.708   3.023   4.583  0.00  0.00    +0.000 HD
ATOM     16  H   UNL     1      46.719   4.159   5.421  0.00  0.00    +0.000 HD
ENDBRANCH   4  13
ENDBRANCH   1   8
BRANCH   1  17
ATOM     17  C   UNL     1      45.264   5.338  11.881  0.00  0.00    +0.000 A 
ATOM     18  C   UNL     1      46.024   6.263  11.149  0.00  0.00    +0.000 A 
ATOM     19  C   UNL     1      47.232   6.755  11.639  0.00  0.00    +0.000 A 
ATOM     20  C   UNL     1      47.698   6.341  12.888  0.00  0.00    +0.000 A 
ATOM     21  C   UNL     1      46.979   5.414  13.661  0.00  0.00    +0.000 A 
ATOM     22  C   UNL     1      45.783   4.906  13.118  0.00  0.00    +0.000 A 
BRANCH  21  23
ATOM     23  C   UNL     1      47.415   5.042  15.021  0.00  0.00    +0.000 A 
ATOM     24  C   UNL     1      48.448   5.727  15.674  0.00  0.00    +0.000 A 
ATOM     25  N   UNL     1      48.883   5.479  16.938  0.00  0.00    +0.000 NA
ATOM     26  C   UNL     1      48.244   4.494  17.605  0.00  0.00    +0.000 A 
ATOM     27  C   UNL     1      47.209   3.754  17.061  0.00  0.00    +0.000 A 
ATOM     28  C   UNL     1      46.795   4.026  15.762  0.00  0.00    +0.000 A 
BRANCH  27  29
ATOM     29  O   UNL     1      46.565   2.770  17.748  0.00  0.00    +0.000 OA
ATOM     30  H   UNL     1      46.776   1.911  17.345  0.00  0.00    +0.000 HD
ENDBRANCH  27  29
ENDBRANCH  21  23
ENDBRANCH   1  17
TORSDOF 5
ENDMDL
MODEL 2
REMARK VINA RESULT:    -9.034      2.631      3.620
REMARK INTER + INTRA:         -11.494
REMARK INTER:                 -10.668
REMARK INTRA:                  -0.826
REMARK UNBOUND:                -0.083
REMARK  Name = 
REMARK  5 active torsions:
REMARK  status: ('A' for Active; 'I' for Inactive)
REMARK    1  A    between atoms: C_2  and  C_4
REMARK    2  A    between atoms: N_8  and  C_9
REMARK    3  A    between atoms: C_9  and  C_10
REMARK    4  A    between atoms: C_14  and  C_15
REMARK    5  A    between atoms: C_19  and  O_20
REMARK                            x       y       z     vdW  Elec       q    Type
REMARK                         _______ _______ _______ _____ _____    ______ ____
ROOT
ATOM      1  C   UNL     1      43.753   4.954  11.344  0.00  0.00    +0.000 C 
ATOM      2  C   UNL     1      42.429   5.380  11.962  0.00  0.00    +0.000 C 
ATOM      3  C   UNL     1      43.043   6.208  10.880  0.00  0.00    +0.000 C 
ENDROOT
BRANCH   1   8
ATOM      4  C   UNL     1      46.425   2.702   7.629  0.00  0.00    +0.000 A 
ATOM      5  C   UNL     1      45.911   1.796   8.521  0.00  0.00    +0.000 A 
ATOM      6  N   UNL     1      45.052   2.129   9.509  0.00  0.00    +0.000 NA
ATOM      7  C   UNL     1      44.722   3.428   9.623  0.00  0.00    +0.000 A 
ATOM      8  N   UNL     1      43.723   3.706  10.559  0.00  0.00    +0.000 N 
ATOM      9  N   UNL     1      45.242   4.396   8.850  0.00  0.00    +0.000 NA
ATOM     10  C   UNL     1      46.086   4.011   7.864  0.00  0.00    +0.000 A 
ATOM     11  H   UNL     1      43.634   2.851  11.101  0.00  0.00    +0.000 HD
BRANCH   4  13
ATOM     12  N   UNL     1      47.205   3.154   5.379  0.00  0.00    +0.000 N 
ATOM     13  C   UNL     1      47.256   2.337   6.480  0.00  0.00    +0.000 C 
ATOM     14  O   UNL     1      48.012   1.375   6.519  0.00  0.00    +0.000 OA
ATOM     15  H   UNL     1      47.891   2.968   4.655  0.00  0.00    +0.000 HD
ATOM     16  H   UNL     1      46.813   4.085   5.404  0.00  0.00    +0.000 HD
ENDBRANCH   4  13
ENDBRANCH   1   8
BRANCH   1  17
ATOM     17  C   UNL     1      45.024   5.070  12.176  0.00  0.00    +0.000 A 
ATOM     18  C   UNL     1      45.446   4.030  13.018  0.00  0.00    +0.000 A 
ATOM     19  C   UNL     1      46.694   4.063  13.637  0.00  0.00    +0.000 A 
ATOM     20  C   UNL     1      47.557   5.137  13.409  0.00  0.00    +0.000 A 
ATOM     21  C   UNL     1      47.184   6.205  12.579  0.00  0.00    +0.000 A 
ATOM     22  C   UNL     1      45.901   6.160  12.001  0.00  0.00    +0.000 A 
BRANCH  21  23
ATOM     23  C   UNL     1      48.123   7.297  12.258  0.00  0.00    +0.000 A 
ATOM     24  C   UNL     1      47.678   8.607  12.030  0.00  0.00    +0.000 A 
ATOM     25  N   UNL     1      48.475   9.676  11.771  0.00  0.00    +0.000 NA
ATOM     26  C   UNL     1      49.805   9.438  11.748  0.00  0.00    +0.000 A 
ATOM     27  C   UNL     1      50.356   8.186  11.963  0.00  0.00    +0.000 A 
ATOM     28  C   UNL     1      49.513   7.111  12.214  0.00  0.00    +0.000 A 
BRANCH  27  29
ATOM     29  O   UNL     1      51.699   7.960  11.947  0.00  0.00    +0.000 OA
ATOM     30  H   UNL     1      52.021   8.021  11.032  0.00  0.00    +0.000 HD
ENDBRANCH  27  29
ENDBRANCH  21  23
ENDBRANCH   1  17
TORSDOF 5
ENDMDL
MODEL 3
REMARK VINA RESULT:    -7.452      1.906      7.812
REMARK INTER + INTRA:          -9.495
REMARK INTER:                  -9.870
REMARK INTRA:                   0.375
REMARK UNBOUND:                -0.083
REMARK  Name = 
REMARK  5 active torsions:
REMARK  status: ('A' for Active; 'I' for Inactive)
REMARK    1  A    between atoms: C_2  and  C_4
REMARK    2  A    between atoms: N_8  and  C_9
REMARK    3  A    between atoms: C_9  and  C_10
REMARK    4  A    between atoms: C_14  and  C_15
REMARK    5  A    between atoms: C_19  and  O_20
REMARK                            x       y       z     vdW  Elec       q    Type
REMARK                         _______ _______ _______ _____ _____    ______ ____
ROOT
ATOM      1  C   UNL     1      48.630   7.788  12.930  0.00  0.00    +0.000 C 
ATOM      2  C   UNL     1      49.763   7.138  12.149  0.00  0.00    +0.000 C 
ATOM      3  C   UNL     1      49.565   8.617  12.075  0.00  0.00    +0.000 C 
ENDROOT
BRANCH   1   8
ATOM      4  C   UNL     1      48.100   4.402  16.707  0.00  0.00    +0.000 A 
ATOM      5  C   UNL     1      49.101   5.306  16.957  0.00  0.00    +0.000 A 
ATOM      6  N   UNL     1      49.343   6.383  16.179  0.00  0.00    +0.000 NA
ATOM      7  C   UNL     1      48.568   6.541  15.091  0.00  0.00    +0.000 A 
ATOM      8  N   UNL     1      48.754   7.740  14.398  0.00  0.00    +0.000 N 
ATOM      9  N   UNL     1      47.621   5.662  14.720  0.00  0.00    +0.000 NA
ATOM     10  C   UNL     1      47.405   4.607  15.540  0.00  0.00    +0.000 A 
ATOM     11  H   UNL     1      49.614   8.124  14.778  0.00  0.00    +0.000 HD
BRANCH   4  13
ATOM     12  N   UNL     1      48.681   2.929  18.541  0.00  0.00    +0.000 N 
ATOM     13  C   UNL     1      47.747   3.303  17.608  0.00  0.00    +0.000 C 
ATOM     14  O   UNL     1      46.643   2.776  17.572  0.00  0.00    +0.000 OA
ATOM     15  H   UNL     1      48.366   2.270  19.245  0.00  0.00    +0.000 HD
ATOM     16  H   UNL     1      49.479   3.500  18.780  0.00  0.00    +0.000 HD
ENDBRANCH   4  13
ENDBRANCH   1   8
BRANCH   1  17
ATOM     17  C   UNL     1      47.195   7.559  12.474  0.00  0.00    +0.000 A 
ATOM     18  C   UNL     1      46.213   8.552  12.613  0.00  0.00    +0.000 A 
ATOM     19  C   UNL     1      44.953   8.408  12.037  0.00  0.00    +0.000 A 
ATOM     20  C   UNL     1      44.654   7.267  11.290  0.00  0.00    +0.000 A 
ATOM     21  C   UNL     1      45.598   6.241  11.121  0.00  0.00    +0.000 A 
ATOM     22  C   UNL     1      46.847   6.400  11.750  0.00  0.00    +0.000 A 
BRANCH  21  23
ATOM     23  C   UNL     1      45.324   5.077  10.257  0.00  0.00    +0.000 A 
ATOM     24  C   UNL     1      44.469   4.044  10.664  0.00  0.00    +0.000 A 
ATOM     25  N   UNL     1      44.130   2.961   9.916  0.00  0.00    +0.000 NA
ATOM     26  C   UNL     1      44.664   2.900   8.678  0.00  0.00    +0.000 A 
ATOM     27  C   UNL     1      45.518   3.864   8.170  0.00  0.00    +0.000 A 
ATOM     28  C   UNL     1      45.853   4.955   8.963  0.00  0.00    +0.000 A 
BRANCH  27  29
ATOM     29  O   UNL     1      46.043   3.797   6.915  0.00  0.00    +0.000 OA
ATOM     30  H   UNL     1      46.154   4.698   6.568  0.00  0.00    +0.000 HD
ENDBRANCH  27  29
ENDBRANCH  21  23
ENDBRANCH   1  17
TORSDOF 5
ENDMDL
MODEL 4
REMARK VINA RESULT:    -7.404      3.240      4.970
REMARK INTER + INTRA:          -9.435
REMARK INTER:                  -8.813
REMARK INTRA:                  -0.622
REMARK UNBOUND:                -0.083
REMARK  Name = 
REMARK  5 active torsions:
REMARK  status: ('A' for Active; 'I' for Inactive)
REMARK    1  A    between atoms: C_2  and  C_4
REMARK    2  A    between atoms: N_8  and  C_9
REMARK    3  A    between atoms: C_9  and  C_10
REMARK    4  A    between atoms: C_14  and  C_15
REMARK    5  A    between atoms: C_19  and  O_20
REMARK                            x       y       z     vdW  Elec       q    Type
REMARK                         _______ _______ _______ _____ _____    ______ ____
ROOT
ATOM      1  C   UNL     1      48.390   8.268  12.615  0.00  0.00    +0.000 C 
ATOM      2  C   UNL     1      49.240   9.221  11.787  0.00  0.00    +0.000 C 
ATOM      3  C   UNL     1      49.429   7.745  11.646  0.00  0.00    +0.000 C 
ENDROOT
BRANCH   1   8
ATOM      4  C   UNL     1      44.611   4.875  12.150  0.00  0.00    +0.000 A 
ATOM      5  C   UNL     1      44.174   6.071  12.661  0.00  0.00    +0.000 A 
ATOM      6  N   UNL     1      44.952   7.172  12.746  0.00  0.00    +0.000 NA
ATOM      7  C   UNL     1      46.226   7.057  12.330  0.00  0.00    +0.000 A 
ATOM      8  N   UNL     1      46.950   8.252  12.298  0.00  0.00    +0.000 N 
ATOM      9  N   UNL     1      46.764   5.904  11.896  0.00  0.00    +0.000 NA
ATOM     10  C   UNL     1      45.941   4.833  11.814  0.00  0.00    +0.000 A 
ATOM     11  H   UNL     1      46.381   8.911  12.820  0.00  0.00    +0.000 HD
BRANCH   4  13
ATOM     12  N   UNL     1      44.026   2.577  12.654  0.00  0.00    +0.000 N 
ATOM     13  C   UNL     1      43.745   3.713  11.937  0.00  0.00    +0.000 C 
ATOM     14  O   UNL     1      42.774   3.768  11.195  0.00  0.00    +0.000 OA
ATOM     15  H   UNL     1      43.334   1.837  12.603  0.00  0.00    +0.000 HD
ATOM     16  H   UNL     1      44.637   2.573  13.459  0.00  0.00    +0.000 HD
ENDBRANCH   4  13
ENDBRANCH   1   8
BRANCH   1  17
ATOM     17  C   UNL     1      48.641   8.173  14.115  0.00  0.00    +0.000 A 
ATOM     18  C   UNL     1      48.585   9.305  14.941  0.00  0.00    +0.000 A 
ATOM     19  C   UNL     1      48.637   9.191  16.329  0.00  0.00    +0.000 A 
ATOM     20  C   UNL     1      48.729   7.930  16.921  0.00  0.00    +0.000 A 
ATOM     21  C   UNL     1      48.792   6.764  16.142  0.00  0.00    +0.000 A 
ATOM     22  C   UNL     1      48.778   6.918  14.743  0.00  0.00    +0.000 A 
BRANCH  21  23
ATOM     23  C   UNL     1      48.794   5.424  16.759  0.00  0.00    +0.000 A 
ATOM     24  C   UNL     1      49.969   4.850  17.264  0.00  0.00    +0.000 A 
ATOM     25  N   UNL     1      50.053   3.643  17.884  0.00  0.00    +0.000 NA
ATOM     26  C   UNL     1      48.895   2.963  18.025  0.00  0.00    +0.000 A 
ATOM     27  C   UNL     1      47.677   3.434  17.568  0.00  0.00    +0.000 A 
ATOM     28  C   UNL     1      47.626   4.667  16.929  0.00  0.00    +0.000 A 
BRANCH  27  29
ATOM     29  O   UNL     1      46.514   2.743  17.725  0.00  0.00    +0.000 OA
ATOM     30  H   UNL     1      46.711   1.870  18.103  0.00  0.00    +0.000 HD
ENDBRANCH  27  29
ENDBRANCH  21  23
ENDBRANCH   1  17
TORSDOF 5
ENDMDL
MODEL 5
REMARK VINA RESULT:    -7.388      2.736      8.267
REMARK INTER + INTRA:          -9.415
REMARK INTER:                  -8.704
REMARK INTRA:                  -0.711
REMARK UNBOUND:                -0.083
REMARK  Name = 
REMARK  5 active torsions:
REMARK  status: ('A' for Active; 'I' for Inactive)
REMARK    1  A    between atoms: C_2  and  C_4
REMARK    2  A    between atoms: N_8  and  C_9
REMARK    3  A    between atoms: C_9  and  C_10
REMARK    4  A    between atoms: C_14  and  C_15
REMARK    5  A    between atoms: C_19  and  O_20
REMARK                            x       y       z     vdW  Elec       q    Type
REMARK                         _______ _______ _______ _____ _____    ______ ____
ROOT
ATOM      1  C   UNL     1      49.008   7.974  12.582  0.00  0.00    +0.000 C 
ATOM      2  C   UNL     1      49.908   8.245  11.386  0.00  0.00    +0.000 C 
ATOM      3  C   UNL     1      49.645   9.333  12.377  0.00  0.00    +0.000 C 
ENDROOT
BRANCH   1   8
ATOM      4  C   UNL     1      48.632   7.045  17.583  0.00  0.00    +0.000 A 
ATOM      5  C   UNL     1      48.754   5.893  16.849  0.00  0.00    +0.000 A 
ATOM      6  N   UNL     1      49.011   5.879  15.523  0.00  0.00    +0.000 NA
ATOM      7  C   UNL     1      49.118   7.070  14.906  0.00  0.00    +0.000 A 
ATOM      8  N   UNL     1      49.527   7.012  13.571  0.00  0.00    +0.000 N 
ATOM      9  N   UNL     1      48.928   8.246  15.526  0.00  0.00    +0.000 NA
ATOM     10  C   UNL     1      48.689   8.210  16.858  0.00  0.00    +0.000 A 
ATOM     11  H   UNL     1      49.435   6.033  13.317  0.00  0.00    +0.000 HD
BRANCH   4  13
ATOM     12  N   UNL     1      47.521   6.260  19.589  0.00  0.00    +0.000 N 
ATOM     13  C   UNL     1      48.479   7.074  19.039  0.00  0.00    +0.000 C 
ATOM     14  O   UNL     1      49.215   7.751  19.745  0.00  0.00    +0.000 OA
ATOM     15  H   UNL     1      47.529   6.185  20.601  0.00  0.00    +0.000 HD
ATOM     16  H   UNL     1      47.088   5.502  19.081  0.00  0.00    +0.000 HD
ENDBRANCH   4  13
ENDBRANCH   1   8
BRANCH   1  17
ATOM     17  C   UNL     1      47.512   7.800  12.353  0.00  0.00    +0.000 A 
ATOM     18  C   UNL     1      46.612   8.860  12.540  0.00  0.00    +0.000 A 
ATOM     19  C   UNL     1      45.276   8.751  12.160  0.00  0.00    +0.000 A 
ATOM     20  C   UNL     1      44.815   7.576  11.564  0.00  0.00    +0.000 A 
ATOM     21  C   UNL     1      45.671   6.482  11.356  0.00  0.00    +0.000 A 
ATOM     22  C   UNL     1      47.005   6.611  11.789  0.00  0.00    +0.000 A 
BRANCH  21  23
ATOM     23  C   UNL     1      45.217   5.273  10.644  0.00  0.00    +0.000 A 
ATOM     24  C   UNL     1      45.563   5.034   9.306  0.00  0.00    +0.000 A 
ATOM     25  N   UNL     1      45.224   3.931   8.589  0.00  0.00    +0.000 NA
ATOM     26  C   UNL     1      44.505   2.993   9.242  0.00  0.00    +0.000 A 
ATOM     27  C   UNL     1      44.111   3.121  10.563  0.00  0.00    +0.000 A 
ATOM     28  C   UNL     1      44.464   4.266  11.266  0.00  0.00    +0.000 A 
BRANCH  27  29
ATOM     29  O   UNL     1      43.394   2.163  11.214  0.00  0.00    +0.000 OA
ATOM     30  H   UNL     1      42.482   2.163  10.876  0.00  0.00    +0.000 HD
ENDBRANCH  27  29
ENDBRANCH  21  23
ENDBRANCH   1  17
TORSDOF 5
ENDMDL
MODEL 6
REMARK VINA RESULT:    -7.254      1.892      2.660
REMARK INTER + INTRA:          -9.245
REMARK INTER:                  -8.584
REMARK INTRA:                  -0.661
REMARK UNBOUND:                -0.083
REMARK  Name = 
REMARK  5 active torsions:
REMARK  status: ('A' for Active; 'I' for Inactive)
REMARK    1  A    between atoms: C_2  and  C_4
REMARK    2  A    between atoms: N_8  and  C_9
REMARK    3  A    between atoms: C_9  and  C_10
REMARK    4  A    between atoms: C_14  and  C_15
REMARK    5  A    between atoms: C_19  and  O_20
REMARK                            x       y       z     vdW  Elec       q    Type
REMARK                         _______ _______ _______ _____ _____    ______ ____
ROOT
ATOM      1  C   UNL     1      45.373   8.026  12.057  0.00  0.00    +0.000 C 
ATOM      2  C   UNL     1      44.826   9.335  12.607  0.00  0.00    +0.000 C 
ATOM      3  C   UNL     1      45.276   9.259  11.184  0.00  0.00    +0.000 C 
ENDROOT
BRANCH   1   8
ATOM      4  C   UNL     1      44.999   3.468   9.799  0.00  0.00    +0.000 A 
ATOM      5  C   UNL     1      44.376   3.495  11.021  0.00  0.00    +0.000 A 
ATOM      6  N   UNL     1      44.212   4.621  11.749  0.00  0.00    +0.000 NA
ATOM      7  C   UNL     1      44.723   5.758  11.243  0.00  0.00    +0.000 A 
ATOM      8  N   UNL     1      44.406   6.919  11.953  0.00  0.00    +0.000 N 
ATOM      9  N   UNL     1      45.423   5.812  10.097  0.00  0.00    +0.000 NA
ATOM     10  C   UNL     1      45.546   4.661   9.396  0.00  0.00    +0.000 A 
ATOM     11  H   UNL     1      44.028   6.585  12.835  0.00  0.00    +0.000 HD
BRANCH   4  13
ATOM     12  N   UNL     1      46.139   2.187   8.086  0.00  0.00    +0.000 N 
ATOM     13  C   UNL     1      45.072   2.281   8.945  0.00  0.00    +0.000 C 
ATOM     14  O   UNL     1      44.250   1.380   9.033  0.00  0.00    +0.000 OA
ATOM     15  H   UNL     1      46.249   1.297   7.611  0.00  0.00    +0.000 HD
ATOM     16  H   UNL     1      46.965   2.762   8.171  0.00  0.00    +0.000 HD
ENDBRANCH   4  13
ENDBRANCH   1   8
BRANCH   1  17
ATOM     17  C   UNL     1      46.738   7.543  12.532  0.00  0.00    +0.000 A 
ATOM     18  C   UNL     1      47.924   7.995  11.934  0.00  0.00    +0.000 A 
ATOM     19  C   UNL     1      49.170   7.693  12.481  0.00  0.00    +0.000 A 
ATOM     20  C   UNL     1      49.252   6.943  13.656  0.00  0.00    +0.000 A 
ATOM     21  C   UNL     1      48.097   6.464  14.294  0.00  0.00    +0.000 A 
ATOM     22  C   UNL     1      46.857   6.751  13.693  0.00  0.00    +0.000 A 
BRANCH  21  23
ATOM     23  C   UNL     1      48.169   5.752  15.584  0.00  0.00    +0.000 A 
ATOM     24  C   UNL     1      49.059   6.145  16.593  0.00  0.00    +0.000 A 
ATOM     25  N   UNL     1      49.161   5.574  17.822  0.00  0.00    +0.000 NA
ATOM     26  C   UNL     1      48.316   4.552  18.076  0.00  0.00    +0.000 A 
ATOM     27  C   UNL     1      47.394   4.082  17.157  0.00  0.00    +0.000 A 
ATOM     28  C   UNL     1      47.322   4.680  15.905  0.00  0.00    +0.000 A 
BRANCH  27  29
ATOM     29  O   UNL     1      46.540   3.056  17.429  0.00  0.00    +0.000 OA
ATOM     30  H   UNL     1      45.626   3.384  17.390  0.00  0.00    +0.000 HD
ENDBRANCH  27  29
ENDBRANCH  21  23
ENDBRANCH   1  17
TORSDOF 5
ENDMDL
MODEL 7
REMARK VINA RESULT:    -7.212      3.512      7.319
REMARK INTER + INTRA:          -9.192
REMARK INTER:                  -8.528
REMARK INTRA:                  -0.664
REMARK UNBOUND:                -0.083
REMARK  Name = 
REMARK  5 active torsions:
REMARK  status: ('A' for Active; 'I' for Inactive)
REMARK    1  A    between atoms: C_2  and  C_4
REMARK    2  A    between atoms: N_8  and  C_9
REMARK    3  A    between atoms: C_9  and  C_10
REMARK    4  A    between atoms: C_14  and  C_15
REMARK    5  A    between atoms: C_19  and  O_20
REMARK                            x       y       z     vdW  Elec       q    Type
REMARK                         _______ _______ _______ _____ _____    ______ ____
ROOT
ATOM      1  C   UNL     1      46.079   5.147  13.300  0.00  0.00    +0.000 C 
ATOM      2  C   UNL     1      46.103   4.202  14.493  0.00  0.00    +0.000 C 
ATOM      3  C   UNL     1      47.304   4.314  13.610  0.00  0.00    +0.000 C 
ENDROOT
BRANCH   1   8
ATOM      4  C   UNL     1      48.182   9.521  11.732  0.00  0.00    +0.000 A 
ATOM      5  C   UNL     1      46.877   9.684  12.124  0.00  0.00    +0.000 A 
ATOM      6  N   UNL     1      46.149   8.709  12.711  0.00  0.00    +0.000 NA
ATOM      7  C   UNL     1      46.746   7.515  12.882  0.00  0.00    +0.000 A 
ATOM      8  N   UNL     1      46.012   6.584  13.621  0.00  0.00    +0.000 N 
ATOM      9  N   UNL     1      47.989   7.239  12.451  0.00  0.00    +0.000 NA
ATOM     10  C   UNL     1      48.684   8.253  11.884  0.00  0.00    +0.000 A 
ATOM     11  H   UNL     1      45.077   6.978  13.671  0.00  0.00    +0.000 HD
BRANCH   4  13
ATOM     12  N   UNL     1      48.452  11.456  10.297  0.00  0.00    +0.000 N 
ATOM     13  C   UNL     1      49.019  10.603  11.211  0.00  0.00    +0.000 C 
ATOM     14  O   UNL     1      50.160  10.780  11.616  0.00  0.00    +0.000 OA
ATOM     15  H   UNL     1      48.996  12.279  10.060  0.00  0.00    +0.000 HD
ATOM     16  H   UNL     1      47.455  11.511  10.142  0.00  0.00    +0.000 HD
ENDBRANCH   4  13
ENDBRANCH   1   8
BRANCH   1  17
ATOM     17  C   UNL     1      45.210   4.794  12.099  0.00  0.00    +0.000 A 
ATOM     18  C   UNL     1      43.951   5.383  11.906  0.00  0.00    +0.000 A 
ATOM     19  C   UNL     1      43.239   5.196  10.723  0.00  0.00    +0.000 A 
ATOM     20  C   UNL     1      43.785   4.424   9.695  0.00  0.00    +0.000 A 
ATOM     21  C   UNL     1      45.040   3.809   9.837  0.00  0.00    +0.000 A 
ATOM     22  C   UNL     1      45.714   3.985  11.060  0.00  0.00    +0.000 A 
BRANCH  21  23
ATOM     23  C   UNL     1      45.666   3.070   8.723  0.00  0.00    +0.000 A 
ATOM     24  C   UNL     1      46.132   3.727   7.576  0.00  0.00    +0.000 A 
ATOM     25  N   UNL     1      46.756   3.132   6.526  0.00  0.00    +0.000 NA
ATOM     26  C   UNL     1      46.944   1.798   6.622  0.00  0.00    +0.000 A 
ATOM     27  C   UNL     1      46.529   1.048   7.709  0.00  0.00    +0.000 A 
ATOM     28  C   UNL     1      45.883   1.685   8.762  0.00  0.00    +0.000 A 
BRANCH  27  29
ATOM     29  O   UNL     1      46.733  -0.295   7.799  0.00  0.00    +0.000 OA
ATOM     30  H   UNL     1      47.559  -0.460   8.284  0.00  0.00    +0.000 HD
ENDBRANCH  27  29
ENDBRANCH  21  23
ENDBRANCH   1  17
TORSDOF 5
ENDMDL
MODEL 8
REMARK VINA RESULT:    -7.120      3.415      5.307
REMARK INTER + INTRA:          -9.076
REMARK INTER:                  -8.235
REMARK INTRA:                  -0.841
REMARK UNBOUND:                -0.083
REMARK  Name = 
REMARK  5 active torsions:
REMARK  status: ('A' for Active; 'I' for Inactive)
REMARK    1  A    between atoms: C_2  and  C_4
REMARK    2  A    between atoms: N_8  and  C_9
REMARK    3  A    between atoms: C_9  and  C_10
REMARK    4  A    between atoms: C_14  and  C_15
REMARK    5  A    between atoms: C_19  and  O_20
REMARK                            x       y       z     vdW  Elec       q    Type
REMARK                         _______ _______ _______ _____ _____    ______ ____
ROOT
ATOM      1  C   UNL     1      49.160   8.425  12.535  0.00  0.00    +0.000 C 
ATOM      2  C   UNL     1      50.412   9.037  11.923  0.00  0.00    +0.000 C 
ATOM      3  C   UNL     1      50.144   7.576  11.757  0.00  0.00    +0.000 C 
ENDROOT
BRANCH   1   8
ATOM      4  C   UNL     1      44.560   6.486  11.492  0.00  0.00    +0.000 A 
ATOM      5  C   UNL     1      44.495   7.804  11.866  0.00  0.00    +0.000 A 
ATOM      6  N   UNL     1      45.585   8.579  12.055  0.00  0.00    +0.000 NA
ATOM      7  C   UNL     1      46.787   7.997  11.892  0.00  0.00    +0.000 A 
ATOM      8  N   UNL     1      47.880   8.866  11.952  0.00  0.00    +0.000 N 
ATOM      9  N   UNL     1      46.948   6.693  11.611  0.00  0.00    +0.000 NA
ATOM     10  C   UNL     1      45.826   5.962  11.415  0.00  0.00    +0.000 A 
ATOM     11  H   UNL     1      47.501   9.728  12.332  0.00  0.00    +0.000 HD
BRANCH   4  13
ATOM     12  N   UNL     1      42.192   6.027  11.735  0.00  0.00    +0.000 N 
ATOM     13  C   UNL     1      43.388   5.671  11.163  0.00  0.00    +0.000 C 
ATOM     14  O   UNL     1      43.457   4.747  10.364  0.00  0.00    +0.000 OA
ATOM     15  H   UNL     1      41.371   5.544  11.384  0.00  0.00    +0.000 HD
ATOM     16  H   UNL     1      42.038   6.923  12.175  0.00  0.00    +0.000 HD
ENDBRANCH   4  13
ENDBRANCH   1   8
BRANCH   1  17
ATOM     17  C   UNL     1      49.075   8.284  14.050  0.00  0.00    +0.000 A 
ATOM     18  C   UNL     1      48.738   9.372  14.869  0.00  0.00    +0.000 A 
ATOM     19  C   UNL     1      48.486   9.201  16.229  0.00  0.00    +0.000 A 
ATOM     20  C   UNL     1      48.550   7.927  16.796  0.00  0.00    +0.000 A 
ATOM     21  C   UNL     1      48.886   6.804  16.022  0.00  0.00    +0.000 A 
ATOM     22  C   UNL     1      49.174   7.017  14.661  0.00  0.00    +0.000 A 
BRANCH  21  23
ATOM     23  C   UNL     1      48.864   5.442  16.590  0.00  0.00    +0.000 A 
ATOM     24  C   UNL     1      50.043   4.787  16.974  0.00  0.00    +0.000 A 
ATOM     25  N   UNL     1      50.110   3.555  17.542  0.00  0.00    +0.000 NA
ATOM     26  C   UNL     1      48.931   2.932  17.757  0.00  0.00    +0.000 A 
ATOM     27  C   UNL     1      47.708   3.484  17.421  0.00  0.00    +0.000 A 
ATOM     28  C   UNL     1      47.673   4.743  16.832  0.00  0.00    +0.000 A 
BRANCH  27  29
ATOM     29  O   UNL     1      46.525   2.850  17.652  0.00  0.00    +0.000 OA
ATOM     30  H   UNL     1      46.597   2.331  18.471  0.00  0.00    +0.000 HD
ENDBRANCH  27  29
ENDBRANCH  21  23
ENDBRANCH   1  17
TORSDOF 5
ENDMDL
MODEL 9
REMARK VINA RESULT:    -7.066      2.701      4.364
REMARK INTER + INTRA:          -9.008
REMARK INTER:                  -8.817
REMARK INTRA:                  -0.190
REMARK UNBOUND:                -0.083
REMARK  Name = 
REMARK  5 active torsions:
REMARK  status: ('A' for Active; 'I' for Inactive)
REMARK    1  A    between atoms: C_2  and  C_4
REMARK    2  A    between atoms: N_8  and  C_9
REMARK    3  A    between atoms: C_9  and  C_10
REMARK    4  A    between atoms: C_14  and  C_15
REMARK    5  A    between atoms: C_19  and  O_20
REMARK                            x       y       z     vdW  Elec       q    Type
REMARK                         _______ _______ _______ _____ _____    ______ ____
ROOT
ATOM      1  C   UNL     1      47.549   8.381  12.985  0.00  0.00    +0.000 C 
ATOM      2  C   UNL     1      47.502   9.880  12.724  0.00  0.00    +0.000 C 
ATOM      3  C   UNL     1      47.853   8.944  11.613  0.00  0.00    +0.000 C 
ENDROOT
BRANCH   1   8
ATOM      4  C   UNL     1      44.846   4.303  11.543  0.00  0.00    +0.000 A 
ATOM      5  C   UNL     1      44.679   4.593  12.873  0.00  0.00    +0.000 A 
ATOM      6  N   UNL     1      45.174   5.704  13.461  0.00  0.00    +0.000 NA
ATOM      7  C   UNL     1      45.890   6.540  12.689  0.00  0.00    +0.000 A 
ATOM      8  N   UNL     1      46.258   7.743  13.298  0.00  0.00    +0.000 N 
ATOM      9  N   UNL     1      46.178   6.295  11.399  0.00  0.00    +0.000 NA
ATOM     10  C   UNL     1      45.646   5.178  10.850  0.00  0.00    +0.000 A 
ATOM     11  H   UNL     1      46.069   7.598  14.285  0.00  0.00    +0.000 HD
BRANCH   4  13
ATOM     12  N   UNL     1      44.954   2.499   9.927  0.00  0.00    +0.000 N 
ATOM     13  C   UNL     1      44.211   3.170  10.867  0.00  0.00    +0.000 C 
ATOM     14  O   UNL     1      43.085   2.797  11.168  0.00  0.00    +0.000 OA
ATOM     15  H   UNL     1      44.552   1.635   9.578  0.00  0.00    +0.000 HD
ATOM     16  H   UNL     1      45.955   2.601   9.844  0.00  0.00    +0.000 HD
ENDBRANCH   4  13
ENDBRANCH   1   8
BRANCH   1  17
ATOM     17  C   UNL     1      48.680   7.818  13.837  0.00  0.00    +0.000 A 
ATOM     18  C   UNL     1      49.951   8.412  13.853  0.00  0.00    +0.000 A 
ATOM     19  C   UNL     1      50.926   8.008  14.763  0.00  0.00    +0.000 A 
ATOM     20  C   UNL     1      50.640   7.006  15.692  0.00  0.00    +0.000 A 
ATOM     21  C   UNL     1      49.386   6.376  15.718  0.00  0.00    +0.000 A 
ATOM     22  C   UNL     1      48.437   6.779  14.759  0.00  0.00    +0.000 A 
BRANCH  21  23
ATOM     23  C   UNL     1      49.043   5.383  16.755  0.00  0.00    +0.000 A 
ATOM     24  C   UNL     1      49.805   5.248  17.923  0.00  0.00    +0.000 A 
ATOM     25  N   UNL     1      49.537   4.393  18.944  0.00  0.00    +0.000 NA
ATOM     26  C   UNL     1      48.433   3.627  18.807  0.00  0.00    +0.000 A 
ATOM     27  C   UNL     1      47.606   3.679  17.698  0.00  0.00    +0.000 A 
ATOM     28  C   UNL     1      47.913   4.557  16.666  0.00  0.00    +0.000 A 
BRANCH  27  29
ATOM     29  O   UNL     1      46.489   2.908  17.576  0.00  0.00    +0.000 OA
ATOM     30  H   UNL     1      46.369   2.391  18.390  0.00  0.00    +0.000 HD
ENDBRANCH  27  29
ENDBRANCH  21  23
ENDBRANCH   1  17
TORSDOF 5
ENDMDL
