MODEL 1
REMARK VINA RESULT:    -8.743      0.000      0.000
REMARK INTER + INTRA:         -12.731
REMARK INTER:                 -11.810
REMARK INTRA:                  -0.921
REMARK UNBOUND:                -0.921
REMARK  Name = 
REMARK  6 active torsions:
REMARK  status: ('A' for Active; 'I' for Inactive)
REMARK    1  A    between atoms: C_2  and  C_3
REMARK    2  A    between atoms: C_6  and  C_7
REMARK    3  A    between atoms: C_11  and  C_12
REMARK    4  A    between atoms: C_12  and  N_13
REMARK    5  A    between atoms: N_13  and  C_14
REMARK    6  A    between atoms: C_17  and  C_18
REMARK                            x       y       z     vdW  Elec       q    Type
REMARK                         _______ _______ _______ _____ _____    ______ ____
ROOT
ATOM      1  C   UNL     1      44.105   5.118  11.332  0.00  0.00    +0.000 C 
ATOM      2  C   UNL     1      43.621   6.528  11.052  0.00  0.00    +0.000 C 
ATOM      3  C   UNL     1      42.909   5.715  12.074  0.00  0.00    +0.000 C 
ATOM      4  F   UNL     1      41.642   5.264  11.743  0.00  0.00    +0.000 F 
ENDROOT
BRANCH   1   9
ATOM      5  C   UNL     1      47.396   5.762  12.906  0.00  0.00    +0.000 A 
ATOM      6  N   UNL     1      47.690   4.653  13.608  0.00  0.00    +0.000 NA
ATOM      7  C   UNL     1      46.769   3.676  13.589  0.00  0.00    +0.000 A 
ATOM      8  C   UNL     1      45.589   3.759  12.890  0.00  0.00    +0.000 A 
ATOM      9  C   UNL     1      45.361   4.924  12.181  0.00  0.00    +0.000 A 
ATOM     10  N   UNL     1      46.261   5.934  12.205  0.00  0.00    +0.000 NA
BRANCH   5  14
ATOM     11  C   UNL     1      50.388   8.852  12.652  0.00  0.00    +0.000 A 
ATOM     12  C   UNL     1      50.282   8.071  13.804  0.00  0.00    +0.000 A 
ATOM     13  C   UNL     1      49.297   7.080  13.892  0.00  0.00    +0.000 A 
ATOM     14  C   UNL     1      48.401   6.839  12.835  0.00  0.00    +0.000 A 
ATOM     15  C   UNL     1      48.523   7.651  11.688  0.00  0.00    +0.000 A 
ATOM     16  C   UNL     1      49.503   8.644  11.594  0.00  0.00    +0.000 A 
BRANCH  11  18
ATOM     17  N   UNL     1      52.230  10.669  12.472  0.00  0.00    +0.000 NA
ATOM     18  C   UNL     1      51.407   9.857  12.553  0.00  0.00    +0.000 C 
ENDBRANCH  11  18
ENDBRANCH   5  14
ENDBRANCH   1   9
BRANCH   1  19
ATOM     19  N   UNL     1      43.799   3.977  10.438  0.00  0.00    +0.000 N 
ATOM     20  H   UNL     1      43.238   3.252  10.879  0.00  0.00    +0.000 HD
BRANCH  19  21
ATOM     21  C   UNL     1      44.643   3.481   9.429  0.00  0.00    +0.000 A 
ATOM     22  C   UNL     1      45.005   2.137   9.307  0.00  0.00    +0.000 A 
ATOM     23  C   UNL     1      45.941   1.730   8.345  0.00  0.00    +0.000 A 
ATOM     24  C   UNL     1      46.544   2.668   7.499  0.00  0.00    +0.000 A 
ATOM     25  C   UNL     1      46.208   4.016   7.625  0.00  0.00    +0.000 A 
ATOM     26  C   UNL     1      45.273   4.412   8.587  0.00  0.00    +0.000 A 
BRANCH  24  27
ATOM     27  C   UNL     1      47.578   2.204   6.535  0.00  0.00    +0.000 C 
ATOM     28  N   UNL     1      47.756   2.941   5.397  0.00  0.00    +0.000 N 
ATOM     29  O   UNL     1      48.235   1.191   6.738  0.00  0.00    +0.000 OA
ATOM     30  H   UNL     1      47.112   3.654   5.091  0.00  0.00    +0.000 HD
ATOM     31  H   UNL     1      48.418   2.580   4.724  0.00  0.00    +0.000 HD
ENDBRANCH  24  27
ENDBRANCH  19  21
ENDBRANCH   1  19
TORSDOF 6
ENDMDL
MODEL 2
REMARK VINA RESULT:    -8.670      2.462      3.784
REMARK INTER + INTRA:         -12.632
REMARK INTER:                 -12.796
REMARK INTRA:                   0.163
REMARK UNBOUND:                -0.921
REMARK  Name = 
REMARK  6 active torsions:
REMARK  status: ('A' for Active; 'I' for Inactive)
REMARK    1  A    between atoms: C_2  and  C_3
REMARK    2  A    between atoms: C_6  and  C_7
REMARK    3  A    between atoms: C_11  and  C_12
REMARK    4  A    between atoms: C_12  and  N_13
REMARK    5  A    between atoms: N_13  and  C_14
REMARK    6  A    between atoms: C_17  and  C_18
REMARK                            x       y       z     vdW  Elec       q    Type
REMARK                         _______ _______ _______ _____ _____    ______ ____
ROOT
ATOM      1  C   UNL     1      44.130   4.817  11.719  0.00  0.00    +0.000 C 
ATOM      2  C   UNL     1      42.983   4.914  12.707  0.00  0.00    +0.000 C 
ATOM      3  C   UNL     1      43.688   3.614  12.551  0.00  0.00    +0.000 C 
ATOM      4  F   UNL     1      42.994   2.597  11.916  0.00  0.00    +0.000 F 
ENDROOT
BRANCH   1   9
ATOM      5  C   UNL     1      47.152   5.637  13.699  0.00  0.00    +0.000 A 
ATOM      6  N   UNL     1      47.878   6.469  12.932  0.00  0.00    +0.000 NA
ATOM      7  C   UNL     1      47.377   6.748  11.718  0.00  0.00    +0.000 A 
ATOM      8  C   UNL     1      46.185   6.245  11.255  0.00  0.00    +0.000 A 
ATOM      9  C   UNL     1      45.487   5.406  12.104  0.00  0.00    +0.000 A 
ATOM     10  N   UNL     1      45.983   5.088  13.322  0.00  0.00    +0.000 NA
BRANCH   5  14
ATOM     11  C   UNL     1      48.444   4.844  17.732  0.00  0.00    +0.000 A 
ATOM     12  C   UNL     1      48.953   5.941  17.035  0.00  0.00    +0.000 A 
ATOM     13  C   UNL     1      48.546   6.186  15.719  0.00  0.00    +0.000 A 
ATOM     14  C   UNL     1      47.620   5.351  15.068  0.00  0.00    +0.000 A 
ATOM     15  C   UNL     1      47.131   4.243  15.791  0.00  0.00    +0.000 A 
ATOM     16  C   UNL     1      47.535   3.990  17.106  0.00  0.00    +0.000 A 
BRANCH  11  18
ATOM     17  N   UNL     1      49.173   4.403  20.182  0.00  0.00    +0.000 NA
ATOM     18  C   UNL     1      48.847   4.599  19.086  0.00  0.00    +0.000 C 
ENDBRANCH  11  18
ENDBRANCH   5  14
ENDBRANCH   1   9
BRANCH   1  19
ATOM     19  N   UNL     1      43.918   4.698  10.258  0.00  0.00    +0.000 N 
ATOM     20  H   UNL     1      42.940   4.760   9.981  0.00  0.00    +0.000 HD
BRANCH  19  21
ATOM     21  C   UNL     1      44.688   3.913   9.381  0.00  0.00    +0.000 A 
ATOM     22  C   UNL     1      44.799   2.524   9.473  0.00  0.00    +0.000 A 
ATOM     23  C   UNL     1      45.675   1.817   8.636  0.00  0.00    +0.000 A 
ATOM     24  C   UNL     1      46.467   2.494   7.702  0.00  0.00    +0.000 A 
ATOM     25  C   UNL     1      46.381   3.883   7.615  0.00  0.00    +0.000 A 
ATOM     26  C   UNL     1      45.504   4.579   8.453  0.00  0.00    +0.000 A 
BRANCH  24  27
ATOM     27  C   UNL     1      47.427   1.714   6.877  0.00  0.00    +0.000 C 
ATOM     28  N   UNL     1      48.562   2.353   6.456  0.00  0.00    +0.000 N 
ATOM     29  O   UNL     1      47.209   0.550   6.567  0.00  0.00    +0.000 OA
ATOM     30  H   UNL     1      48.689   3.351   6.511  0.00  0.00    +0.000 HD
ATOM     31  H   UNL     1      49.175   1.829   5.845  0.00  0.00    +0.000 HD
ENDBRANCH  24  27
ENDBRANCH  19  21
ENDBRANCH   1  19
TORSDOF 6
ENDMDL
MODEL 3
REMARK VINA RESULT:    -7.590      1.495      2.582
REMARK INTER + INTRA:         -11.173
REMARK INTER:                 -11.090
REMARK INTRA:                  -0.083
REMARK UNBOUND:                -0.921
REMARK  Name = 
REMARK  6 active torsions:
REMARK  status: ('A' for Active; 'I' for Inactive)
REMARK    1  A    between atoms: C_2  and  C_3
REMARK    2  A    between atoms: C_6  and  C_7
REMARK    3  A    between atoms: C_11  and  C_12
REMARK    4  A    between atoms: C_12  and  N_13
REMARK    5  A    between atoms: N_13  and  C_14
REMARK    6  A    between atoms: C_17  and  C_18
REMARK                            x       y       z     vdW  Elec       q    Type
REMARK                         _______ _______ _______ _____ _____    ______ ____
ROOT
ATOM      1  C   UNL     1      43.904   5.113  11.674  0.00  0.00    +0.000 C 
ATOM      2  C   UNL     1      43.070   4.734  12.884  0.00  0.00    +0.000 C 
ATOM      3  C   UNL     1      44.440   4.170  12.750  0.00  0.00    +0.000 C 
ATOM      4  F   UNL     1      44.535   2.821  12.451  0.00  0.00    +0.000 F 
ENDROOT
BRANCH   1   9
ATOM      5  C   UNL     1      46.447   7.784  12.017  0.00  0.00    +0.000 A 
ATOM      6  N   UNL     1      45.827   8.927  11.676  0.00  0.00    +0.000 NA
ATOM      7  C   UNL     1      44.544   8.817  11.295  0.00  0.00    +0.000 A 
ATOM      8  C   UNL     1      43.863   7.624  11.258  0.00  0.00    +0.000 A 
ATOM      9  C   UNL     1      44.563   6.492  11.635  0.00  0.00    +0.000 A 
ATOM     10  N   UNL     1      45.864   6.573  11.997  0.00  0.00    +0.000 NA
BRANCH   5  14
ATOM     11  C   UNL     1      50.483   8.069  13.501  0.00  0.00    +0.000 A 
ATOM     12  C   UNL     1      50.174   8.521  12.217  0.00  0.00    +0.000 A 
ATOM     13  C   UNL     1      48.866   8.411  11.730  0.00  0.00    +0.000 A 
ATOM     14  C   UNL     1      47.836   7.855  12.510  0.00  0.00    +0.000 A 
ATOM     15  C   UNL     1      48.179   7.394  13.798  0.00  0.00    +0.000 A 
ATOM     16  C   UNL     1      49.483   7.499  14.291  0.00  0.00    +0.000 A 
BRANCH  11  18
ATOM     17  N   UNL     1      52.897   8.297  14.420  0.00  0.00    +0.000 NA
ATOM     18  C   UNL     1      51.818   8.196  14.009  0.00  0.00    +0.000 C 
ENDBRANCH  11  18
ENDBRANCH   5  14
ENDBRANCH   1   9
BRANCH   1  19
ATOM     19  N   UNL     1      43.693   4.508  10.339  0.00  0.00    +0.000 N 
ATOM     20  H   UNL     1      42.782   4.067  10.229  0.00  0.00    +0.000 HD
BRANCH  19  21
ATOM     21  C   UNL     1      44.690   3.912   9.545  0.00  0.00    +0.000 A 
ATOM     22  C   UNL     1      45.523   4.622   8.679  0.00  0.00    +0.000 A 
ATOM     23  C   UNL     1      46.418   3.951   7.832  0.00  0.00    +0.000 A 
ATOM     24  C   UNL     1      46.480   2.553   7.829  0.00  0.00    +0.000 A 
ATOM     25  C   UNL     1      45.637   1.831   8.674  0.00  0.00    +0.000 A 
ATOM     26  C   UNL     1      44.749   2.509   9.514  0.00  0.00    +0.000 A 
BRANCH  24  27
ATOM     27  C   UNL     1      47.397   1.878   6.872  0.00  0.00    +0.000 C 
ATOM     28  N   UNL     1      48.430   2.614   6.361  0.00  0.00    +0.000 N 
ATOM     29  O   UNL     1      47.229   0.713   6.536  0.00  0.00    +0.000 OA
ATOM     30  H   UNL     1      48.491   3.617   6.445  0.00  0.00    +0.000 HD
ATOM     31  H   UNL     1      49.007   2.161   5.665  0.00  0.00    +0.000 HD
ENDBRANCH  24  27
ENDBRANCH  19  21
ENDBRANCH   1  19
TORSDOF 6
ENDMDL
MODEL 4
REMARK VINA RESULT:    -6.889      3.410      7.455
REMARK INTER + INTRA:         -10.226
REMARK INTER:                  -9.639
REMARK INTRA:                  -0.587
REMARK UNBOUND:                -0.921
REMARK  Name = 
REMARK  6 active torsions:
REMARK  status: ('A' for Active; 'I' for Inactive)
REMARK    1  A    between atoms: C_2  and  C_3
REMARK    2  A    between atoms: C_6  and  C_7
REMARK    3  A    between atoms: C_11  and  C_12
REMARK    4  A    between atoms: C_12  and  N_13
REMARK    5  A    between atoms: N_13  and  C_14
REMARK    6  A    between atoms: C_17  and  C_18
REMARK                            x       y       z     vdW  Elec       q    Type
REMARK                         _______ _______ _______ _____ _____    ______ ____
ROOT
ATOM      1  C   UNL     1      45.958   7.663  12.604  0.00  0.00    +0.000 C 
ATOM      2  C   UNL     1      45.288   8.859  13.254  0.00  0.00    +0.000 C 
ATOM      3  C   UNL     1      45.945   9.036  11.932  0.00  0.00    +0.000 C 
ATOM      4  F   UNL     1      47.123   9.766  11.911  0.00  0.00    +0.000 F 
ENDROOT
BRANCH   1   9
ATOM      5  C   UNL     1      44.896   4.937  10.332  0.00  0.00    +0.000 A 
ATOM      6  N   UNL     1      43.595   4.725  10.597  0.00  0.00    +0.000 NA
ATOM      7  C   UNL     1      43.055   5.478  11.569  0.00  0.00    +0.000 A 
ATOM      8  C   UNL     1      43.756   6.434  12.266  0.00  0.00    +0.000 A 
ATOM      9  C   UNL     1      45.086   6.605  11.929  0.00  0.00    +0.000 A 
ATOM     10  N   UNL     1      45.660   5.839  10.972  0.00  0.00    +0.000 NA
BRANCH   5  14
ATOM     11  C   UNL     1      46.797   2.730   7.157  0.00  0.00    +0.000 A 
ATOM     12  C   UNL     1      46.864   4.124   7.181  0.00  0.00    +0.000 A 
ATOM     13  C   UNL     1      46.231   4.840   8.203  0.00  0.00    +0.000 A 
ATOM     14  C   UNL     1      45.521   4.187   9.227  0.00  0.00    +0.000 A 
ATOM     15  C   UNL     1      45.458   2.778   9.172  0.00  0.00    +0.000 A 
ATOM     16  C   UNL     1      46.087   2.057   8.152  0.00  0.00    +0.000 A 
BRANCH  11  18
ATOM     17  N   UNL     1      47.993   1.397   5.282  0.00  0.00    +0.000 NA
ATOM     18  C   UNL     1      47.459   1.993   6.121  0.00  0.00    +0.000 C 
ENDBRANCH  11  18
ENDBRANCH   5  14
ENDBRANCH   1   9
BRANCH   1  19
ATOM     19  N   UNL     1      47.290   7.169  13.024  0.00  0.00    +0.000 N 
ATOM     20  H   UNL     1      47.970   7.134  12.268  0.00  0.00    +0.000 HD
BRANCH  19  21
ATOM     21  C   UNL     1      47.526   6.204  14.020  0.00  0.00    +0.000 A 
ATOM     22  C   UNL     1      46.942   4.936  14.030  0.00  0.00    +0.000 A 
ATOM     23  C   UNL     1      47.133   4.066  15.114  0.00  0.00    +0.000 A 
ATOM     24  C   UNL     1      47.901   4.461  16.215  0.00  0.00    +0.000 A 
ATOM     25  C   UNL     1      48.472   5.734  16.227  0.00  0.00    +0.000 A 
ATOM     26  C   UNL     1      48.277   6.593  15.142  0.00  0.00    +0.000 A 
BRANCH  24  27
ATOM     27  C   UNL     1      48.028   3.534  17.371  0.00  0.00    +0.000 C 
ATOM     28  N   UNL     1      46.918   2.821  17.733  0.00  0.00    +0.000 N 
ATOM     29  O   UNL     1      49.077   3.422  17.991  0.00  0.00    +0.000 OA
ATOM     30  H   UNL     1      45.992   3.024  17.391  0.00  0.00    +0.000 HD
ATOM     31  H   UNL     1      47.002   2.241  18.558  0.00  0.00    +0.000 HD
ENDBRANCH  24  27
ENDBRANCH  19  21
ENDBRANCH   1  19
TORSDOF 6
ENDMDL
MODEL 5
REMARK VINA RESULT:    -6.791      4.209      6.416
REMARK INTER + INTRA:         -10.093
REMARK INTER:                  -9.347
REMARK INTRA:                  -0.747
REMARK UNBOUND:                -0.921
REMARK  Name = 
REMARK  6 active torsions:
REMARK  status: ('A' for Active; 'I' for Inactive)
REMARK    1  A    between atoms: C_2  and  C_3
REMARK    2  A    between atoms: C_6  and  C_7
REMARK    3  A    between atoms: C_11  and  C_12
REMARK    4  A    between atoms: C_12  and  N_13
REMARK    5  A    between atoms: N_13  and  C_14
REMARK    6  A    between atoms: C_17  and  C_18
REMARK                            x       y       z     vdW  Elec       q    Type
REMARK                         _______ _______ _______ _____ _____    ______ ____
ROOT
ATOM      1  C   UNL     1      48.261   7.593  13.679  0.00  0.00    +0.000 C 
ATOM      2  C   UNL     1      49.298   7.393  12.589  0.00  0.00    +0.000 C 
ATOM      3  C   UNL     1      48.886   8.778  12.943  0.00  0.00    +0.000 C 
ATOM      4  F   UNL     1      48.111   9.457  12.016  0.00  0.00    +0.000 F 
ENDROOT
BRANCH   1   9
ATOM      5  C   UNL     1      49.730   6.159  16.761  0.00  0.00    +0.000 A 
ATOM      6  N   UNL     1      49.435   7.025  17.746  0.00  0.00    +0.000 NA
ATOM      7  C   UNL     1      48.758   8.127  17.385  0.00  0.00    +0.000 A 
ATOM      8  C   UNL     1      48.357   8.383  16.096  0.00  0.00    +0.000 A 
ATOM      9  C   UNL     1      48.686   7.441  15.139  0.00  0.00    +0.000 A 
ATOM     10  N   UNL     1      49.391   6.335  15.472  0.00  0.00    +0.000 NA
BRANCH   5  14
ATOM     11  C   UNL     1      51.752   2.471  17.700  0.00  0.00    +0.000 A 
ATOM     12  C   UNL     1      50.393   2.464  17.380  0.00  0.00    +0.000 A 
ATOM     13  C   UNL     1      49.734   3.666  17.093  0.00  0.00    +0.000 A 
ATOM     14  C   UNL     1      50.412   4.898  17.112  0.00  0.00    +0.000 A 
ATOM     15  C   UNL     1      51.781   4.877  17.451  0.00  0.00    +0.000 A 
ATOM     16  C   UNL     1      52.445   3.681  17.741  0.00  0.00    +0.000 A 
BRANCH  11  18
ATOM     17  N   UNL     1      52.984   0.245  18.202  0.00  0.00    +0.000 NA
ATOM     18  C   UNL     1      52.434   1.240  17.978  0.00  0.00    +0.000 C 
ENDBRANCH  11  18
ENDBRANCH   5  14
ENDBRANCH   1   9
BRANCH   1  19
ATOM     19  N   UNL     1      46.812   7.389  13.448  0.00  0.00    +0.000 N 
ATOM     20  H   UNL     1      46.225   7.734  14.204  0.00  0.00    +0.000 HD
BRANCH  19  21
ATOM     21  C   UNL     1      46.239   6.304  12.760  0.00  0.00    +0.000 A 
ATOM     22  C   UNL     1      45.689   6.397  11.479  0.00  0.00    +0.000 A 
ATOM     23  C   UNL     1      45.032   5.302  10.899  0.00  0.00    +0.000 A 
ATOM     24  C   UNL     1      44.900   4.099  11.601  0.00  0.00    +0.000 A 
ATOM     25  C   UNL     1      45.426   4.000  12.889  0.00  0.00    +0.000 A 
ATOM     26  C   UNL     1      46.080   5.097  13.459  0.00  0.00    +0.000 A 
BRANCH  24  27
ATOM     27  C   UNL     1      44.142   2.983  10.976  0.00  0.00    +0.000 C 
ATOM     28  N   UNL     1      44.732   2.326   9.931  0.00  0.00    +0.000 N 
ATOM     29  O   UNL     1      43.024   2.670  11.364  0.00  0.00    +0.000 OA
ATOM     30  H   UNL     1      45.548   2.670   9.449  0.00  0.00    +0.000 HD
ATOM     31  H   UNL     1      44.179   1.611   9.476  0.00  0.00    +0.000 HD
ENDBRANCH  24  27
ENDBRANCH  19  21
ENDBRANCH   1  19
TORSDOF 6
ENDMDL
MODEL 6
REMARK VINA RESULT:    -6.644      5.343      8.819
REMARK INTER + INTRA:          -9.895
REMARK INTER:                  -9.146
REMARK INTRA:                  -0.749
REMARK UNBOUND:                -0.921
REMARK  Name = 
REMARK  6 active torsions:
REMARK  status: ('A' for Active; 'I' for Inactive)
REMARK    1  A    between atoms: C_2  and  C_3
REMARK    2  A    between atoms: C_6  and  C_7
REMARK    3  A    between atoms: C_11  and  C_12
REMARK    4  A    between atoms: C_12  and  N_13
REMARK    5  A    between atoms: N_13  and  C_14
REMARK    6  A    between atoms: C_17  and  C_18
REMARK                            x       y       z     vdW  Elec       q    Type
REMARK                         _______ _______ _______ _____ _____    ______ ____
ROOT
ATOM      1  C   UNL     1      48.916   5.293  17.834  0.00  0.00    +0.000 C 
ATOM      2  C   UNL     1      47.612   4.592  18.167  0.00  0.00    +0.000 C 
ATOM      3  C   UNL     1      47.879   5.930  18.759  0.00  0.00    +0.000 C 
ATOM      4  F   UNL     1      48.150   5.972  20.117  0.00  0.00    +0.000 F 
ENDROOT
BRANCH   1   9
ATOM      5  C   UNL     1      48.257   6.250  14.317  0.00  0.00    +0.000 A 
ATOM      6  N   UNL     1      49.274   7.053  13.959  0.00  0.00    +0.000 NA
ATOM      7  C   UNL     1      50.190   7.312  14.906  0.00  0.00    +0.000 A 
ATOM      8  C   UNL     1      50.134   6.791  16.177  0.00  0.00    +0.000 A 
ATOM      9  C   UNL     1      49.066   5.964  16.469  0.00  0.00    +0.000 A 
ATOM     10  N   UNL     1      48.116   5.709  15.540  0.00  0.00    +0.000 NA
BRANCH   5  14
ATOM     11  C   UNL     1      45.403   5.097  11.301  0.00  0.00    +0.000 A 
ATOM     12  C   UNL     1      46.210   6.220  11.111  0.00  0.00    +0.000 A 
ATOM     13  C   UNL     1      47.123   6.604  12.100  0.00  0.00    +0.000 A 
ATOM     14  C   UNL     1      47.260   5.877  13.297  0.00  0.00    +0.000 A 
ATOM     15  C   UNL     1      46.423   4.754  13.468  0.00  0.00    +0.000 A 
ATOM     16  C   UNL     1      45.507   4.366  12.485  0.00  0.00    +0.000 A 
BRANCH  11  18
ATOM     17  N   UNL     1      43.729   4.365   9.461  0.00  0.00    +0.000 NA
ATOM     18  C   UNL     1      44.478   4.692  10.283  0.00  0.00    +0.000 C 
ENDBRANCH  11  18
ENDBRANCH   5  14
ENDBRANCH   1   9
BRANCH   1  19
ATOM     19  N   UNL     1      50.203   4.928  18.471  0.00  0.00    +0.000 N 
ATOM     20  H   UNL     1      50.757   5.730  18.762  0.00  0.00    +0.000 HD
BRANCH  19  21
ATOM     21  C   UNL     1      50.989   3.808  18.143  0.00  0.00    +0.000 A 
ATOM     22  C   UNL     1      50.496   2.674  17.495  0.00  0.00    +0.000 A 
ATOM     23  C   UNL     1      51.310   1.548  17.301  0.00  0.00    +0.000 A 
ATOM     24  C   UNL     1      52.628   1.535  17.769  0.00  0.00    +0.000 A 
ATOM     25  C   UNL     1      53.126   2.654  18.436  0.00  0.00    +0.000 A 
ATOM     26  C   UNL     1      52.307   3.772  18.625  0.00  0.00    +0.000 A 
BRANCH  24  27
ATOM     27  C   UNL     1      53.438   0.299  17.599  0.00  0.00    +0.000 C 
ATOM     28  N   UNL     1      53.236  -0.716  18.493  0.00  0.00    +0.000 N 
ATOM     29  O   UNL     1      54.268   0.194  16.705  0.00  0.00    +0.000 OA
ATOM     30  H   UNL     1      52.721  -0.604  19.353  0.00  0.00    +0.000 HD
ATOM     31  H   UNL     1      53.837  -1.525  18.402  0.00  0.00    +0.000 HD
ENDBRANCH  24  27
ENDBRANCH  19  21
ENDBRANCH   1  19
TORSDOF 6
ENDMDL
MODEL 7
REMARK VINA RESULT:    -6.424      4.363      8.411
REMARK INTER + INTRA:          -9.598
REMARK INTER:                  -8.705
REMARK INTRA:                  -0.892
REMARK UNBOUND:                -0.921
REMARK  Name = 
REMARK  6 active torsions:
REMARK  status: ('A' for Active; 'I' for Inactive)
REMARK    1  A    between atoms: C_2  and  C_3
REMARK    2  A    between atoms: C_6  and  C_7
REMARK    3  A    between atoms: C_11  and  C_12
REMARK    4  A    between atoms: C_12  and  N_13
REMARK    5  A    between atoms: N_13  and  C_14
REMARK    6  A    between atoms: C_17  and  C_18
REMARK                            x       y       z     vdW  Elec       q    Type
REMARK                         _______ _______ _______ _____ _____    ______ ____
ROOT
ATOM      1  C   UNL     1      49.105   8.561  17.015  0.00  0.00    +0.000 C 
ATOM      2  C   UNL     1      47.908   9.420  17.378  0.00  0.00    +0.000 C 
ATOM      3  C   UNL     1      49.249  10.058  17.290  0.00  0.00    +0.000 C 
ATOM      4  F   UNL     1      49.835  10.452  18.482  0.00  0.00    +0.000 F 
ENDROOT
BRANCH   1   9
ATOM      5  C   UNL     1      48.482   7.036  13.697  0.00  0.00    +0.000 A 
ATOM      6  N   UNL     1      49.580   7.290  12.965  0.00  0.00    +0.000 NA
ATOM      7  C   UNL     1      50.544   8.007  13.566  0.00  0.00    +0.000 A 
ATOM      8  C   UNL     1      50.456   8.459  14.861  0.00  0.00    +0.000 A 
ATOM      9  C   UNL     1      49.302   8.149  15.557  0.00  0.00    +0.000 A 
ATOM     10  N   UNL     1      48.306   7.451  14.964  0.00  0.00    +0.000 NA
BRANCH   5  14
ATOM     11  C   UNL     1      45.323   4.632  12.021  0.00  0.00    +0.000 A 
ATOM     12  C   UNL     1      45.929   4.256  13.221  0.00  0.00    +0.000 A 
ATOM     13  C   UNL     1      46.967   5.029  13.755  0.00  0.00    +0.000 A 
ATOM     14  C   UNL     1      47.422   6.194  13.111  0.00  0.00    +0.000 A 
ATOM     15  C   UNL     1      46.801   6.543  11.893  0.00  0.00    +0.000 A 
ATOM     16  C   UNL     1      45.765   5.775  11.353  0.00  0.00    +0.000 A 
BRANCH  11  18
ATOM     17  N   UNL     1      43.380   3.220  11.042  0.00  0.00    +0.000 NA
ATOM     18  C   UNL     1      44.249   3.851  11.480  0.00  0.00    +0.000 C 
ENDBRANCH  11  18
ENDBRANCH   5  14
ENDBRANCH   1   9
BRANCH   1  19
ATOM     19  N   UNL     1      49.768   7.664  17.990  0.00  0.00    +0.000 N 
ATOM     20  H   UNL     1      50.534   8.105  18.495  0.00  0.00    +0.000 HD
BRANCH  19  21
ATOM     21  C   UNL     1      49.937   6.276  17.840  0.00  0.00    +0.000 A 
ATOM     22  C   UNL     1      51.172   5.660  17.629  0.00  0.00    +0.000 A 
ATOM     23  C   UNL     1      51.253   4.283  17.375  0.00  0.00    +0.000 A 
ATOM     24  C   UNL     1      50.094   3.502  17.312  0.00  0.00    +0.000 A 
ATOM     25  C   UNL     1      48.852   4.109  17.499  0.00  0.00    +0.000 A 
ATOM     26  C   UNL     1      48.781   5.483  17.753  0.00  0.00    +0.000 A 
BRANCH  24  27
ATOM     27  C   UNL     1      50.218   2.059  16.978  0.00  0.00    +0.000 C 
ATOM     28  N   UNL     1      51.077   1.307  17.732  0.00  0.00    +0.000 N 
ATOM     29  O   UNL     1      49.592   1.559  16.052  0.00  0.00    +0.000 OA
ATOM     30  H   UNL     1      51.756   1.706  18.362  0.00  0.00    +0.000 HD
ATOM     31  H   UNL     1      51.197   0.342  17.454  0.00  0.00    +0.000 HD
ENDBRANCH  24  27
ENDBRANCH  19  21
ENDBRANCH   1  19
TORSDOF 6
ENDMDL
MODEL 8
REMARK VINA RESULT:    -6.166      4.735      7.365
REMARK INTER + INTRA:          -9.249
REMARK INTER:                  -8.693
REMARK INTRA:                  -0.557
REMARK UNBOUND:                -0.921
REMARK  Name = 
REMARK  6 active torsions:
REMARK  status: ('A' for Active; 'I' for Inactive)
REMARK    1  A    between atoms: C_2  and  C_3
REMARK    2  A    between atoms: C_6  and  C_7
REMARK    3  A    between atoms: C_11  and  C_12
REMARK    4  A    between atoms: C_12  and  N_13
REMARK    5  A    between atoms: N_13  and  C_14
REMARK    6  A    between atoms: C_17  and  C_18
REMARK                            x       y       z     vdW  Elec       q    Type
REMARK                         _______ _______ _______ _____ _____    ______ ____
ROOT
ATOM      1  C   UNL     1      49.563   7.806  14.388  0.00  0.00    +0.000 C 
ATOM      2  C   UNL     1      50.677   8.800  14.118  0.00  0.00    +0.000 C 
ATOM      3  C   UNL     1      49.300   9.311  14.352  0.00  0.00    +0.000 C 
ATOM      4  F   UNL     1      48.631   9.833  13.256  0.00  0.00    +0.000 F 
ENDROOT
BRANCH   1   9
ATOM      5  C   UNL     1      50.118   5.466  17.205  0.00  0.00    +0.000 A 
ATOM      6  N   UNL     1      49.312   5.887  18.196  0.00  0.00    +0.000 NA
ATOM      7  C   UNL     1      48.586   6.988  17.944  0.00  0.00    +0.000 A 
ATOM      8  C   UNL     1      48.623   7.664  16.748  0.00  0.00    +0.000 A 
ATOM      9  C   UNL     1      49.465   7.165  15.772  0.00  0.00    +0.000 A 
ATOM     10  N   UNL     1      50.228   6.073  16.011  0.00  0.00    +0.000 NA
BRANCH   5  14
ATOM     11  C   UNL     1      52.327   1.825  17.863  0.00  0.00    +0.000 A 
ATOM     12  C   UNL     1      52.939   3.063  18.065  0.00  0.00    +0.000 A 
ATOM     13  C   UNL     1      52.225   4.244  17.833  0.00  0.00    +0.000 A 
ATOM     14  C   UNL     1      50.887   4.222  17.402  0.00  0.00    +0.000 A 
ATOM     15  C   UNL     1      50.297   2.957  17.194  0.00  0.00    +0.000 A 
ATOM     16  C   UNL     1      51.004   1.773  17.422  0.00  0.00    +0.000 A 
BRANCH  11  18
ATOM     17  N   UNL     1      53.635  -0.368  18.319  0.00  0.00    +0.000 NA
ATOM     18  C   UNL     1      53.050   0.613  18.116  0.00  0.00    +0.000 C 
ENDBRANCH  11  18
ENDBRANCH   5  14
ENDBRANCH   1   9
BRANCH   1  19
ATOM     19  N   UNL     1      48.921   7.017  13.312  0.00  0.00    +0.000 N 
ATOM     20  H   UNL     1      49.173   7.323  12.374  0.00  0.00    +0.000 HD
BRANCH  19  21
ATOM     21  C   UNL     1      47.639   6.441  13.374  0.00  0.00    +0.000 A 
ATOM     22  C   UNL     1      47.398   5.117  13.747  0.00  0.00    +0.000 A 
ATOM     23  C   UNL     1      46.105   4.576  13.677  0.00  0.00    +0.000 A 
ATOM     24  C   UNL     1      45.035   5.350  13.216  0.00  0.00    +0.000 A 
ATOM     25  C   UNL     1      45.266   6.667  12.820  0.00  0.00    +0.000 A 
ATOM     26  C   UNL     1      46.558   7.198  12.894  0.00  0.00    +0.000 A 
BRANCH  24  27
ATOM     27  C   UNL     1      43.693   4.720  13.098  0.00  0.00    +0.000 C 
ATOM     28  N   UNL     1      42.621   5.548  12.911  0.00  0.00    +0.000 N 
ATOM     29  O   UNL     1      43.544   3.508  13.183  0.00  0.00    +0.000 OA
ATOM     30  H   UNL     1      42.663   6.548  13.037  0.00  0.00    +0.000 HD
ATOM     31  H   UNL     1      41.709   5.111  12.895  0.00  0.00    +0.000 HD
ENDBRANCH  24  27
ENDBRANCH  19  21
ENDBRANCH   1  19
TORSDOF 6
ENDMDL
MODEL 9
REMARK VINA RESULT:    -5.878      4.312      6.953
REMARK INTER + INTRA:          -8.861
REMARK INTER:                  -8.206
REMARK INTRA:                  -0.655
REMARK UNBOUND:                -0.921
REMARK  Name = 
REMARK  6 active torsions:
REMARK  status: ('A' for Active; 'I' for Inactive)
REMARK    1  A    between atoms: C_2  and  C_3
REMARK    2  A    between atoms: C_6  and  C_7
REMARK    3  A    between atoms: C_11  and  C_12
REMARK    4  A    between atoms: C_12  and  N_13
REMARK    5  A    between atoms: N_13  and  C_14
REMARK    6  A    between atoms: C_17  and  C_18
REMARK                            x       y       z     vdW  Elec       q    Type
REMARK                         _______ _______ _______ _____ _____    ______ ____
ROOT
ATOM      1  C   UNL     1      49.432   7.793  12.996  0.00  0.00    +0.000 C 
ATOM      2  C   UNL     1      48.865   8.692  14.079  0.00  0.00    +0.000 C 
ATOM      3  C   UNL     1      49.920   7.709  14.443  0.00  0.00    +0.000 C 
ATOM      4  F   UNL     1      49.526   6.620  15.205  0.00  0.00    +0.000 F 
ENDROOT
BRANCH   1   9
ATOM      5  C   UNL     1      51.942   8.010  10.281  0.00  0.00    +0.000 A 
ATOM      6  N   UNL     1      52.322   9.299  10.235  0.00  0.00    +0.000 NA
ATOM      7  C   UNL     1      51.717  10.128  11.100  0.00  0.00    +0.000 A 
ATOM      8  C   UNL     1      50.771   9.719  12.009  0.00  0.00    +0.000 A 
ATOM      9  C   UNL     1      50.440   8.376  12.007  0.00  0.00    +0.000 A 
ATOM     10  N   UNL     1      51.015   7.525  11.126  0.00  0.00    +0.000 NA
BRANCH   5  14
ATOM     11  C   UNL     1      53.860   5.125   7.719  0.00  0.00    +0.000 A 
ATOM     12  C   UNL     1      54.200   5.198   9.071  0.00  0.00    +0.000 A 
ATOM     13  C   UNL     1      53.589   6.148   9.897  0.00  0.00    +0.000 A 
ATOM     14  C   UNL     1      52.623   7.042   9.401  0.00  0.00    +0.000 A 
ATOM     15  C   UNL     1      52.308   6.954   8.028  0.00  0.00    +0.000 A 
ATOM     16  C   UNL     1      52.916   6.009   7.196  0.00  0.00    +0.000 A 
BRANCH  11  18
ATOM     17  N   UNL     1      54.968   3.348   6.189  0.00  0.00    +0.000 NA
ATOM     18  C   UNL     1      54.473   4.142   6.873  0.00  0.00    +0.000 C 
ENDBRANCH  11  18
ENDBRANCH   5  14
ENDBRANCH   1   9
BRANCH   1  19
ATOM     19  N   UNL     1      48.713   6.600  12.493  0.00  0.00    +0.000 N 
ATOM     20  H   UNL     1      49.093   6.230  11.624  0.00  0.00    +0.000 HD
BRANCH  19  21
ATOM     21  C   UNL     1      47.336   6.354  12.637  0.00  0.00    +0.000 A 
ATOM     22  C   UNL     1      46.807   5.313  13.404  0.00  0.00    +0.000 A 
ATOM     23  C   UNL     1      45.428   5.056  13.411  0.00  0.00    +0.000 A 
ATOM     24  C   UNL     1      44.557   5.830  12.637  0.00  0.00    +0.000 A 
ATOM     25  C   UNL     1      45.075   6.858  11.850  0.00  0.00    +0.000 A 
ATOM     26  C   UNL     1      46.451   7.107  11.849  0.00  0.00    +0.000 A 
BRANCH  24  27
ATOM     27  C   UNL     1      43.110   5.485  12.624  0.00  0.00    +0.000 C 
ATOM     28  N   UNL     1      42.312   6.142  11.729  0.00  0.00    +0.000 N 
ATOM     29  O   UNL     1      42.641   4.659  13.396  0.00  0.00    +0.000 OA
ATOM     30  H   UNL     1      42.606   6.962  11.221  0.00  0.00    +0.000 HD
ATOM     31  H   UNL     1      41.322   5.942  11.774  0.00  0.00    +0.000 HD
ENDBRANCH  24  27
ENDBRANCH  19  21
ENDBRANCH   1  19
TORSDOF 6
ENDMDL
