MODEL 1
REMARK VINA RESULT:    -9.314      0.000      0.000
REMARK INTER + INTRA:         -14.651
REMARK INTER:                 -13.670
REMARK INTRA:                  -0.981
REMARK UNBOUND:                -0.981
REMARK  Name = 
REMARK  8 active torsions:
REMARK  status: ('A' for Active; 'I' for Inactive)
REMARK    1  A    between atoms: C_2  and  C_4
REMARK    2  A    between atoms: N_8  and  C_9
REMARK    3  A    between atoms: C_9  and  C_10
REMARK    4  A    between atoms: C_10  and  C_13
REMARK    5  A    between atoms: C_17  and  O_18
REMARK    6  A    between atoms: O_18  and  C_19
REMARK    7  A    between atoms: N_21  and  C_22
REMARK    8  A    between atoms: C_22  and  C_23
REMARK                            x       y       z     vdW  Elec       q    Type
REMARK                         _______ _______ _______ _____ _____    ______ ____
ROOT
ATOM      1  C   UNL     1      43.595   5.689  12.025  0.00  0.00    +0.000 C 
ATOM      2  F   UNL     1      43.101   6.841  11.480  0.00  0.00    +0.000 F 
ATOM      3  F   UNL     1      42.846   5.469  13.146  0.00  0.00    +0.000 F 
ENDROOT
BRANCH   1   4
ATOM      4  C   UNL     1      45.071   5.832  12.376  0.00  0.00    +0.000 A 
ATOM      5  C   UNL     1      45.811   6.901  11.856  0.00  0.00    +0.000 A 
ATOM      6  C   UNL     1      47.162   7.053  12.190  0.00  0.00    +0.000 A 
ATOM      7  C   UNL     1      47.798   6.152  13.049  0.00  0.00    +0.000 A 
ATOM      8  C   UNL     1      47.076   5.089  13.569  0.00  0.00    +0.000 A 
ATOM      9  C   UNL     1      45.733   4.936  13.233  0.00  0.00    +0.000 A 
BRANCH   8  10
ATOM     10  O   UNL     1      47.533   4.150  14.457  0.00  0.00    +0.000 OA
BRANCH  10  11
ATOM     11  C   UNL     1      47.392   4.386  15.872  0.00  0.00    +0.000 C 
ATOM     12  C   UNL     1      48.453   5.258  16.571  0.00  0.00    +0.000 C 
ATOM     13  N   UNL     1      48.714   4.192  17.554  0.00  0.00    +0.000 NA
ATOM     14  C   UNL     1      47.906   3.237  16.773  0.00  0.00    +0.000 C 
BRANCH  13  15
ATOM     15  C   UNL     1      48.054   4.487  18.848  0.00  0.00    +0.000 C 
BRANCH  15  16
ATOM     16  C   UNL     1      48.997   4.808  20.028  0.00  0.00    +0.000 C 
ATOM     17  F   UNL     1      48.930   6.095  20.431  0.00  0.00    +0.000 F 
ATOM     18  F   UNL     1      48.714   4.028  21.098  0.00  0.00    +0.000 F 
ATOM     19  F   UNL     1      50.284   4.563  19.680  0.00  0.00    +0.000 F 
ENDBRANCH  15  16
ENDBRANCH  13  15
ENDBRANCH  10  11
ENDBRANCH   8  10
ENDBRANCH   1   4
BRANCH   1  20
ATOM     20  C   UNL     1      43.338   4.535  11.024  0.00  0.00    +0.000 C 
BRANCH  20  25
ATOM     21  C   UNL     1      46.429   2.324   7.691  0.00  0.00    +0.000 A 
ATOM     22  C   UNL     1      45.609   1.758   8.657  0.00  0.00    +0.000 A 
ATOM     23  C   UNL     1      44.716   2.576   9.346  0.00  0.00    +0.000 A 
ATOM     24  C   UNL     1      44.664   3.944   9.067  0.00  0.00    +0.000 A 
ATOM     25  N   UNL     1      43.731   4.793   9.641  0.00  0.00    +0.000 N 
ATOM     26  N   UNL     1      45.482   4.505   8.161  0.00  0.00    +0.000 NA
ATOM     27  C   UNL     1      46.348   3.694   7.497  0.00  0.00    +0.000 A 
ATOM     28  H   UNL     1      43.966   5.758   9.411  0.00  0.00    +0.000 HD
BRANCH  21  30
ATOM     29  N   UNL     1      48.530   2.140   6.489  0.00  0.00    +0.000 N 
ATOM     30  C   UNL     1      47.366   1.528   6.877  0.00  0.00    +0.000 C 
ATOM     31  O   UNL     1      47.135   0.363   6.591  0.00  0.00    +0.000 OA
ATOM     32  H   UNL     1      49.213   1.553   6.028  0.00  0.00    +0.000 HD
ATOM     33  H   UNL     1      48.865   2.990   6.921  0.00  0.00    +0.000 HD
ENDBRANCH  21  30
ENDBRANCH  20  25
ENDBRANCH   1  20
TORSDOF 8
ENDMDL
MODEL 2
REMARK VINA RESULT:    -8.197      1.286      1.525
REMARK INTER + INTRA:         -13.011
REMARK INTER:                 -12.181
REMARK INTRA:                  -0.830
REMARK UNBOUND:                -0.981
REMARK  Name = 
REMARK  8 active torsions:
REMARK  status: ('A' for Active; 'I' for Inactive)
REMARK    1  A    between atoms: C_2  and  C_4
REMARK    2  A    between atoms: N_8  and  C_9
REMARK    3  A    between atoms: C_9  and  C_10
REMARK    4  A    between atoms: C_10  and  C_13
REMARK    5  A    between atoms: C_17  and  O_18
REMARK    6  A    between atoms: O_18  and  C_19
REMARK    7  A    between atoms: N_21  and  C_22
REMARK    8  A    between atoms: C_22  and  C_23
REMARK                            x       y       z     vdW  Elec       q    Type
REMARK                         _______ _______ _______ _____ _____    ______ ____
ROOT
ATOM      1  C   UNL     1      43.240   5.512  12.058  0.00  0.00    +0.000 C 
ATOM      2  F   UNL     1      42.282   6.376  11.609  0.00  0.00    +0.000 F 
ATOM      3  F   UNL     1      42.749   5.004  13.228  0.00  0.00    +0.000 F 
ENDROOT
BRANCH   1   4
ATOM      4  C   UNL     1      44.565   6.227  12.290  0.00  0.00    +0.000 A 
ATOM      5  C   UNL     1      44.768   7.507  11.761  0.00  0.00    +0.000 A 
ATOM      6  C   UNL     1      45.974   8.181  11.987  0.00  0.00    +0.000 A 
ATOM      7  C   UNL     1      46.995   7.599  12.745  0.00  0.00    +0.000 A 
ATOM      8  C   UNL     1      46.805   6.332  13.274  0.00  0.00    +0.000 A 
ATOM      9  C   UNL     1      45.607   5.660  13.045  0.00  0.00    +0.000 A 
BRANCH   8  10
ATOM     10  O   UNL     1      47.679   5.643  14.075  0.00  0.00    +0.000 OA
BRANCH  10  11
ATOM     11  C   UNL     1      48.176   6.264  15.277  0.00  0.00    +0.000 C 
ATOM     12  C   UNL     1      49.641   6.743  15.292  0.00  0.00    +0.000 C 
ATOM     13  N   UNL     1      49.910   5.954  16.507  0.00  0.00    +0.000 NA
ATOM     14  C   UNL     1      48.607   5.274  16.386  0.00  0.00    +0.000 C 
BRANCH  13  15
ATOM     15  C   UNL     1      49.930   6.818  17.711  0.00  0.00    +0.000 C 
BRANCH  15  16
ATOM     16  C   UNL     1      50.693   6.256  18.930  0.00  0.00    +0.000 C 
ATOM     17  F   UNL     1      51.548   7.144  19.482  0.00  0.00    +0.000 F 
ATOM     18  F   UNL     1      49.834   5.859  19.898  0.00  0.00    +0.000 F 
ATOM     19  F   UNL     1      51.421   5.170  18.570  0.00  0.00    +0.000 F 
ENDBRANCH  15  16
ENDBRANCH  13  15
ENDBRANCH  10  11
ENDBRANCH   8  10
ENDBRANCH   1   4
BRANCH   1  20
ATOM     20  C   UNL     1      43.366   4.358  11.032  0.00  0.00    +0.000 C 
BRANCH  20  25
ATOM     21  C   UNL     1      46.645   2.546   7.638  0.00  0.00    +0.000 A 
ATOM     22  C   UNL     1      45.816   1.872   8.524  0.00  0.00    +0.000 A 
ATOM     23  C   UNL     1      44.871   2.598   9.247  0.00  0.00    +0.000 A 
ATOM     24  C   UNL     1      44.775   3.981   9.080  0.00  0.00    +0.000 A 
ATOM     25  N   UNL     1      43.793   4.745   9.689  0.00  0.00    +0.000 N 
ATOM     26  N   UNL     1      45.600   4.645   8.253  0.00  0.00    +0.000 NA
ATOM     27  C   UNL     1      46.518   3.924   7.555  0.00  0.00    +0.000 A 
ATOM     28  H   UNL     1      43.998   5.734   9.548  0.00  0.00    +0.000 HD
BRANCH  21  30
ATOM     29  N   UNL     1      48.323   2.620   5.885  0.00  0.00    +0.000 N 
ATOM     30  C   UNL     1      47.637   1.856   6.794  0.00  0.00    +0.000 C 
ATOM     31  O   UNL     1      47.867   0.663   6.922  0.00  0.00    +0.000 OA
ATOM     32  H   UNL     1      49.077   2.161   5.391  0.00  0.00    +0.000 HD
ATOM     33  H   UNL     1      48.349   3.629   5.936  0.00  0.00    +0.000 HD
ENDBRANCH  21  30
ENDBRANCH  20  25
ENDBRANCH   1  20
TORSDOF 8
ENDMDL
MODEL 3
REMARK VINA RESULT:    -7.961      4.050      5.118
REMARK INTER + INTRA:         -12.665
REMARK INTER:                 -12.170
REMARK INTRA:                  -0.494
REMARK UNBOUND:                -0.981
REMARK  Name = 
REMARK  8 active torsions:
REMARK  status: ('A' for Active; 'I' for Inactive)
REMARK    1  A    between atoms: C_2  and  C_4
REMARK    2  A    between atoms: N_8  and  C_9
REMARK    3  A    between atoms: C_9  and  C_10
REMARK    4  A    between atoms: C_10  and  C_13
REMARK    5  A    between atoms: C_17  and  O_18
REMARK    6  A    between atoms: O_18  and  C_19
REMARK    7  A    between atoms: N_21  and  C_22
REMARK    8  A    between atoms: C_22  and  C_23
REMARK                            x       y       z     vdW  Elec       q    Type
REMARK                         _______ _______ _______ _____ _____    ______ ____
ROOT
ATOM      1  C   UNL     1      44.456   4.872  12.211  0.00  0.00    +0.000 C 
ATOM      2  F   UNL     1      43.918   4.521  13.417  0.00  0.00    +0.000 F 
ATOM      3  F   UNL     1      45.536   4.051  12.044  0.00  0.00    +0.000 F 
ENDROOT
BRANCH   1   4
ATOM      4  C   UNL     1      44.879   6.336  12.198  0.00  0.00    +0.000 A 
ATOM      5  C   UNL     1      44.144   7.267  11.456  0.00  0.00    +0.000 A 
ATOM      6  C   UNL     1      44.512   8.618  11.456  0.00  0.00    +0.000 A 
ATOM      7  C   UNL     1      45.611   9.067  12.195  0.00  0.00    +0.000 A 
ATOM      8  C   UNL     1      46.346   8.154  12.934  0.00  0.00    +0.000 A 
ATOM      9  C   UNL     1      45.982   6.809  12.930  0.00  0.00    +0.000 A 
BRANCH   8  10
ATOM     10  O   UNL     1      47.414   8.433  13.746  0.00  0.00    +0.000 OA
BRANCH  10  11
ATOM     11  C   UNL     1      48.680   8.786  13.154  0.00  0.00    +0.000 C 
ATOM     12  C   UNL     1      48.917   8.416  11.676  0.00  0.00    +0.000 C 
ATOM     13  N   UNL     1      50.154   7.699  12.030  0.00  0.00    +0.000 NA
ATOM     14  C   UNL     1      49.836   7.805  13.467  0.00  0.00    +0.000 C 
BRANCH  13  15
ATOM     15  C   UNL     1      51.352   8.510  11.708  0.00  0.00    +0.000 C 
BRANCH  15  16
ATOM     16  C   UNL     1      52.278   7.937  10.613  0.00  0.00    +0.000 C 
ATOM     17  F   UNL     1      53.550   7.754  11.030  0.00  0.00    +0.000 F 
ATOM     18  F   UNL     1      51.818   6.745  10.166  0.00  0.00    +0.000 F 
ATOM     19  F   UNL     1      52.322   8.776   9.549  0.00  0.00    +0.000 F 
ENDBRANCH  15  16
ENDBRANCH  13  15
ENDBRANCH  10  11
ENDBRANCH   8  10
ENDBRANCH   1   4
BRANCH   1  20
ATOM     20  C   UNL     1      43.416   4.552  11.108  0.00  0.00    +0.000 C 
BRANCH  20  25
ATOM     21  C   UNL     1      46.451   2.393   7.690  0.00  0.00    +0.000 A 
ATOM     22  C   UNL     1      45.607   1.811   8.626  0.00  0.00    +0.000 A 
ATOM     23  C   UNL     1      44.738   2.626   9.348  0.00  0.00    +0.000 A 
ATOM     24  C   UNL     1      44.732   4.006   9.132  0.00  0.00    +0.000 A 
ATOM     25  N   UNL     1      43.825   4.859   9.740  0.00  0.00    +0.000 N 
ATOM     26  N   UNL     1      45.573   4.581   8.255  0.00  0.00    +0.000 NA
ATOM     27  C   UNL     1      46.416   3.773   7.559  0.00  0.00    +0.000 A 
ATOM     28  H   UNL     1      44.093   5.825   9.555  0.00  0.00    +0.000 HD
BRANCH  21  30
ATOM     29  N   UNL     1      48.550   2.195   6.488  0.00  0.00    +0.000 N 
ATOM     30  C   UNL     1      47.365   1.604   6.845  0.00  0.00    +0.000 C 
ATOM     31  O   UNL     1      47.099   0.461   6.507  0.00  0.00    +0.000 OA
ATOM     32  H   UNL     1      49.216   1.607   6.004  0.00  0.00    +0.000 HD
ATOM     33  H   UNL     1      48.910   3.013   6.959  0.00  0.00    +0.000 HD
ENDBRANCH  21  30
ENDBRANCH  20  25
ENDBRANCH   1  20
TORSDOF 8
ENDMDL
MODEL 4
REMARK VINA RESULT:    -7.894      3.806      9.468
REMARK INTER + INTRA:         -12.567
REMARK INTER:                 -12.201
REMARK INTRA:                  -0.366
REMARK UNBOUND:                -0.981
REMARK  Name = 
REMARK  8 active torsions:
REMARK  status: ('A' for Active; 'I' for Inactive)
REMARK    1  A    between atoms: C_2  and  C_4
REMARK    2  A    between atoms: N_8  and  C_9
REMARK    3  A    between atoms: C_9  and  C_10
REMARK    4  A    between atoms: C_10  and  C_13
REMARK    5  A    between atoms: C_17  and  O_18
REMARK    6  A    between atoms: O_18  and  C_19
REMARK    7  A    between atoms: N_21  and  C_22
REMARK    8  A    between atoms: C_22  and  C_23
REMARK                            x       y       z     vdW  Elec       q    Type
REMARK                         _______ _______ _______ _____ _____    ______ ____
ROOT
ATOM      1  C   UNL     1      46.894   4.478  13.680  0.00  0.00    +0.000 C 
ATOM      2  F   UNL     1      47.736   5.420  13.161  0.00  0.00    +0.000 F 
ATOM      3  F   UNL     1      47.525   3.281  13.485  0.00  0.00    +0.000 F 
ENDROOT
BRANCH   1   4
ATOM      4  C   UNL     1      45.541   4.499  12.980  0.00  0.00    +0.000 A 
ATOM      5  C   UNL     1      44.657   5.561  13.204  0.00  0.00    +0.000 A 
ATOM      6  C   UNL     1      43.421   5.601  12.549  0.00  0.00    +0.000 A 
ATOM      7  C   UNL     1      43.044   4.591  11.657  0.00  0.00    +0.000 A 
ATOM      8  C   UNL     1      43.911   3.535  11.428  0.00  0.00    +0.000 A 
ATOM      9  C   UNL     1      45.139   3.493  12.084  0.00  0.00    +0.000 A 
BRANCH   8  10
ATOM     10  O   UNL     1      43.717   2.496  10.554  0.00  0.00    +0.000 OA
BRANCH  10  11
ATOM     11  C   UNL     1      44.204   2.609   9.202  0.00  0.00    +0.000 C 
ATOM     12  C   UNL     1      45.528   1.905   8.847  0.00  0.00    +0.000 C 
ATOM     13  N   UNL     1      46.090   3.168   8.339  0.00  0.00    +0.000 NA
ATOM     14  C   UNL     1      44.954   3.927   8.893  0.00  0.00    +0.000 C 
BRANCH  13  15
ATOM     15  C   UNL     1      46.061   3.208   6.857  0.00  0.00    +0.000 C 
BRANCH  15  16
ATOM     16  C   UNL     1      47.232   2.500   6.142  0.00  0.00    +0.000 C 
ATOM     17  F   UNL     1      47.403   2.906   4.865  0.00  0.00    +0.000 F 
ATOM     18  F   UNL     1      48.397   2.711   6.798  0.00  0.00    +0.000 F 
ATOM     19  F   UNL     1      47.024   1.161   6.113  0.00  0.00    +0.000 F 
ENDBRANCH  15  16
ENDBRANCH  13  15
ENDBRANCH  10  11
ENDBRANCH   8  10
ENDBRANCH   1   4
BRANCH   1  20
ATOM     20  C   UNL     1      46.772   4.729  15.204  0.00  0.00    +0.000 C 
BRANCH  20  25
ATOM     21  C   UNL     1      50.932   3.462  17.782  0.00  0.00    +0.000 A 
ATOM     22  C   UNL     1      50.369   4.711  17.556  0.00  0.00    +0.000 A 
ATOM     23  C   UNL     1      49.116   4.785  16.952  0.00  0.00    +0.000 A 
ATOM     24  C   UNL     1      48.451   3.616  16.575  0.00  0.00    +0.000 A 
ATOM     25  N   UNL     1      47.163   3.615  16.065  0.00  0.00    +0.000 N 
ATOM     26  N   UNL     1      49.007   2.406  16.755  0.00  0.00    +0.000 NA
ATOM     27  C   UNL     1      50.231   2.349  17.345  0.00  0.00    +0.000 A 
ATOM     28  H   UNL     1      46.935   2.681  15.726  0.00  0.00    +0.000 HD
BRANCH  21  30
ATOM     29  N   UNL     1      52.737   2.012  18.510  0.00  0.00    +0.000 N 
ATOM     30  C   UNL     1      52.228   3.285  18.461  0.00  0.00    +0.000 C 
ATOM     31  O   UNL     1      52.841   4.233  18.927  0.00  0.00    +0.000 OA
ATOM     32  H   UNL     1      53.675   1.919  18.878  0.00  0.00    +0.000 HD
ATOM     33  H   UNL     1      52.396   1.270  17.918  0.00  0.00    +0.000 HD
ENDBRANCH  21  30
ENDBRANCH  20  25
ENDBRANCH   1  20
TORSDOF 8
ENDMDL
MODEL 5
REMARK VINA RESULT:    -7.687      3.534      9.488
REMARK INTER + INTRA:         -12.263
REMARK INTER:                 -11.947
REMARK INTRA:                  -0.316
REMARK UNBOUND:                -0.981
REMARK  Name = 
REMARK  8 active torsions:
REMARK  status: ('A' for Active; 'I' for Inactive)
REMARK    1  A    between atoms: C_2  and  C_4
REMARK    2  A    between atoms: N_8  and  C_9
REMARK    3  A    between atoms: C_9  and  C_10
REMARK    4  A    between atoms: C_10  and  C_13
REMARK    5  A    between atoms: C_17  and  O_18
REMARK    6  A    between atoms: O_18  and  C_19
REMARK    7  A    between atoms: N_21  and  C_22
REMARK    8  A    between atoms: C_22  and  C_23
REMARK                            x       y       z     vdW  Elec       q    Type
REMARK                         _______ _______ _______ _____ _____    ______ ____
ROOT
ATOM      1  C   UNL     1      46.571   5.834  12.805  0.00  0.00    +0.000 C 
ATOM      2  F   UNL     1      46.465   6.904  13.648  0.00  0.00    +0.000 F 
ATOM      3  F   UNL     1      47.357   6.263  11.773  0.00  0.00    +0.000 F 
ENDROOT
BRANCH   1   4
ATOM      4  C   UNL     1      45.204   5.390  12.300  0.00  0.00    +0.000 A 
ATOM      5  C   UNL     1      44.083   6.199  12.521  0.00  0.00    +0.000 A 
ATOM      6  C   UNL     1      42.826   5.811  12.042  0.00  0.00    +0.000 A 
ATOM      7  C   UNL     1      42.663   4.618  11.331  0.00  0.00    +0.000 A 
ATOM      8  C   UNL     1      43.765   3.808  11.106  0.00  0.00    +0.000 A 
ATOM      9  C   UNL     1      45.014   4.193  11.588  0.00  0.00    +0.000 A 
BRANCH   8  10
ATOM     10  O   UNL     1      43.786   2.639  10.392  0.00  0.00    +0.000 OA
BRANCH  10  11
ATOM     11  C   UNL     1      44.299   2.642   9.045  0.00  0.00    +0.000 C 
ATOM     12  C   UNL     1      45.696   2.038   8.800  0.00  0.00    +0.000 C 
ATOM     13  N   UNL     1      46.148   3.283   8.157  0.00  0.00    +0.000 NA
ATOM     14  C   UNL     1      44.927   3.984   8.596  0.00  0.00    +0.000 C 
BRANCH  13  15
ATOM     15  C   UNL     1      46.160   3.147   6.681  0.00  0.00    +0.000 C 
BRANCH  15  16
ATOM     16  C   UNL     1      47.407   2.464   6.077  0.00  0.00    +0.000 C 
ATOM     17  F   UNL     1      47.630   2.802   4.789  0.00  0.00    +0.000 F 
ATOM     18  F   UNL     1      48.518   2.779   6.782  0.00  0.00    +0.000 F 
ATOM     19  F   UNL     1      47.271   1.116   6.121  0.00  0.00    +0.000 F 
ENDBRANCH  15  16
ENDBRANCH  13  15
ENDBRANCH  10  11
ENDBRANCH   8  10
ENDBRANCH   1   4
BRANCH   1  20
ATOM     20  C   UNL     1      47.317   4.702  13.556  0.00  0.00    +0.000 C 
BRANCH  20  25
ATOM     21  C   UNL     1      48.625   4.605  18.438  0.00  0.00    +0.000 A 
ATOM     22  C   UNL     1      48.880   5.562  17.465  0.00  0.00    +0.000 A 
ATOM     23  C   UNL     1      48.264   5.441  16.222  0.00  0.00    +0.000 A 
ATOM     24  C   UNL     1      47.412   4.363  15.967  0.00  0.00    +0.000 A 
ATOM     25  N   UNL     1      46.689   4.238  14.791  0.00  0.00    +0.000 N 
ATOM     26  N   UNL     1      47.191   3.412  16.890  0.00  0.00    +0.000 NA
ATOM     27  C   UNL     1      47.800   3.544  18.099  0.00  0.00    +0.000 A 
ATOM     28  H   UNL     1      46.254   3.317  14.759  0.00  0.00    +0.000 HD
BRANCH  21  30
ATOM     29  N   UNL     1      48.561   3.957  20.776  0.00  0.00    +0.000 N 
ATOM     30  C   UNL     1      49.192   4.681  19.797  0.00  0.00    +0.000 C 
ATOM     31  O   UNL     1      50.199   5.329  20.035  0.00  0.00    +0.000 OA
ATOM     32  H   UNL     1      49.021   3.926  21.677  0.00  0.00    +0.000 HD
ATOM     33  H   UNL     1      47.904   3.219  20.565  0.00  0.00    +0.000 HD
ENDBRANCH  21  30
ENDBRANCH  20  25
ENDBRANCH   1  20
TORSDOF 8
ENDMDL
MODEL 6
REMARK VINA RESULT:    -7.268      3.779      8.896
REMARK INTER + INTRA:         -11.648
REMARK INTER:                 -10.824
REMARK INTRA:                  -0.824
REMARK UNBOUND:                -0.981
REMARK  Name = 
REMARK  8 active torsions:
REMARK  status: ('A' for Active; 'I' for Inactive)
REMARK    1  A    between atoms: C_2  and  C_4
REMARK    2  A    between atoms: N_8  and  C_9
REMARK    3  A    between atoms: C_9  and  C_10
REMARK    4  A    between atoms: C_10  and  C_13
REMARK    5  A    between atoms: C_17  and  O_18
REMARK    6  A    between atoms: O_18  and  C_19
REMARK    7  A    between atoms: N_21  and  C_22
REMARK    8  A    between atoms: C_22  and  C_23
REMARK                            x       y       z     vdW  Elec       q    Type
REMARK                         _______ _______ _______ _____ _____    ______ ____
ROOT
ATOM      1  C   UNL     1      48.608   7.556  12.325  0.00  0.00    +0.000 C 
ATOM      2  F   UNL     1      49.345   8.311  11.457  0.00  0.00    +0.000 F 
ATOM      3  F   UNL     1      49.038   6.272  12.142  0.00  0.00    +0.000 F 
ENDROOT
BRANCH   1   4
ATOM      4  C   UNL     1      47.117   7.676  12.035  0.00  0.00    +0.000 A 
ATOM      5  C   UNL     1      46.490   8.925  12.116  0.00  0.00    +0.000 A 
ATOM      6  C   UNL     1      45.125   9.050  11.830  0.00  0.00    +0.000 A 
ATOM      7  C   UNL     1      44.363   7.939  11.454  0.00  0.00    +0.000 A 
ATOM      8  C   UNL     1      44.973   6.697  11.371  0.00  0.00    +0.000 A 
ATOM      9  C   UNL     1      46.330   6.573  11.660  0.00  0.00    +0.000 A 
BRANCH   8  10
ATOM     10  O   UNL     1      44.385   5.525  10.974  0.00  0.00    +0.000 OA
BRANCH  10  11
ATOM     11  C   UNL     1      45.192   4.501  10.361  0.00  0.00    +0.000 C 
ATOM     12  C   UNL     1      45.595   4.682   8.884  0.00  0.00    +0.000 C 
ATOM     13  N   UNL     1      45.032   3.364   8.545  0.00  0.00    +0.000 NA
ATOM     14  C   UNL     1      44.404   3.259   9.875  0.00  0.00    +0.000 C 
BRANCH  13  15
ATOM     15  C   UNL     1      46.101   2.348   8.399  0.00  0.00    +0.000 C 
BRANCH  15  16
ATOM     16  C   UNL     1      46.788   2.286   7.018  0.00  0.00    +0.000 C 
ATOM     17  F   UNL     1      48.031   2.816   7.015  0.00  0.00    +0.000 F 
ATOM     18  F   UNL     1      46.888   1.008   6.584  0.00  0.00    +0.000 F 
ATOM     19  F   UNL     1      46.060   2.967   6.100  0.00  0.00    +0.000 F 
ENDBRANCH  15  16
ENDBRANCH  13  15
ENDBRANCH  10  11
ENDBRANCH   8  10
ENDBRANCH   1   4
BRANCH   1  20
ATOM     20  C   UNL     1      48.964   7.996  13.767  0.00  0.00    +0.000 C 
BRANCH  20  25
ATOM     21  C   UNL     1      48.113   4.267  17.073  0.00  0.00    +0.000 A 
ATOM     22  C   UNL     1      47.392   4.642  15.948  0.00  0.00    +0.000 A 
ATOM     23  C   UNL     1      47.927   5.605  15.095  0.00  0.00    +0.000 A 
ATOM     24  C   UNL     1      49.166   6.183  15.383  0.00  0.00    +0.000 A 
ATOM     25  N   UNL     1      49.800   7.068  14.526  0.00  0.00    +0.000 N 
ATOM     26  N   UNL     1      49.852   5.852  16.491  0.00  0.00    +0.000 NA
ATOM     27  C   UNL     1      49.316   4.912  17.314  0.00  0.00    +0.000 A 
ATOM     28  H   UNL     1      50.610   7.471  14.996  0.00  0.00    +0.000 HD
BRANCH  21  30
ATOM     29  N   UNL     1      48.315   3.108  19.196  0.00  0.00    +0.000 N 
ATOM     30  C   UNL     1      47.650   3.220  18.002  0.00  0.00    +0.000 C 
ATOM     31  O   UNL     1      46.694   2.508  17.739  0.00  0.00    +0.000 OA
ATOM     32  H   UNL     1      47.921   2.465  19.870  0.00  0.00    +0.000 HD
ATOM     33  H   UNL     1      48.920   3.836  19.549  0.00  0.00    +0.000 HD
ENDBRANCH  21  30
ENDBRANCH  20  25
ENDBRANCH   1  20
TORSDOF 8
ENDMDL
MODEL 7
REMARK VINA RESULT:    -7.266      3.900      4.827
REMARK INTER + INTRA:         -11.645
REMARK INTER:                 -10.804
REMARK INTRA:                  -0.841
REMARK UNBOUND:                -0.981
REMARK  Name = 
REMARK  8 active torsions:
REMARK  status: ('A' for Active; 'I' for Inactive)
REMARK    1  A    between atoms: C_2  and  C_4
REMARK    2  A    between atoms: N_8  and  C_9
REMARK    3  A    between atoms: C_9  and  C_10
REMARK    4  A    between atoms: C_10  and  C_13
REMARK    5  A    between atoms: C_17  and  O_18
REMARK    6  A    between atoms: O_18  and  C_19
REMARK    7  A    between atoms: N_21  and  C_22
REMARK    8  A    between atoms: C_22  and  C_23
REMARK                            x       y       z     vdW  Elec       q    Type
REMARK                         _______ _______ _______ _____ _____    ______ ____
ROOT
ATOM      1  C   UNL     1      43.363   5.149  11.816  0.00  0.00    +0.000 C 
ATOM      2  F   UNL     1      43.093   6.206  10.994  0.00  0.00    +0.000 F 
ATOM      3  F   UNL     1      42.417   5.206  12.801  0.00  0.00    +0.000 F 
ENDROOT
BRANCH   1   4
ATOM      4  C   UNL     1      44.766   5.248  12.403  0.00  0.00    +0.000 A 
ATOM      5  C   UNL     1      45.135   4.419  13.469  0.00  0.00    +0.000 A 
ATOM      6  C   UNL     1      46.428   4.487  14.002  0.00  0.00    +0.000 A 
ATOM      7  C   UNL     1      47.376   5.374  13.482  0.00  0.00    +0.000 A 
ATOM      8  C   UNL     1      47.022   6.199  12.426  0.00  0.00    +0.000 A 
ATOM      9  C   UNL     1      45.734   6.134  11.900  0.00  0.00    +0.000 A 
BRANCH   8  10
ATOM     10  O   UNL     1      47.840   7.084  11.772  0.00  0.00    +0.000 OA
BRANCH  10  11
ATOM     11  C   UNL     1      49.185   7.287  12.247  0.00  0.00    +0.000 C 
ATOM     12  C   UNL     1      49.423   8.381  13.307  0.00  0.00    +0.000 C 
ATOM     13  N   UNL     1      50.447   9.013  12.458  0.00  0.00    +0.000 NA
ATOM     14  C   UNL     1      50.075   8.151  11.321  0.00  0.00    +0.000 C 
BRANCH  13  15
ATOM     15  C   UNL     1      51.812   8.680  12.930  0.00  0.00    +0.000 C 
BRANCH  15  16
ATOM     16  C   UNL     1      52.775   9.874  13.105  0.00  0.00    +0.000 C 
ATOM     17  F   UNL     1      53.896   9.562  13.791  0.00  0.00    +0.000 F 
ATOM     18  F   UNL     1      53.155  10.368  11.903  0.00  0.00    +0.000 F 
ATOM     19  F   UNL     1      52.160  10.879  13.776  0.00  0.00    +0.000 F 
ENDBRANCH  15  16
ENDBRANCH  13  15
ENDBRANCH  10  11
ENDBRANCH   8  10
ENDBRANCH   1   4
BRANCH   1  20
ATOM     20  C   UNL     1      43.155   3.844  11.006  0.00  0.00    +0.000 C 
BRANCH  20  25
ATOM     21  C   UNL     1      46.458   2.851   7.310  0.00  0.00    +0.000 A 
ATOM     22  C   UNL     1      45.829   4.042   7.647  0.00  0.00    +0.000 A 
ATOM     23  C   UNL     1      45.084   4.101   8.823  0.00  0.00    +0.000 A 
ATOM     24  C   UNL     1      44.970   2.970   9.636  0.00  0.00    +0.000 A 
ATOM     25  N   UNL     1      44.332   2.989  10.866  0.00  0.00    +0.000 N 
ATOM     26  N   UNL     1      45.545   1.804   9.296  0.00  0.00    +0.000 NA
ATOM     27  C   UNL     1      46.268   1.761   8.146  0.00  0.00    +0.000 A 
ATOM     28  H   UNL     1      44.242   2.036  11.214  0.00  0.00    +0.000 HD
BRANCH  21  30
ATOM     29  N   UNL     1      48.631   2.413   6.322  0.00  0.00    +0.000 N 
ATOM     30  C   UNL     1      47.308   2.712   6.114  0.00  0.00    +0.000 C 
ATOM     31  O   UNL     1      46.851   2.819   4.987  0.00  0.00    +0.000 OA
ATOM     32  H   UNL     1      49.179   2.210   5.496  0.00  0.00    +0.000 HD
ATOM     33  H   UNL     1      48.975   2.062   7.204  0.00  0.00    +0.000 HD
ENDBRANCH  21  30
ENDBRANCH  20  25
ENDBRANCH   1  20
TORSDOF 8
ENDMDL
MODEL 8
REMARK VINA RESULT:    -7.093      3.726      9.180
REMARK INTER + INTRA:         -11.392
REMARK INTER:                 -10.740
REMARK INTRA:                  -0.652
REMARK UNBOUND:                -0.981
REMARK  Name = 
REMARK  8 active torsions:
REMARK  status: ('A' for Active; 'I' for Inactive)
REMARK    1  A    between atoms: C_2  and  C_4
REMARK    2  A    between atoms: N_8  and  C_9
REMARK    3  A    between atoms: C_9  and  C_10
REMARK    4  A    between atoms: C_10  and  C_13
REMARK    5  A    between atoms: C_17  and  O_18
REMARK    6  A    between atoms: O_18  and  C_19
REMARK    7  A    between atoms: N_21  and  C_22
REMARK    8  A    between atoms: C_22  and  C_23
REMARK                            x       y       z     vdW  Elec       q    Type
REMARK                         _______ _______ _______ _____ _____    ______ ____
ROOT
ATOM      1  C   UNL     1      48.294   7.331  12.598  0.00  0.00    +0.000 C 
ATOM      2  F   UNL     1      49.107   8.027  11.749  0.00  0.00    +0.000 F 
ATOM      3  F   UNL     1      48.738   6.039  12.546  0.00  0.00    +0.000 F 
ENDROOT
BRANCH   1   4
ATOM      4  C   UNL     1      46.836   7.422  12.167  0.00  0.00    +0.000 A 
ATOM      5  C   UNL     1      46.202   8.669  12.112  0.00  0.00    +0.000 A 
ATOM      6  C   UNL     1      44.869   8.766  11.696  0.00  0.00    +0.000 A 
ATOM      7  C   UNL     1      44.146   7.629  11.322  0.00  0.00    +0.000 A 
ATOM      8  C   UNL     1      44.763   6.389  11.373  0.00  0.00    +0.000 A 
ATOM      9  C   UNL     1      46.088   6.293  11.791  0.00  0.00    +0.000 A 
BRANCH   8  10
ATOM     10  O   UNL     1      44.215   5.189  10.997  0.00  0.00    +0.000 OA
BRANCH  10  11
ATOM     11  C   UNL     1      45.045   4.204  10.352  0.00  0.00    +0.000 C 
ATOM     12  C   UNL     1      45.372   4.396   8.859  0.00  0.00    +0.000 C 
ATOM     13  N   UNL     1      44.862   3.050   8.549  0.00  0.00    +0.000 NA
ATOM     14  C   UNL     1      44.300   2.922   9.907  0.00  0.00    +0.000 C 
BRANCH  13  15
ATOM     15  C   UNL     1      45.973   2.088   8.360  0.00  0.00    +0.000 C 
BRANCH  15  16
ATOM     16  C   UNL     1      46.749   2.208   7.030  0.00  0.00    +0.000 C 
ATOM     17  F   UNL     1      47.913   2.883   7.149  0.00  0.00    +0.000 F 
ATOM     18  F   UNL     1      47.035   0.985   6.526  0.00  0.00    +0.000 F 
ATOM     19  F   UNL     1      46.001   2.859   6.107  0.00  0.00    +0.000 F 
ENDBRANCH  15  16
ENDBRANCH  13  15
ENDBRANCH  10  11
ENDBRANCH   8  10
ENDBRANCH   1   4
BRANCH   1  20
ATOM     20  C   UNL     1      48.518   7.873  14.032  0.00  0.00    +0.000 C 
BRANCH  20  25
ATOM     21  C   UNL     1      50.525   4.757  17.470  0.00  0.00    +0.000 A 
ATOM     22  C   UNL     1      51.015   5.949  16.954  0.00  0.00    +0.000 A 
ATOM     23  C   UNL     1      50.191   6.717  16.134  0.00  0.00    +0.000 A 
ATOM     24  C   UNL     1      48.898   6.280  15.836  0.00  0.00    +0.000 A 
ATOM     25  N   UNL     1      47.994   7.042  15.114  0.00  0.00    +0.000 N 
ATOM     26  N   UNL     1      48.431   5.109  16.302  0.00  0.00    +0.000 NA
ATOM     27  C   UNL     1      49.247   4.369  17.099  0.00  0.00    +0.000 A 
ATOM     28  H   UNL     1      47.176   6.476  14.894  0.00  0.00    +0.000 HD
BRANCH  21  30
ATOM     29  N   UNL     1      51.398   4.317  19.692  0.00  0.00    +0.000 N 
ATOM     30  C   UNL     1      51.306   3.907  18.387  0.00  0.00    +0.000 C 
ATOM     31  O   UNL     1      51.819   2.863  18.012  0.00  0.00    +0.000 OA
ATOM     32  H   UNL     1      51.840   3.672  20.335  0.00  0.00    +0.000 HD
ATOM     33  H   UNL     1      50.781   5.014  20.085  0.00  0.00    +0.000 HD
ENDBRANCH  21  30
ENDBRANCH  20  25
ENDBRANCH   1  20
TORSDOF 8
ENDMDL
MODEL 9
REMARK VINA RESULT:    -7.072      3.620      9.642
REMARK INTER + INTRA:         -11.361
REMARK INTER:                 -10.518
REMARK INTRA:                  -0.842
REMARK UNBOUND:                -0.981
REMARK  Name = 
REMARK  8 active torsions:
REMARK  status: ('A' for Active; 'I' for Inactive)
REMARK    1  A    between atoms: C_2  and  C_4
REMARK    2  A    between atoms: N_8  and  C_9
REMARK    3  A    between atoms: C_9  and  C_10
REMARK    4  A    between atoms: C_10  and  C_13
REMARK    5  A    between atoms: C_17  and  O_18
REMARK    6  A    between atoms: O_18  and  C_19
REMARK    7  A    between atoms: N_21  and  C_22
REMARK    8  A    between atoms: C_22  and  C_23
REMARK                            x       y       z     vdW  Elec       q    Type
REMARK                         _______ _______ _______ _____ _____    ______ ____
ROOT
ATOM      1  C   UNL     1      47.531   7.440  13.165  0.00  0.00    +0.000 C 
ATOM      2  F   UNL     1      46.791   8.278  13.951  0.00  0.00    +0.000 F 
ATOM      3  F   UNL     1      47.728   8.121  11.997  0.00  0.00    +0.000 F 
ENDROOT
BRANCH   1   4
ATOM      4  C   UNL     1      46.799   6.128  12.913  0.00  0.00    +0.000 A 
ATOM      5  C   UNL     1      47.129   4.991  13.661  0.00  0.00    +0.000 A 
ATOM      6  C   UNL     1      46.448   3.786  13.452  0.00  0.00    +0.000 A 
ATOM      7  C   UNL     1      45.425   3.691  12.503  0.00  0.00    +0.000 A 
ATOM      8  C   UNL     1      45.090   4.810  11.757  0.00  0.00    +0.000 A 
ATOM      9  C   UNL     1      45.771   6.007  11.962  0.00  0.00    +0.000 A 
BRANCH   8  10
ATOM     10  O   UNL     1      44.086   4.899  10.827  0.00  0.00    +0.000 OA
BRANCH  10  11
ATOM     11  C   UNL     1      44.315   4.409   9.491  0.00  0.00    +0.000 C 
ATOM     12  C   UNL     1      44.745   2.938   9.322  0.00  0.00    +0.000 C 
ATOM     13  N   UNL     1      45.929   3.350   8.548  0.00  0.00    +0.000 NA
ATOM     14  C   UNL     1      45.701   4.763   8.900  0.00  0.00    +0.000 C 
BRANCH  13  15
ATOM     15  C   UNL     1      45.717   3.141   7.096  0.00  0.00    +0.000 C 
BRANCH  15  16
ATOM     16  C   UNL     1      46.903   2.524   6.324  0.00  0.00    +0.000 C 
ATOM     17  F   UNL     1      46.893   1.173   6.318  0.00  0.00    +0.000 F 
ATOM     18  F   UNL     1      46.908   2.938   5.035  0.00  0.00    +0.000 F 
ATOM     19  F   UNL     1      48.077   2.914   6.877  0.00  0.00    +0.000 F 
ENDBRANCH  15  16
ENDBRANCH  13  15
ENDBRANCH  10  11
ENDBRANCH   8  10
ENDBRANCH   1   4
BRANCH   1  20
ATOM     20  C   UNL     1      48.904   7.226  13.850  0.00  0.00    +0.000 C 
BRANCH  20  25
ATOM     21  C   UNL     1      48.574   5.705  18.660  0.00  0.00    +0.000 A 
ATOM     22  C   UNL     1      49.052   5.033  17.543  0.00  0.00    +0.000 A 
ATOM     23  C   UNL     1      49.197   5.732  16.347  0.00  0.00    +0.000 A 
ATOM     24  C   UNL     1      48.854   7.085  16.282  0.00  0.00    +0.000 A 
ATOM     25  N   UNL     1      49.069   7.862  15.155  0.00  0.00    +0.000 N 
ATOM     26  N   UNL     1      48.354   7.732  17.348  0.00  0.00    +0.000 NA
ATOM     27  C   UNL     1      48.217   7.036  18.509  0.00  0.00    +0.000 A 
ATOM     28  H   UNL     1      48.616   8.766  15.278  0.00  0.00    +0.000 HD
BRANCH  21  30
ATOM     29  N   UNL     1      48.549   3.693  20.019  0.00  0.00    +0.000 N 
ATOM     30  C   UNL     1      48.437   5.060  19.978  0.00  0.00    +0.000 C 
ATOM     31  O   UNL     1      48.268   5.713  20.996  0.00  0.00    +0.000 OA
ATOM     32  H   UNL     1      48.566   3.272  20.938  0.00  0.00    +0.000 HD
ATOM     33  H   UNL     1      48.945   3.160  19.257  0.00  0.00    +0.000 HD
ENDBRANCH  21  30
ENDBRANCH  20  25
ENDBRANCH   1  20
TORSDOF 8
ENDMDL
