MODEL 1
REMARK VINA RESULT:    -9.180      0.000      0.000
REMARK INTER + INTRA:         -12.951
REMARK INTER:                 -12.400
REMARK INTRA:                  -0.551
REMARK UNBOUND:                -0.551
REMARK  Name = 
REMARK  6 active torsions:
REMARK  status: ('A' for Active; 'I' for Inactive)
REMARK    1  A    between atoms: C_2  and  C_25
REMARK    2  A    between atoms: N_3  and  C_4
REMARK    3  A    between atoms: C_4  and  C_5
REMARK    4  A    between atoms: C_8  and  C_9
REMARK    5  A    between atoms: C_9  and  N_10
REMARK    6  A    between atoms: C_11  and  C_13
REMARK                            x       y       z     vdW  Elec       q    Type
REMARK                         _______ _______ _______ _____ _____    ______ ____
ROOT
ATOM      1  C   UNL     1      43.496   4.360  11.828  0.00  0.00    +0.000 C 
ATOM      2  C   UNL     1      44.481   3.224  12.148  0.00  0.00    +0.000 C 
ATOM      3  C   UNL     1      45.922   3.728  12.240  0.00  0.00    +0.000 C 
ATOM      4  C   UNL     1      46.104   4.855  13.270  0.00  0.00    +0.000 C 
ATOM      5  C   UNL     1      45.122   5.994  12.949  0.00  0.00    +0.000 C 
ATOM      6  C   UNL     1      43.671   5.516  12.831  0.00  0.00    +0.000 C 
ENDROOT
BRANCH   1   7
ATOM      7  C   UNL     1      43.660   4.856  10.377  0.00  0.00    +0.000 C 
BRANCH   7  10
ATOM      8  O   UNL     1      45.877   5.384   8.739  0.00  0.00    +0.000 OA
ATOM      9  C   UNL     1      45.419   4.245   8.770  0.00  0.00    +0.000 C 
ATOM     10  N   UNL     1      44.330   3.890   9.533  0.00  0.00    +0.000 N 
ATOM     11  H   UNL     1      43.982   2.943   9.436  0.00  0.00    +0.000 HD
BRANCH   9  12
ATOM     12  C   UNL     1      46.029   3.146   7.962  0.00  0.00    +0.000 A 
ATOM     13  C   UNL     1      46.560   3.461   6.719  0.00  0.00    +0.000 A 
ATOM     14  C   UNL     1      47.128   2.443   5.968  0.00  0.00    +0.000 A 
ATOM     15  C   UNL     1      47.139   1.150   6.481  0.00  0.00    +0.000 A 
ATOM     16  C   UNL     1      46.589   0.927   7.738  0.00  0.00    +0.000 A 
ATOM     17  N   UNL     1      46.031   1.893   8.502  0.00  0.00    +0.000 NA
ENDBRANCH   9  12
ENDBRANCH   7  10
ENDBRANCH   1   7
BRANCH   4  18
ATOM     18  C   UNL     1      45.964   4.406  14.738  0.00  0.00    +0.000 C 
BRANCH  18  19
ATOM     19  N   UNL     1      47.178   4.593  15.505  0.00  0.00    +0.000 N 
ATOM     20  C   UNL     1      47.376   4.063  16.756  0.00  0.00    +0.000 C 
ATOM     21  O   UNL     1      46.519   3.412  17.339  0.00  0.00    +0.000 OA
ATOM     22  H   UNL     1      47.850   5.260  15.142  0.00  0.00    +0.000 HD
BRANCH  20  23
ATOM     23  C   UNL     1      48.717   4.260  17.331  0.00  0.00    +0.000 A 
ATOM     24  C   UNL     1      49.022   5.450  17.975  0.00  0.00    +0.000 A 
ATOM     25  S   UNL     1      50.603   5.497  18.616  0.00  0.00    +0.000 S 
ATOM     26  C   UNL     1      50.948   3.939  18.024  0.00  0.00    +0.000 A 
ATOM     27  N   UNL     1      52.169   3.371  18.221  0.00  0.00    +0.000 NA
ATOM     28  C   UNL     1      52.297   2.190  17.712  0.00  0.00    +0.000 A 
ATOM     29  N   UNL     1      51.313   1.527  17.027  0.00  0.00    +0.000 N 
ATOM     30  C   UNL     1      50.059   2.049  16.832  0.00  0.00    +0.000 A 
ATOM     31  O   UNL     1      49.184   1.395  16.277  0.00  0.00    +0.000 OA
ATOM     32  C   UNL     1      49.866   3.383  17.367  0.00  0.00    +0.000 A 
ATOM     33  H   UNL     1      51.467   0.594  16.673  0.00  0.00    +0.000 HD
ENDBRANCH  20  23
ENDBRANCH  18  19
ENDBRANCH   4  18
TORSDOF 6
ENDMDL
MODEL 2
REMARK VINA RESULT:    -8.826      2.132      2.619
REMARK INTER + INTRA:         -12.473
REMARK INTER:                 -11.899
REMARK INTRA:                  -0.574
REMARK UNBOUND:                -0.551
REMARK  Name = 
REMARK  6 active torsions:
REMARK  status: ('A' for Active; 'I' for Inactive)
REMARK    1  A    between atoms: C_2  and  C_25
REMARK    2  A    between atoms: N_3  and  C_4
REMARK    3  A    between atoms: C_4  and  C_5
REMARK    4  A    between atoms: C_8  and  C_9
REMARK    5  A    between atoms: C_9  and  N_10
REMARK    6  A    between atoms: C_11  and  C_13
REMARK                            x       y       z     vdW  Elec       q    Type
REMARK                         _______ _______ _______ _____ _____    ______ ____
ROOT
ATOM      1  C   UNL     1      43.557   6.234  11.776  0.00  0.00    +0.000 C 
ATOM      2  C   UNL     1      44.117   5.734  13.117  0.00  0.00    +0.000 C 
ATOM      3  C   UNL     1      45.414   4.943  12.934  0.00  0.00    +0.000 C 
ATOM      4  C   UNL     1      46.507   5.735  12.197  0.00  0.00    +0.000 C 
ATOM      5  C   UNL     1      45.948   6.232  10.853  0.00  0.00    +0.000 C 
ATOM      6  C   UNL     1      44.638   7.013  11.003  0.00  0.00    +0.000 C 
ENDROOT
BRANCH   1   7
ATOM      7  C   UNL     1      43.000   5.071  10.931  0.00  0.00    +0.000 C 
BRANCH   7  10
ATOM      8  O   UNL     1      43.722   2.381  10.588  0.00  0.00    +0.000 OA
ATOM      9  C   UNL     1      44.242   3.232   9.870  0.00  0.00    +0.000 C 
ATOM     10  N   UNL     1      43.960   4.576   9.968  0.00  0.00    +0.000 N 
ATOM     11  H   UNL     1      44.493   5.207   9.382  0.00  0.00    +0.000 HD
BRANCH   9  12
ATOM     12  C   UNL     1      45.236   2.854   8.821  0.00  0.00    +0.000 A 
ATOM     13  C   UNL     1      45.654   3.832   7.930  0.00  0.00    +0.000 A 
ATOM     14  C   UNL     1      46.579   3.482   6.956  0.00  0.00    +0.000 A 
ATOM     15  C   UNL     1      47.045   2.173   6.904  0.00  0.00    +0.000 A 
ATOM     16  C   UNL     1      46.574   1.260   7.841  0.00  0.00    +0.000 A 
ATOM     17  N   UNL     1      45.678   1.563   8.808  0.00  0.00    +0.000 NA
ENDBRANCH   9  12
ENDBRANCH   7  10
ENDBRANCH   1   7
BRANCH   4  18
ATOM     18  C   UNL     1      47.107   6.900  13.008  0.00  0.00    +0.000 C 
BRANCH  18  19
ATOM     19  N   UNL     1      47.476   6.521  14.355  0.00  0.00    +0.000 N 
ATOM     20  C   UNL     1      48.758   6.598  14.843  0.00  0.00    +0.000 C 
ATOM     21  O   UNL     1      49.703   6.965  14.158  0.00  0.00    +0.000 OA
ATOM     22  H   UNL     1      46.767   6.055  14.910  0.00  0.00    +0.000 HD
BRANCH  20  23
ATOM     23  C   UNL     1      48.920   6.282  16.272  0.00  0.00    +0.000 A 
ATOM     24  C   UNL     1      49.503   7.213  17.120  0.00  0.00    +0.000 A 
ATOM     25  S   UNL     1      49.578   6.705  18.747  0.00  0.00    +0.000 S 
ATOM     26  C   UNL     1      48.864   5.207  18.369  0.00  0.00    +0.000 A 
ATOM     27  N   UNL     1      48.650   4.271  19.334  0.00  0.00    +0.000 NA
ATOM     28  C   UNL     1      48.110   3.178  18.907  0.00  0.00    +0.000 A 
ATOM     29  N   UNL     1      47.763   2.938  17.604  0.00  0.00    +0.000 N 
ATOM     30  C   UNL     1      47.932   3.864  16.605  0.00  0.00    +0.000 A 
ATOM     31  O   UNL     1      47.542   3.639  15.465  0.00  0.00    +0.000 OA
ATOM     32  C   UNL     1      48.553   5.105  17.026  0.00  0.00    +0.000 A 
ATOM     33  H   UNL     1      47.321   2.070  17.336  0.00  0.00    +0.000 HD
ENDBRANCH  20  23
ENDBRANCH  18  19
ENDBRANCH   4  18
TORSDOF 6
ENDMDL
MODEL 3
REMARK VINA RESULT:    -8.597      1.233      1.897
REMARK INTER + INTRA:         -12.163
REMARK INTER:                 -11.794
REMARK INTRA:                  -0.370
REMARK UNBOUND:                -0.551
REMARK  Name = 
REMARK  6 active torsions:
REMARK  status: ('A' for Active; 'I' for Inactive)
REMARK    1  A    between atoms: C_2  and  C_25
REMARK    2  A    between atoms: N_3  and  C_4
REMARK    3  A    between atoms: C_4  and  C_5
REMARK    4  A    between atoms: C_8  and  C_9
REMARK    5  A    between atoms: C_9  and  N_10
REMARK    6  A    between atoms: C_11  and  C_13
REMARK                            x       y       z     vdW  Elec       q    Type
REMARK                         _______ _______ _______ _____ _____    ______ ____
ROOT
ATOM      1  C   UNL     1      43.334   4.501  11.916  0.00  0.00    +0.000 C 
ATOM      2  C   UNL     1      44.118   3.212  12.213  0.00  0.00    +0.000 C 
ATOM      3  C   UNL     1      45.629   3.445  12.190  0.00  0.00    +0.000 C 
ATOM      4  C   UNL     1      46.086   4.547  13.163  0.00  0.00    +0.000 C 
ATOM      5  C   UNL     1      45.306   5.837  12.863  0.00  0.00    +0.000 C 
ATOM      6  C   UNL     1      43.788   5.631  12.860  0.00  0.00    +0.000 C 
ENDROOT
BRANCH   1   7
ATOM      7  C   UNL     1      43.481   4.920  10.439  0.00  0.00    +0.000 C 
BRANCH   7  10
ATOM      8  O   UNL     1      45.720   5.440   8.830  0.00  0.00    +0.000 OA
ATOM      9  C   UNL     1      45.291   4.291   8.898  0.00  0.00    +0.000 C 
ATOM     10  N   UNL     1      44.195   3.939   9.652  0.00  0.00    +0.000 N 
ATOM     11  H   UNL     1      43.874   2.979   9.587  0.00  0.00    +0.000 HD
BRANCH   9  12
ATOM     12  C   UNL     1      45.948   3.176   8.150  0.00  0.00    +0.000 A 
ATOM     13  C   UNL     1      46.648   3.485   6.993  0.00  0.00    +0.000 A 
ATOM     14  C   UNL     1      47.260   2.452   6.299  0.00  0.00    +0.000 A 
ATOM     15  C   UNL     1      47.145   1.152   6.780  0.00  0.00    +0.000 A 
ATOM     16  C   UNL     1      46.428   0.936   7.951  0.00  0.00    +0.000 A 
ATOM     17  N   UNL     1      45.822   1.916   8.660  0.00  0.00    +0.000 NA
ENDBRANCH   9  12
ENDBRANCH   7  10
ENDBRANCH   1   7
BRANCH   4  18
ATOM     18  C   UNL     1      45.974   4.169  14.652  0.00  0.00    +0.000 C 
BRANCH  18  19
ATOM     19  N   UNL     1      47.261   3.998  15.292  0.00  0.00    +0.000 N 
ATOM     20  C   UNL     1      47.420   3.490  16.558  0.00  0.00    +0.000 C 
ATOM     21  O   UNL     1      46.473   3.169  17.263  0.00  0.00    +0.000 OA
ATOM     22  H   UNL     1      48.064   4.401  14.820  0.00  0.00    +0.000 HD
BRANCH  20  23
ATOM     23  C   UNL     1      48.811   3.279  16.994  0.00  0.00    +0.000 A 
ATOM     24  C   UNL     1      49.417   2.048  16.787  0.00  0.00    +0.000 A 
ATOM     25  S   UNL     1      51.039   1.987  17.314  0.00  0.00    +0.000 S 
ATOM     26  C   UNL     1      50.977   3.593  17.871  0.00  0.00    +0.000 A 
ATOM     27  N   UNL     1      52.058   4.171  18.461  0.00  0.00    +0.000 NA
ATOM     28  C   UNL     1      51.869   5.391  18.844  0.00  0.00    +0.000 A 
ATOM     29  N   UNL     1      50.699   6.084  18.687  0.00  0.00    +0.000 N 
ATOM     30  C   UNL     1      49.594   5.551  18.071  0.00  0.00    +0.000 A 
ATOM     31  O   UNL     1      48.589   6.227  17.885  0.00  0.00    +0.000 OA
ATOM     32  C   UNL     1      49.744   4.175  17.638  0.00  0.00    +0.000 A 
ATOM     33  H   UNL     1      50.620   7.045  18.987  0.00  0.00    +0.000 HD
ENDBRANCH  20  23
ENDBRANCH  18  19
ENDBRANCH   4  18
TORSDOF 6
ENDMDL
MODEL 4
REMARK VINA RESULT:    -8.336      2.554      3.378
REMARK INTER + INTRA:         -11.811
REMARK INTER:                 -11.617
REMARK INTRA:                  -0.194
REMARK UNBOUND:                -0.551
REMARK  Name = 
REMARK  6 active torsions:
REMARK  status: ('A' for Active; 'I' for Inactive)
REMARK    1  A    between atoms: C_2  and  C_25
REMARK    2  A    between atoms: N_3  and  C_4
REMARK    3  A    between atoms: C_4  and  C_5
REMARK    4  A    between atoms: C_8  and  C_9
REMARK    5  A    between atoms: C_9  and  N_10
REMARK    6  A    between atoms: C_11  and  C_13
REMARK                            x       y       z     vdW  Elec       q    Type
REMARK                         _______ _______ _______ _____ _____    ______ ____
ROOT
ATOM      1  C   UNL     1      43.669   6.198  11.958  0.00  0.00    +0.000 C 
ATOM      2  C   UNL     1      44.107   5.469  13.239  0.00  0.00    +0.000 C 
ATOM      3  C   UNL     1      45.332   4.585  13.001  0.00  0.00    +0.000 C 
ATOM      4  C   UNL     1      46.533   5.357  12.427  0.00  0.00    +0.000 C 
ATOM      5  C   UNL     1      46.096   6.083  11.143  0.00  0.00    +0.000 C 
ATOM      6  C   UNL     1      44.858   6.962  11.346  0.00  0.00    +0.000 C 
ENDROOT
BRANCH   1   7
ATOM      7  C   UNL     1      43.053   5.220  10.937  0.00  0.00    +0.000 C 
BRANCH   7  10
ATOM      8  O   UNL     1      43.691   2.520  10.516  0.00  0.00    +0.000 OA
ATOM      9  C   UNL     1      44.263   3.377   9.848  0.00  0.00    +0.000 C 
ATOM     10  N   UNL     1      44.026   4.725   9.987  0.00  0.00    +0.000 N 
ATOM     11  H   UNL     1      44.600   5.358   9.442  0.00  0.00    +0.000 HD
BRANCH   9  12
ATOM     12  C   UNL     1      45.277   3.001   8.816  0.00  0.00    +0.000 A 
ATOM     13  C   UNL     1      45.801   4.005   8.014  0.00  0.00    +0.000 A 
ATOM     14  C   UNL     1      46.743   3.658   7.057  0.00  0.00    +0.000 A 
ATOM     15  C   UNL     1      47.122   2.325   6.933  0.00  0.00    +0.000 A 
ATOM     16  C   UNL     1      46.548   1.387   7.783  0.00  0.00    +0.000 A 
ATOM     17  N   UNL     1      45.631   1.686   8.731  0.00  0.00    +0.000 NA
ENDBRANCH   9  12
ENDBRANCH   7  10
ENDBRANCH   1   7
BRANCH   4  18
ATOM     18  C   UNL     1      47.193   6.337  13.416  0.00  0.00    +0.000 C 
BRANCH  18  19
ATOM     19  N   UNL     1      47.379   5.771  14.735  0.00  0.00    +0.000 N 
ATOM     20  C   UNL     1      48.506   5.968  15.495  0.00  0.00    +0.000 C 
ATOM     21  O   UNL     1      49.464   6.618  15.099  0.00  0.00    +0.000 OA
ATOM     22  H   UNL     1      46.692   5.091  15.042  0.00  0.00    +0.000 HD
BRANCH  20  23
ATOM     23  C   UNL     1      48.464   5.413  16.858  0.00  0.00    +0.000 A 
ATOM     24  C   UNL     1      48.590   4.044  17.047  0.00  0.00    +0.000 A 
ATOM     25  S   UNL     1      48.561   3.573  18.687  0.00  0.00    +0.000 S 
ATOM     26  C   UNL     1      48.344   5.181  19.202  0.00  0.00    +0.000 A 
ATOM     27  N   UNL     1      48.227   5.482  20.524  0.00  0.00    +0.000 NA
ATOM     28  C   UNL     1      48.058   6.739  20.772  0.00  0.00    +0.000 A 
ATOM     29  N   UNL     1      48.000   7.720  19.818  0.00  0.00    +0.000 N 
ATOM     30  C   UNL     1      48.144   7.465  18.477  0.00  0.00    +0.000 A 
ATOM     31  O   UNL     1      48.158   8.379  17.660  0.00  0.00    +0.000 OA
ATOM     32  C   UNL     1      48.317   6.066  18.140  0.00  0.00    +0.000 A 
ATOM     33  H   UNL     1      47.889   8.690  20.077  0.00  0.00    +0.000 HD
ENDBRANCH  20  23
ENDBRANCH  18  19
ENDBRANCH   4  18
TORSDOF 6
ENDMDL
MODEL 5
REMARK VINA RESULT:    -8.084      4.781      5.493
REMARK INTER + INTRA:         -11.471
REMARK INTER:                 -10.682
REMARK INTRA:                  -0.789
REMARK UNBOUND:                -0.551
REMARK  Name = 
REMARK  6 active torsions:
REMARK  status: ('A' for Active; 'I' for Inactive)
REMARK    1  A    between atoms: C_2  and  C_25
REMARK    2  A    between atoms: N_3  and  C_4
REMARK    3  A    between atoms: C_4  and  C_5
REMARK    4  A    between atoms: C_8  and  C_9
REMARK    5  A    between atoms: C_9  and  N_10
REMARK    6  A    between atoms: C_11  and  C_13
REMARK                            x       y       z     vdW  Elec       q    Type
REMARK                         _______ _______ _______ _____ _____    ______ ____
ROOT
ATOM      1  C   UNL     1      44.628   4.158  12.742  0.00  0.00    +0.000 C 
ATOM      2  C   UNL     1      45.767   5.015  12.166  0.00  0.00    +0.000 C 
ATOM      3  C   UNL     1      45.332   5.774  10.912  0.00  0.00    +0.000 C 
ATOM      4  C   UNL     1      44.099   6.666  11.141  0.00  0.00    +0.000 C 
ATOM      5  C   UNL     1      42.958   5.808  11.713  0.00  0.00    +0.000 C 
ATOM      6  C   UNL     1      43.370   5.020  12.961  0.00  0.00    +0.000 C 
ENDROOT
BRANCH   1   7
ATOM      7  C   UNL     1      44.320   2.949  11.836  0.00  0.00    +0.000 C 
BRANCH   7  10
ATOM      8  O   UNL     1      43.751   1.574   9.457  0.00  0.00    +0.000 OA
ATOM      9  C   UNL     1      44.804   2.200   9.543  0.00  0.00    +0.000 C 
ATOM     10  N   UNL     1      45.176   2.898  10.670  0.00  0.00    +0.000 N 
ATOM     11  H   UNL     1      46.096   3.323  10.672  0.00  0.00    +0.000 HD
BRANCH   9  12
ATOM     12  C   UNL     1      45.770   2.247   8.405  0.00  0.00    +0.000 A 
ATOM     13  C   UNL     1      45.903   3.437   7.704  0.00  0.00    +0.000 A 
ATOM     14  C   UNL     1      46.801   3.482   6.648  0.00  0.00    +0.000 A 
ATOM     15  C   UNL     1      47.525   2.339   6.327  0.00  0.00    +0.000 A 
ATOM     16  C   UNL     1      47.331   1.191   7.086  0.00  0.00    +0.000 A 
ATOM     17  N   UNL     1      46.470   1.109   8.126  0.00  0.00    +0.000 NA
ENDBRANCH   9  12
ENDBRANCH   7  10
ENDBRANCH   1   7
BRANCH   4  18
ATOM     18  C   UNL     1      44.360   7.898  12.029  0.00  0.00    +0.000 C 
BRANCH  18  19
ATOM     19  N   UNL     1      45.582   8.594  11.687  0.00  0.00    +0.000 N 
ATOM     20  C   UNL     1      46.577   8.872  12.591  0.00  0.00    +0.000 C 
ATOM     21  O   UNL     1      46.492   8.580  13.776  0.00  0.00    +0.000 OA
ATOM     22  H   UNL     1      45.631   9.004  10.761  0.00  0.00    +0.000 HD
BRANCH  20  23
ATOM     23  C   UNL     1      47.797   9.480  12.035  0.00  0.00    +0.000 A 
ATOM     24  C   UNL     1      47.783  10.809  11.635  0.00  0.00    +0.000 A 
ATOM     25  S   UNL     1      49.288  11.365  11.052  0.00  0.00    +0.000 S 
ATOM     26  C   UNL     1      50.003   9.838  11.282  0.00  0.00    +0.000 A 
ATOM     27  N   UNL     1      51.307   9.621  10.960  0.00  0.00    +0.000 NA
ATOM     28  C   UNL     1      51.718   8.416  11.177  0.00  0.00    +0.000 A 
ATOM     29  N   UNL     1      50.943   7.409  11.690  0.00  0.00    +0.000 N 
ATOM     30  C   UNL     1      49.633   7.591  12.057  0.00  0.00    +0.000 A 
ATOM     31  O   UNL     1      48.993   6.686  12.579  0.00  0.00    +0.000 OA
ATOM     32  C   UNL     1      49.114   8.924  11.816  0.00  0.00    +0.000 A 
ATOM     33  H   UNL     1      51.329   6.492  11.859  0.00  0.00    +0.000 HD
ENDBRANCH  20  23
ENDBRANCH  18  19
ENDBRANCH   4  18
TORSDOF 6
ENDMDL
MODEL 6
REMARK VINA RESULT:    -8.073      2.284      3.101
REMARK INTER + INTRA:         -11.456
REMARK INTER:                 -10.998
REMARK INTRA:                  -0.457
REMARK UNBOUND:                -0.551
REMARK  Name = 
REMARK  6 active torsions:
REMARK  status: ('A' for Active; 'I' for Inactive)
REMARK    1  A    between atoms: C_2  and  C_25
REMARK    2  A    between atoms: N_3  and  C_4
REMARK    3  A    between atoms: C_4  and  C_5
REMARK    4  A    between atoms: C_8  and  C_9
REMARK    5  A    between atoms: C_9  and  N_10
REMARK    6  A    between atoms: C_11  and  C_13
REMARK                            x       y       z     vdW  Elec       q    Type
REMARK                         _______ _______ _______ _____ _____    ______ ____
ROOT
ATOM      1  C   UNL     1      43.457   4.335  12.048  0.00  0.00    +0.000 C 
ATOM      2  C   UNL     1      44.419   3.148  12.223  0.00  0.00    +0.000 C 
ATOM      3  C   UNL     1      45.882   3.575  12.090  0.00  0.00    +0.000 C 
ATOM      4  C   UNL     1      46.278   4.690  13.073  0.00  0.00    +0.000 C 
ATOM      5  C   UNL     1      45.319   5.879  12.896  0.00  0.00    +0.000 C 
ATOM      6  C   UNL     1      43.844   5.479  13.005  0.00  0.00    +0.000 C 
ENDROOT
BRANCH   1   7
ATOM      7  C   UNL     1      43.424   4.822  10.586  0.00  0.00    +0.000 C 
BRANCH   7  10
ATOM      8  O   UNL     1      45.673   5.530   9.063  0.00  0.00    +0.000 OA
ATOM      9  C   UNL     1      45.245   4.381   8.991  0.00  0.00    +0.000 C 
ATOM     10  N   UNL     1      44.144   3.941   9.691  0.00  0.00    +0.000 N 
ATOM     11  H   UNL     1      43.824   2.996   9.510  0.00  0.00    +0.000 HD
BRANCH   9  12
ATOM     12  C   UNL     1      45.907   3.364   8.120  0.00  0.00    +0.000 A 
ATOM     13  C   UNL     1      45.975   2.054   8.574  0.00  0.00    +0.000 A 
ATOM     14  C   UNL     1      46.587   1.109   7.765  0.00  0.00    +0.000 A 
ATOM     15  C   UNL     1      47.113   1.505   6.540  0.00  0.00    +0.000 A 
ATOM     16  C   UNL     1      46.996   2.838   6.164  0.00  0.00    +0.000 A 
ATOM     17  N   UNL     1      46.401   3.788   6.921  0.00  0.00    +0.000 NA
ENDBRANCH   9  12
ENDBRANCH   7  10
ENDBRANCH   1   7
BRANCH   4  18
ATOM     18  C   UNL     1      46.340   4.248  14.548  0.00  0.00    +0.000 C 
BRANCH  18  19
ATOM     19  N   UNL     1      47.052   5.186  15.391  0.00  0.00    +0.000 N 
ATOM     20  C   UNL     1      48.096   4.833  16.208  0.00  0.00    +0.000 C 
ATOM     21  O   UNL     1      48.490   3.679  16.314  0.00  0.00    +0.000 OA
ATOM     22  H   UNL     1      46.661   6.119  15.468  0.00  0.00    +0.000 HD
BRANCH  20  23
ATOM     23  C   UNL     1      48.773   5.943  16.900  0.00  0.00    +0.000 A 
ATOM     24  C   UNL     1      49.895   6.527  16.330  0.00  0.00    +0.000 A 
ATOM     25  S   UNL     1      50.530   7.822  17.241  0.00  0.00    +0.000 S 
ATOM     26  C   UNL     1      49.348   7.626  18.448  0.00  0.00    +0.000 A 
ATOM     27  N   UNL     1      49.331   8.427  19.548  0.00  0.00    +0.000 NA
ATOM     28  C   UNL     1      48.385   8.163  20.388  0.00  0.00    +0.000 A 
ATOM     29  N   UNL     1      47.454   7.171  20.225  0.00  0.00    +0.000 N 
ATOM     30  C   UNL     1      47.415   6.360  19.118  0.00  0.00    +0.000 A 
ATOM     31  O   UNL     1      46.523   5.532  18.975  0.00  0.00    +0.000 OA
ATOM     32  C   UNL     1      48.468   6.602  18.150  0.00  0.00    +0.000 A 
ATOM     33  H   UNL     1      46.723   7.028  20.907  0.00  0.00    +0.000 HD
ENDBRANCH  20  23
ENDBRANCH  18  19
ENDBRANCH   4  18
TORSDOF 6
ENDMDL
MODEL 7
REMARK VINA RESULT:    -8.013      3.758      4.567
REMARK INTER + INTRA:         -11.374
REMARK INTER:                 -10.970
REMARK INTRA:                  -0.404
REMARK UNBOUND:                -0.551
REMARK  Name = 
REMARK  6 active torsions:
REMARK  status: ('A' for Active; 'I' for Inactive)
REMARK    1  A    between atoms: C_2  and  C_25
REMARK    2  A    between atoms: N_3  and  C_4
REMARK    3  A    between atoms: C_4  and  C_5
REMARK    4  A    between atoms: C_8  and  C_9
REMARK    5  A    between atoms: C_9  and  N_10
REMARK    6  A    between atoms: C_11  and  C_13
REMARK                            x       y       z     vdW  Elec       q    Type
REMARK                         _______ _______ _______ _____ _____    ______ ____
ROOT
ATOM      1  C   UNL     1      44.050   3.611  12.484  0.00  0.00    +0.000 C 
ATOM      2  C   UNL     1      45.500   4.048  12.218  0.00  0.00    +0.000 C 
ATOM      3  C   UNL     1      45.572   5.216  11.233  0.00  0.00    +0.000 C 
ATOM      4  C   UNL     1      44.753   6.438  11.683  0.00  0.00    +0.000 C 
ATOM      5  C   UNL     1      43.302   6.003  11.946  0.00  0.00    +0.000 C 
ATOM      6  C   UNL     1      43.199   4.821  12.915  0.00  0.00    +0.000 C 
ENDROOT
BRANCH   1   7
ATOM      7  C   UNL     1      43.438   2.913  11.254  0.00  0.00    +0.000 C 
BRANCH   7  10
ATOM      8  O   UNL     1      43.913   4.045   8.730  0.00  0.00    +0.000 OA
ATOM      9  C   UNL     1      44.604   3.098   9.096  0.00  0.00    +0.000 C 
ATOM     10  N   UNL     1      44.443   2.471  10.310  0.00  0.00    +0.000 N 
ATOM     11  H   UNL     1      45.013   1.653  10.491  0.00  0.00    +0.000 HD
BRANCH   9  12
ATOM     12  C   UNL     1      45.691   2.555   8.226  0.00  0.00    +0.000 A 
ATOM     13  C   UNL     1      46.284   3.408   7.306  0.00  0.00    +0.000 A 
ATOM     14  C   UNL     1      47.294   2.906   6.499  0.00  0.00    +0.000 A 
ATOM     15  C   UNL     1      47.670   1.574   6.636  0.00  0.00    +0.000 A 
ATOM     16  C   UNL     1      47.025   0.794   7.588  0.00  0.00    +0.000 A 
ATOM     17  N   UNL     1      46.040   1.247   8.397  0.00  0.00    +0.000 NA
ENDBRANCH   9  12
ENDBRANCH   7  10
ENDBRANCH   1   7
BRANCH   4  18
ATOM     18  C   UNL     1      45.334   7.181  12.902  0.00  0.00    +0.000 C 
BRANCH  18  19
ATOM     19  N   UNL     1      46.742   7.486  12.762  0.00  0.00    +0.000 N 
ATOM     20  C   UNL     1      47.223   8.737  12.462  0.00  0.00    +0.000 C 
ATOM     21  O   UNL     1      46.488   9.694  12.255  0.00  0.00    +0.000 OA
ATOM     22  H   UNL     1      47.382   6.700  12.757  0.00  0.00    +0.000 HD
BRANCH  20  23
ATOM     23  C   UNL     1      48.688   8.881  12.478  0.00  0.00    +0.000 A 
ATOM     24  C   UNL     1      49.324   9.559  11.448  0.00  0.00    +0.000 A 
ATOM     25  S   UNL     1      51.016   9.669  11.642  0.00  0.00    +0.000 S 
ATOM     26  C   UNL     1      50.962   8.783  13.094  0.00  0.00    +0.000 A 
ATOM     27  N   UNL     1      52.101   8.502  13.784  0.00  0.00    +0.000 NA
ATOM     28  C   UNL     1      51.916   7.816  14.863  0.00  0.00    +0.000 A 
ATOM     29  N   UNL     1      50.695   7.388  15.314  0.00  0.00    +0.000 N 
ATOM     30  C   UNL     1      49.519   7.675  14.666  0.00  0.00    +0.000 A 
ATOM     31  O   UNL     1      48.440   7.337  15.140  0.00  0.00    +0.000 OA
ATOM     32  C   UNL     1      49.670   8.428  13.437  0.00  0.00    +0.000 A 
ATOM     33  H   UNL     1      50.612   6.874  16.179  0.00  0.00    +0.000 HD
ENDBRANCH  20  23
ENDBRANCH  18  19
ENDBRANCH   4  18
TORSDOF 6
ENDMDL
MODEL 8
REMARK VINA RESULT:    -7.542      3.957      4.634
REMARK INTER + INTRA:         -10.739
REMARK INTER:                 -10.370
REMARK INTRA:                  -0.369
REMARK UNBOUND:                -0.551
REMARK  Name = 
REMARK  6 active torsions:
REMARK  status: ('A' for Active; 'I' for Inactive)
REMARK    1  A    between atoms: C_2  and  C_25
REMARK    2  A    between atoms: N_3  and  C_4
REMARK    3  A    between atoms: C_4  and  C_5
REMARK    4  A    between atoms: C_8  and  C_9
REMARK    5  A    between atoms: C_9  and  N_10
REMARK    6  A    between atoms: C_11  and  C_13
REMARK                            x       y       z     vdW  Elec       q    Type
REMARK                         _______ _______ _______ _____ _____    ______ ____
ROOT
ATOM      1  C   UNL     1      43.559   5.172  11.724  0.00  0.00    +0.000 C 
ATOM      2  C   UNL     1      43.976   5.142  13.203  0.00  0.00    +0.000 C 
ATOM      3  C   UNL     1      45.457   4.800  13.372  0.00  0.00    +0.000 C 
ATOM      4  C   UNL     1      46.389   5.756  12.608  0.00  0.00    +0.000 C 
ATOM      5  C   UNL     1      45.976   5.784  11.127  0.00  0.00    +0.000 C 
ATOM      6  C   UNL     1      44.491   6.105  10.927  0.00  0.00    +0.000 C 
ENDROOT
BRANCH   1   7
ATOM      7  C   UNL     1      43.541   3.755  11.116  0.00  0.00    +0.000 C 
BRANCH   7  10
ATOM      8  O   UNL     1      43.846   1.473   9.512  0.00  0.00    +0.000 OA
ATOM      9  C   UNL     1      44.606   2.423   9.344  0.00  0.00    +0.000 C 
ATOM     10  N   UNL     1      44.542   3.581  10.085  0.00  0.00    +0.000 N 
ATOM     11  H   UNL     1      45.258   4.279   9.922  0.00  0.00    +0.000 HD
BRANCH   9  12
ATOM     12  C   UNL     1      45.673   2.382   8.299  0.00  0.00    +0.000 A 
ATOM     13  C   UNL     1      45.884   3.518   7.531  0.00  0.00    +0.000 A 
ATOM     14  C   UNL     1      46.876   3.482   6.562  0.00  0.00    +0.000 A 
ATOM     15  C   UNL     1      47.613   2.315   6.391  0.00  0.00    +0.000 A 
ATOM     16  C   UNL     1      47.335   1.226   7.209  0.00  0.00    +0.000 A 
ATOM     17  N   UNL     1      46.382   1.223   8.168  0.00  0.00    +0.000 NA
ENDBRANCH   9  12
ENDBRANCH   7  10
ENDBRANCH   1   7
BRANCH   4  18
ATOM     18  C   UNL     1      46.454   7.183  13.188  0.00  0.00    +0.000 C 
BRANCH  18  19
ATOM     19  N   UNL     1      47.808   7.678  13.321  0.00  0.00    +0.000 N 
ATOM     20  C   UNL     1      48.730   7.148  14.190  0.00  0.00    +0.000 C 
ATOM     21  O   UNL     1      48.465   6.228  14.951  0.00  0.00    +0.000 OA
ATOM     22  H   UNL     1      48.028   8.542  12.838  0.00  0.00    +0.000 HD
BRANCH  20  23
ATOM     23  C   UNL     1      50.090   7.706  14.101  0.00  0.00    +0.000 A 
ATOM     24  C   UNL     1      50.831   7.901  15.257  0.00  0.00    +0.000 A 
ATOM     25  S   UNL     1      52.397   8.515  14.971  0.00  0.00    +0.000 S 
ATOM     26  C   UNL     1      52.127   8.575  13.293  0.00  0.00    +0.000 A 
ATOM     27  N   UNL     1      53.089   9.032  12.445  0.00  0.00    +0.000 NA
ATOM     28  C   UNL     1      52.747   9.032  11.199  0.00  0.00    +0.000 A 
ATOM     29  N   UNL     1      51.532   8.613  10.725  0.00  0.00    +0.000 N 
ATOM     30  C   UNL     1      50.545   8.117  11.540  0.00  0.00    +0.000 A 
ATOM     31  O   UNL     1      49.499   7.685  11.070  0.00  0.00    +0.000 OA
ATOM     32  C   UNL     1      50.869   8.113  12.953  0.00  0.00    +0.000 A 
ATOM     33  H   UNL     1      51.333   8.615   9.735  0.00  0.00    +0.000 HD
ENDBRANCH  20  23
ENDBRANCH  18  19
ENDBRANCH   4  18
TORSDOF 6
ENDMDL
