MODEL 1
REMARK VINA RESULT:    -9.145      0.000      0.000
REMARK INTER + INTRA:         -12.110
REMARK INTER:                 -11.284
REMARK INTRA:                  -0.826
REMARK UNBOUND:                -0.826
REMARK  Name = 
REMARK  4 active torsions:
REMARK  status: ('A' for Active; 'I' for Inactive)
REMARK    1  A    between atoms: C_2  and  C_4
REMARK    2  A    between atoms: N_8  and  C_9
REMARK    3  A    between atoms: C_9  and  C_10
REMARK    4  A    between atoms: C_14  and  C_15
REMARK                            x       y       z     vdW  Elec       q    Type
REMARK                         _______ _______ _______ _____ _____    ______ ____
ROOT
ATOM      1  C   UNL     1      43.468   4.817  11.045  0.00  0.00    +0.000 C 
ENDROOT
BRANCH   1   6
ATOM      2  C   UNL     1      46.377   2.262   7.683  0.00  0.00    +0.000 A 
ATOM      3  C   UNL     1      45.630   1.774   8.751  0.00  0.00    +0.000 A 
ATOM      4  C   UNL     1      44.779   2.638   9.437  0.00  0.00    +0.000 A 
ATOM      5  C   UNL     1      44.700   3.975   9.067  0.00  0.00    +0.000 A 
ATOM      6  N   UNL     1      43.835   4.875   9.647  0.00  0.00    +0.000 N 
ATOM      7  N   UNL     1      45.425   4.459   8.037  0.00  0.00    +0.000 NA
ATOM      8  C   UNL     1      46.250   3.605   7.375  0.00  0.00    +0.000 A 
ATOM      9  H   UNL     1      44.032   5.798   9.274  0.00  0.00    +0.000 HD
BRANCH   2  11
ATOM     10  N   UNL     1      48.410   2.005   6.379  0.00  0.00    +0.000 N 
ATOM     11  C   UNL     1      47.294   1.410   6.897  0.00  0.00    +0.000 C 
ATOM     12  O   UNL     1      47.077   0.214   6.747  0.00  0.00    +0.000 OA
ATOM     13  H   UNL     1      49.074   1.394   5.917  0.00  0.00    +0.000 HD
ATOM     14  H   UNL     1      48.744   2.906   6.685  0.00  0.00    +0.000 HD
ENDBRANCH   2  11
ENDBRANCH   1   6
BRANCH   1  15
ATOM     15  C   UNL     1      44.610   5.134  11.983  0.00  0.00    +0.000 A 
ATOM     16  C   UNL     1      45.115   4.159  12.852  0.00  0.00    +0.000 A 
ATOM     17  C   UNL     1      46.259   4.413  13.605  0.00  0.00    +0.000 A 
ATOM     18  C   UNL     1      46.924   5.635  13.483  0.00  0.00    +0.000 A 
ATOM     19  C   UNL     1      46.459   6.636  12.612  0.00  0.00    +0.000 A 
ATOM     20  C   UNL     1      45.275   6.373  11.895  0.00  0.00    +0.000 A 
BRANCH  19  21
ATOM     21  C   UNL     1      47.237   7.871  12.377  0.00  0.00    +0.000 A 
ATOM     22  C   UNL     1      46.696   9.152  12.539  0.00  0.00    +0.000 A 
ATOM     23  N   UNL     1      47.340  10.316  12.257  0.00  0.00    +0.000 NA
ATOM     24  C   UNL     1      48.607  10.205  11.797  0.00  0.00    +0.000 A 
ATOM     25  C   UNL     1      49.245   8.994  11.619  0.00  0.00    +0.000 A 
ATOM     26  F   UNL     1      50.500   8.942  11.155  0.00  0.00    +0.000 F 
ATOM     27  C   UNL     1      48.560   7.821  11.909  0.00  0.00    +0.000 A 
ENDBRANCH  19  21
ENDBRANCH   1  15
TORSDOF 4
ENDMDL
MODEL 2
REMARK VINA RESULT:    -8.642      2.615      3.823
REMARK INTER + INTRA:         -11.489
REMARK INTER:                 -10.692
REMARK INTRA:                  -0.797
REMARK UNBOUND:                -0.826
REMARK  Name = 
REMARK  4 active torsions:
REMARK  status: ('A' for Active; 'I' for Inactive)
REMARK    1  A    between atoms: C_2  and  C_4
REMARK    2  A    between atoms: N_8  and  C_9
REMARK    3  A    between atoms: C_9  and  C_10
REMARK    4  A    between atoms: C_14  and  C_15
REMARK                            x       y       z     vdW  Elec       q    Type
REMARK                         _______ _______ _______ _____ _____    ______ ____
ROOT
ATOM      1  C   UNL     1      43.518   5.270  10.872  0.00  0.00    +0.000 C 
ENDROOT
BRANCH   1   6
ATOM      2  C   UNL     1      46.205   2.015   7.959  0.00  0.00    +0.000 A 
ATOM      3  C   UNL     1      45.494   1.768   9.129  0.00  0.00    +0.000 A 
ATOM      4  C   UNL     1      44.697   2.777   9.667  0.00  0.00    +0.000 A 
ATOM      5  C   UNL     1      44.638   4.020   9.048  0.00  0.00    +0.000 A 
ATOM      6  N   UNL     1      43.825   5.045   9.476  0.00  0.00    +0.000 N 
ATOM      7  N   UNL     1      45.329   4.272   7.918  0.00  0.00    +0.000 NA
ATOM      8  C   UNL     1      46.101   3.278   7.402  0.00  0.00    +0.000 A 
ATOM      9  H   UNL     1      44.030   5.871   8.925  0.00  0.00    +0.000 HD
BRANCH   2  11
ATOM     10  N   UNL     1      46.810  -0.313   7.620  0.00  0.00    +0.000 N 
ATOM     11  C   UNL     1      47.062   0.997   7.318  0.00  0.00    +0.000 C 
ATOM     12  O   UNL     1      47.940   1.313   6.524  0.00  0.00    +0.000 OA
ATOM     13  H   UNL     1      47.345  -1.005   7.109  0.00  0.00    +0.000 HD
ATOM     14  H   UNL     1      45.956  -0.619   8.061  0.00  0.00    +0.000 HD
ENDBRANCH   2  11
ENDBRANCH   1   6
BRANCH   1  15
ATOM     15  C   UNL     1      44.648   5.915  11.642  0.00  0.00    +0.000 A 
ATOM     16  C   UNL     1      44.835   7.302  11.610  0.00  0.00    +0.000 A 
ATOM     17  C   UNL     1      45.783   7.903  12.435  0.00  0.00    +0.000 A 
ATOM     18  C   UNL     1      46.540   7.127  13.316  0.00  0.00    +0.000 A 
ATOM     19  C   UNL     1      46.374   5.733  13.390  0.00  0.00    +0.000 A 
ATOM     20  C   UNL     1      45.441   5.144  12.514  0.00  0.00    +0.000 A 
BRANCH  19  21
ATOM     21  C   UNL     1      47.071   4.931  14.418  0.00  0.00    +0.000 A 
ATOM     22  C   UNL     1      47.233   3.544  14.318  0.00  0.00    +0.000 A 
ATOM     23  N   UNL     1      47.790   2.750  15.271  0.00  0.00    +0.000 NA
ATOM     24  C   UNL     1      48.226   3.370  16.391  0.00  0.00    +0.000 A 
ATOM     25  C   UNL     1      48.134   4.734  16.586  0.00  0.00    +0.000 A 
ATOM     26  F   UNL     1      48.579   5.295  17.717  0.00  0.00    +0.000 F 
ATOM     27  C   UNL     1      47.555   5.519  15.597  0.00  0.00    +0.000 A 
ENDBRANCH  19  21
ENDBRANCH   1  15
TORSDOF 4
ENDMDL
MODEL 3
REMARK VINA RESULT:    -7.821      2.722      3.216
REMARK INTER + INTRA:         -10.476
REMARK INTER:                  -9.797
REMARK INTRA:                  -0.679
REMARK UNBOUND:                -0.826
REMARK  Name = 
REMARK  4 active torsions:
REMARK  status: ('A' for Active; 'I' for Inactive)
REMARK    1  A    between atoms: C_2  and  C_4
REMARK    2  A    between atoms: N_8  and  C_9
REMARK    3  A    between atoms: C_9  and  C_10
REMARK    4  A    between atoms: C_14  and  C_15
REMARK                            x       y       z     vdW  Elec       q    Type
REMARK                         _______ _______ _______ _____ _____    ______ ____
ROOT
ATOM      1  C   UNL     1      43.505   3.975  11.104  0.00  0.00    +0.000 C 
ENDROOT
BRANCH   1   6
ATOM      2  C   UNL     1      46.631   2.551   7.297  0.00  0.00    +0.000 A 
ATOM      3  C   UNL     1      46.363   3.826   7.785  0.00  0.00    +0.000 A 
ATOM      4  C   UNL     1      45.598   3.964   8.943  0.00  0.00    +0.000 A 
ATOM      5  C   UNL     1      45.095   2.837   9.581  0.00  0.00    +0.000 A 
ATOM      6  N   UNL     1      44.391   2.883  10.764  0.00  0.00    +0.000 N 
ATOM      7  N   UNL     1      45.344   1.597   9.112  0.00  0.00    +0.000 NA
ATOM      8  C   UNL     1      46.093   1.475   7.983  0.00  0.00    +0.000 A 
ATOM      9  H   UNL     1      44.053   1.950  10.975  0.00  0.00    +0.000 HD
BRANCH   2  11
ATOM     10  N   UNL     1      47.228   3.148   5.019  0.00  0.00    +0.000 N 
ATOM     11  C   UNL     1      47.442   2.317   6.084  0.00  0.00    +0.000 C 
ATOM     12  O   UNL     1      48.293   1.437   6.048  0.00  0.00    +0.000 OA
ATOM     13  H   UNL     1      47.849   3.035   4.226  0.00  0.00    +0.000 HD
ATOM     14  H   UNL     1      46.729   4.021   5.096  0.00  0.00    +0.000 HD
ENDBRANCH   2  11
ENDBRANCH   1   6
BRANCH   1  15
ATOM     15  C   UNL     1      44.201   5.122  11.800  0.00  0.00    +0.000 A 
ATOM     16  C   UNL     1      45.237   4.884  12.711  0.00  0.00    +0.000 A 
ATOM     17  C   UNL     1      45.969   5.946  13.235  0.00  0.00    +0.000 A 
ATOM     18  C   UNL     1      45.690   7.257  12.839  0.00  0.00    +0.000 A 
ATOM     19  C   UNL     1      44.667   7.539  11.917  0.00  0.00    +0.000 A 
ATOM     20  C   UNL     1      43.911   6.452  11.436  0.00  0.00    +0.000 A 
BRANCH  19  21
ATOM     21  C   UNL     1      44.463   8.905  11.391  0.00  0.00    +0.000 A 
ATOM     22  C   UNL     1      45.283   9.984  11.742  0.00  0.00    +0.000 A 
ATOM     23  N   UNL     1      45.090  11.273  11.355  0.00  0.00    +0.000 NA
ATOM     24  C   UNL     1      44.023  11.508  10.558  0.00  0.00    +0.000 A 
ATOM     25  C   UNL     1      43.160  10.516  10.136  0.00  0.00    +0.000 A 
ATOM     26  F   UNL     1      42.115  10.806   9.351  0.00  0.00    +0.000 F 
ATOM     27  C   UNL     1      43.379   9.209  10.552  0.00  0.00    +0.000 A 
ENDBRANCH  19  21
ENDBRANCH   1  15
TORSDOF 4
ENDMDL
MODEL 4
REMARK VINA RESULT:    -7.805      2.896      3.664
REMARK INTER + INTRA:         -10.457
REMARK INTER:                  -9.912
REMARK INTRA:                  -0.545
REMARK UNBOUND:                -0.826
REMARK  Name = 
REMARK  4 active torsions:
REMARK  status: ('A' for Active; 'I' for Inactive)
REMARK    1  A    between atoms: C_2  and  C_4
REMARK    2  A    between atoms: N_8  and  C_9
REMARK    3  A    between atoms: C_9  and  C_10
REMARK    4  A    between atoms: C_14  and  C_15
REMARK                            x       y       z     vdW  Elec       q    Type
REMARK                         _______ _______ _______ _____ _____    ______ ____
ROOT
ATOM      1  C   UNL     1      43.643   3.525  11.021  0.00  0.00    +0.000 C 
ENDROOT
BRANCH   1   6
ATOM      2  C   UNL     1      46.772   2.484   7.094  0.00  0.00    +0.000 A 
ATOM      3  C   UNL     1      46.485   3.708   7.691  0.00  0.00    +0.000 A 
ATOM      4  C   UNL     1      45.725   3.734   8.859  0.00  0.00    +0.000 A 
ATOM      5  C   UNL     1      45.244   2.548   9.400  0.00  0.00    +0.000 A 
ATOM      6  N   UNL     1      44.546   2.481  10.585  0.00  0.00    +0.000 N 
ATOM      7  N   UNL     1      45.511   1.357   8.826  0.00  0.00    +0.000 NA
ATOM      8  C   UNL     1      46.255   1.345   7.688  0.00  0.00    +0.000 A 
ATOM      9  H   UNL     1      44.225   1.528  10.718  0.00  0.00    +0.000 HD
BRANCH   2  11
ATOM     10  N   UNL     1      47.355   3.292   4.878  0.00  0.00    +0.000 N 
ATOM     11  C   UNL     1      47.580   2.369   5.862  0.00  0.00    +0.000 C 
ATOM     12  O   UNL     1      48.439   1.504   5.744  0.00  0.00    +0.000 OA
ATOM     13  H   UNL     1      47.974   3.256   4.076  0.00  0.00    +0.000 HD
ATOM     14  H   UNL     1      46.849   4.149   5.036  0.00  0.00    +0.000 HD
ENDBRANCH   2  11
ENDBRANCH   1   6
BRANCH   1  15
ATOM     15  C   UNL     1      44.350   4.745  11.566  0.00  0.00    +0.000 A 
ATOM     16  C   UNL     1      43.904   6.033  11.247  0.00  0.00    +0.000 A 
ATOM     17  C   UNL     1      44.467   7.145  11.868  0.00  0.00    +0.000 A 
ATOM     18  C   UNL     1      45.468   6.983  12.829  0.00  0.00    +0.000 A 
ATOM     19  C   UNL     1      45.936   5.707  13.188  0.00  0.00    +0.000 A 
ATOM     20  C   UNL     1      45.382   4.601  12.514  0.00  0.00    +0.000 A 
BRANCH  19  21
ATOM     21  C   UNL     1      46.891   5.525  14.301  0.00  0.00    +0.000 A 
ATOM     22  C   UNL     1      47.981   6.378  14.514  0.00  0.00    +0.000 A 
ATOM     23  N   UNL     1      48.934   6.208  15.468  0.00  0.00    +0.000 NA
ATOM     24  C   UNL     1      48.793   5.131  16.274  0.00  0.00    +0.000 A 
ATOM     25  C   UNL     1      47.746   4.237  16.166  0.00  0.00    +0.000 A 
ATOM     26  F   UNL     1      47.658   3.184  16.988  0.00  0.00    +0.000 F 
ATOM     27  C   UNL     1      46.791   4.433  15.177  0.00  0.00    +0.000 A 
ENDBRANCH  19  21
ENDBRANCH   1  15
TORSDOF 4
ENDMDL
MODEL 5
REMARK VINA RESULT:    -7.639      2.547      3.218
REMARK INTER + INTRA:         -10.252
REMARK INTER:                  -9.814
REMARK INTRA:                  -0.438
REMARK UNBOUND:                -0.826
REMARK  Name = 
REMARK  4 active torsions:
REMARK  status: ('A' for Active; 'I' for Inactive)
REMARK    1  A    between atoms: C_2  and  C_4
REMARK    2  A    between atoms: N_8  and  C_9
REMARK    3  A    between atoms: C_9  and  C_10
REMARK    4  A    between atoms: C_14  and  C_15
REMARK                            x       y       z     vdW  Elec       q    Type
REMARK                         _______ _______ _______ _____ _____    ______ ____
ROOT
ATOM      1  C   UNL     1      43.563   3.693  11.170  0.00  0.00    +0.000 C 
ENDROOT
BRANCH   1   6
ATOM      2  C   UNL     1      46.653   2.489   7.259  0.00  0.00    +0.000 A 
ATOM      3  C   UNL     1      46.418   3.729   7.846  0.00  0.00    +0.000 A 
ATOM      4  C   UNL     1      45.657   3.796   9.011  0.00  0.00    +0.000 A 
ATOM      5  C   UNL     1      45.124   2.636   9.560  0.00  0.00    +0.000 A 
ATOM      6  N   UNL     1      44.420   2.608  10.744  0.00  0.00    +0.000 N 
ATOM      7  N   UNL     1      45.340   1.430   8.995  0.00  0.00    +0.000 NA
ATOM      8  C   UNL     1      46.087   1.378   7.860  0.00  0.00    +0.000 A 
ATOM      9  H   UNL     1      44.058   1.670  10.882  0.00  0.00    +0.000 HD
BRANCH   2  11
ATOM     10  N   UNL     1      47.241   3.226   5.020  0.00  0.00    +0.000 N 
ATOM     11  C   UNL     1      47.459   2.330   6.030  0.00  0.00    +0.000 C 
ATOM     12  O   UNL     1      48.309   1.454   5.937  0.00  0.00    +0.000 OA
ATOM     13  H   UNL     1      47.858   3.161   4.219  0.00  0.00    +0.000 HD
ATOM     14  H   UNL     1      46.743   4.092   5.152  0.00  0.00    +0.000 HD
ENDBRANCH   2  11
ENDBRANCH   1   6
BRANCH   1  15
ATOM     15  C   UNL     1      44.321   4.925  11.608  0.00  0.00    +0.000 A 
ATOM     16  C   UNL     1      43.870   6.204  11.262  0.00  0.00    +0.000 A 
ATOM     17  C   UNL     1      44.489   7.334  11.792  0.00  0.00    +0.000 A 
ATOM     18  C   UNL     1      45.551   7.199  12.689  0.00  0.00    +0.000 A 
ATOM     19  C   UNL     1      46.026   5.933  13.073  0.00  0.00    +0.000 A 
ATOM     20  C   UNL     1      45.414   4.806  12.490  0.00  0.00    +0.000 A 
BRANCH  19  21
ATOM     21  C   UNL     1      47.054   5.786  14.126  0.00  0.00    +0.000 A 
ATOM     22  C   UNL     1      47.121   4.672  14.972  0.00  0.00    +0.000 A 
ATOM     23  N   UNL     1      47.990   4.526  16.007  0.00  0.00    +0.000 NA
ATOM     24  C   UNL     1      48.858   5.543  16.211  0.00  0.00    +0.000 A 
ATOM     25  C   UNL     1      48.893   6.678  15.426  0.00  0.00    +0.000 A 
ATOM     26  F   UNL     1      49.771   7.657  15.676  0.00  0.00    +0.000 F 
ATOM     27  C   UNL     1      47.989   6.802  14.379  0.00  0.00    +0.000 A 
ENDBRANCH  19  21
ENDBRANCH   1  15
TORSDOF 4
ENDMDL
MODEL 6
REMARK VINA RESULT:    -7.555      2.333      2.956
REMARK INTER + INTRA:         -10.147
REMARK INTER:                  -9.586
REMARK INTRA:                  -0.561
REMARK UNBOUND:                -0.826
REMARK  Name = 
REMARK  4 active torsions:
REMARK  status: ('A' for Active; 'I' for Inactive)
REMARK    1  A    between atoms: C_2  and  C_4
REMARK    2  A    between atoms: N_8  and  C_9
REMARK    3  A    between atoms: C_9  and  C_10
REMARK    4  A    between atoms: C_14  and  C_15
REMARK                            x       y       z     vdW  Elec       q    Type
REMARK                         _______ _______ _______ _____ _____    ______ ____
ROOT
ATOM      1  C   UNL     1      44.294   5.573  11.018  0.00  0.00    +0.000 C 
ENDROOT
BRANCH   1   6
ATOM      2  C   UNL     1      46.373   2.067   7.908  0.00  0.00    +0.000 A 
ATOM      3  C   UNL     1      45.643   1.883   9.078  0.00  0.00    +0.000 A 
ATOM      4  C   UNL     1      45.030   2.983   9.677  0.00  0.00    +0.000 A 
ATOM      5  C   UNL     1      45.172   4.247   9.118  0.00  0.00    +0.000 A 
ATOM      6  N   UNL     1      44.544   5.370   9.608  0.00  0.00    +0.000 N 
ATOM      7  N   UNL     1      45.883   4.437   7.987  0.00  0.00    +0.000 NA
ATOM      8  C   UNL     1      46.474   3.356   7.411  0.00  0.00    +0.000 A 
ATOM      9  H   UNL     1      44.877   6.177   9.092  0.00  0.00    +0.000 HD
BRANCH   2  11
ATOM     10  N   UNL     1      46.727  -0.316   7.600  0.00  0.00    +0.000 N 
ATOM     11  C   UNL     1      47.043   0.953   7.204  0.00  0.00    +0.000 C 
ATOM     12  O   UNL     1      47.822   1.162   6.282  0.00  0.00    +0.000 OA
ATOM     13  H   UNL     1      47.125  -1.072   7.054  0.00  0.00    +0.000 HD
ATOM     14  H   UNL     1      45.922  -0.529   8.169  0.00  0.00    +0.000 HD
ENDBRANCH   2  11
ENDBRANCH   1   6
BRANCH   1  15
ATOM     15  C   UNL     1      44.942   6.822  11.572  0.00  0.00    +0.000 A 
ATOM     16  C   UNL     1      44.347   8.077  11.395  0.00  0.00    +0.000 A 
ATOM     17  C   UNL     1      44.870   9.199  12.031  0.00  0.00    +0.000 A 
ATOM     18  C   UNL     1      45.982   9.078  12.869  0.00  0.00    +0.000 A 
ATOM     19  C   UNL     1      46.602   7.835  13.085  0.00  0.00    +0.000 A 
ATOM     20  C   UNL     1      46.081   6.723  12.395  0.00  0.00    +0.000 A 
BRANCH  19  21
ATOM     21  C   UNL     1      47.687   7.681  14.077  0.00  0.00    +0.000 A 
ATOM     22  C   UNL     1      48.261   6.443  14.389  0.00  0.00    +0.000 A 
ATOM     23  N   UNL     1      49.200   6.234  15.350  0.00  0.00    +0.000 NA
ATOM     24  C   UNL     1      49.607   7.325  16.039  0.00  0.00    +0.000 A 
ATOM     25  C   UNL     1      49.123   8.596  15.800  0.00  0.00    +0.000 A 
ATOM     26  F   UNL     1      49.558   9.639  16.516  0.00  0.00    +0.000 F 
ATOM     27  C   UNL     1      48.160   8.777  14.816  0.00  0.00    +0.000 A 
ENDBRANCH  19  21
ENDBRANCH   1  15
TORSDOF 4
ENDMDL
MODEL 7
REMARK VINA RESULT:    -7.468      3.346      7.131
REMARK INTER + INTRA:         -10.041
REMARK INTER:                  -9.725
REMARK INTRA:                  -0.316
REMARK UNBOUND:                -0.826
REMARK  Name = 
REMARK  4 active torsions:
REMARK  status: ('A' for Active; 'I' for Inactive)
REMARK    1  A    between atoms: C_2  and  C_4
REMARK    2  A    between atoms: N_8  and  C_9
REMARK    3  A    between atoms: C_9  and  C_10
REMARK    4  A    between atoms: C_14  and  C_15
REMARK                            x       y       z     vdW  Elec       q    Type
REMARK                         _______ _______ _______ _____ _____    ______ ____
ROOT
ATOM      1  C   UNL     1      43.692   6.369  11.035  0.00  0.00    +0.000 C 
ENDROOT
BRANCH   1   6
ATOM      2  C   UNL     1      47.822   6.947  14.019  0.00  0.00    +0.000 A 
ATOM      3  C   UNL     1      47.095   5.795  13.736  0.00  0.00    +0.000 A 
ATOM      4  C   UNL     1      46.100   5.842  12.761  0.00  0.00    +0.000 A 
ATOM      5  C   UNL     1      45.828   7.034  12.102  0.00  0.00    +0.000 A 
ATOM      6  N   UNL     1      44.911   7.148  11.081  0.00  0.00    +0.000 N 
ATOM      7  N   UNL     1      46.523   8.158  12.374  0.00  0.00    +0.000 NA
ATOM      8  C   UNL     1      47.493   8.099  13.325  0.00  0.00    +0.000 A 
ATOM      9  H   UNL     1      44.826   8.127  10.831  0.00  0.00    +0.000 HD
BRANCH   2  11
ATOM     10  N   UNL     1      48.526   6.979  16.344  0.00  0.00    +0.000 N 
ATOM     11  C   UNL     1      48.901   6.980  15.029  0.00  0.00    +0.000 C 
ATOM     12  O   UNL     1      50.080   6.974  14.699  0.00  0.00    +0.000 OA
ATOM     13  H   UNL     1      49.273   6.914  17.025  0.00  0.00    +0.000 HD
ATOM     14  H   UNL     1      47.597   6.735  16.649  0.00  0.00    +0.000 HD
ENDBRANCH   2  11
ENDBRANCH   1   6
BRANCH   1  15
ATOM     15  C   UNL     1      43.930   4.886  10.861  0.00  0.00    +0.000 A 
ATOM     16  C   UNL     1      43.208   3.952  11.613  0.00  0.00    +0.000 A 
ATOM     17  C   UNL     1      43.326   2.591  11.344  0.00  0.00    +0.000 A 
ATOM     18  C   UNL     1      44.150   2.149  10.306  0.00  0.00    +0.000 A 
ATOM     19  C   UNL     1      44.882   3.053   9.517  0.00  0.00    +0.000 A 
ATOM     20  C   UNL     1      44.780   4.422   9.839  0.00  0.00    +0.000 A 
BRANCH  19  21
ATOM     21  C   UNL     1      45.641   2.599   8.333  0.00  0.00    +0.000 A 
ATOM     22  C   UNL     1      46.217   1.327   8.242  0.00  0.00    +0.000 A 
ATOM     23  N   UNL     1      46.994   0.890   7.216  0.00  0.00    +0.000 NA
ATOM     24  C   UNL     1      47.204   1.765   6.206  0.00  0.00    +0.000 A 
ATOM     25  C   UNL     1      46.669   3.037   6.183  0.00  0.00    +0.000 A 
ATOM     26  F   UNL     1      46.913   3.865   5.160  0.00  0.00    +0.000 F 
ATOM     27  C   UNL     1      45.884   3.458   7.249  0.00  0.00    +0.000 A 
ENDBRANCH  19  21
ENDBRANCH   1  15
TORSDOF 4
ENDMDL
MODEL 8
REMARK VINA RESULT:    -7.336      3.627      7.070
REMARK INTER + INTRA:          -9.877
REMARK INTER:                  -9.155
REMARK INTRA:                  -0.723
REMARK UNBOUND:                -0.826
REMARK  Name = 
REMARK  4 active torsions:
REMARK  status: ('A' for Active; 'I' for Inactive)
REMARK    1  A    between atoms: C_2  and  C_4
REMARK    2  A    between atoms: N_8  and  C_9
REMARK    3  A    between atoms: C_9  and  C_10
REMARK    4  A    between atoms: C_14  and  C_15
REMARK                            x       y       z     vdW  Elec       q    Type
REMARK                         _______ _______ _______ _____ _____    ______ ____
ROOT
ATOM      1  C   UNL     1      44.393   6.529  12.171  0.00  0.00    +0.000 C 
ENDROOT
BRANCH   1   6
ATOM      2  C   UNL     1      49.307   7.870  12.762  0.00  0.00    +0.000 A 
ATOM      3  C   UNL     1      48.377   8.321  11.831  0.00  0.00    +0.000 A 
ATOM      4  C   UNL     1      47.043   7.937  11.960  0.00  0.00    +0.000 A 
ATOM      5  C   UNL     1      46.660   7.095  12.996  0.00  0.00    +0.000 A 
ATOM      6  N   UNL     1      45.355   6.725  13.233  0.00  0.00    +0.000 N 
ATOM      7  N   UNL     1      47.555   6.647  13.901  0.00  0.00    +0.000 NA
ATOM      8  C   UNL     1      48.852   7.030  13.766  0.00  0.00    +0.000 A 
ATOM      9  H   UNL     1      45.345   6.038  13.979  0.00  0.00    +0.000 HD
BRANCH   2  11
ATOM     10  N   UNL     1      51.538   7.800  13.721  0.00  0.00    +0.000 N 
ATOM     11  C   UNL     1      50.736   8.239  12.704  0.00  0.00    +0.000 C 
ATOM     12  O   UNL     1      51.188   8.883  11.765  0.00  0.00    +0.000 OA
ATOM     13  H   UNL     1      52.529   7.985  13.626  0.00  0.00    +0.000 HD
ATOM     14  H   UNL     1      51.261   7.074  14.363  0.00  0.00    +0.000 HD
ENDBRANCH   2  11
ENDBRANCH   1   6
BRANCH   1  15
ATOM     15  C   UNL     1      44.329   5.104  11.671  0.00  0.00    +0.000 A 
ATOM     16  C   UNL     1      43.386   4.206  12.186  0.00  0.00    +0.000 A 
ATOM     17  C   UNL     1      43.236   2.943  11.619  0.00  0.00    +0.000 A 
ATOM     18  C   UNL     1      44.011   2.570  10.518  0.00  0.00    +0.000 A 
ATOM     19  C   UNL     1      44.959   3.445   9.962  0.00  0.00    +0.000 A 
ATOM     20  C   UNL     1      45.124   4.700  10.581  0.00  0.00    +0.000 A 
BRANCH  19  21
ATOM     21  C   UNL     1      45.678   3.107   8.715  0.00  0.00    +0.000 A 
ATOM     22  C   UNL     1      46.020   4.063   7.752  0.00  0.00    +0.000 A 
ATOM     23  N   UNL     1      46.604   3.795   6.553  0.00  0.00    +0.000 NA
ATOM     24  C   UNL     1      46.879   2.496   6.297  0.00  0.00    +0.000 A 
ATOM     25  C   UNL     1      46.602   1.474   7.183  0.00  0.00    +0.000 A 
ATOM     26  F   UNL     1      46.892   0.204   6.875  0.00  0.00    +0.000 F 
ATOM     27  C   UNL     1      46.000   1.778   8.397  0.00  0.00    +0.000 A 
ENDBRANCH  19  21
ENDBRANCH   1  15
TORSDOF 4
ENDMDL
MODEL 9
REMARK VINA RESULT:    -7.184      5.132      7.976
REMARK INTER + INTRA:          -9.690
REMARK INTER:                  -9.240
REMARK INTRA:                  -0.449
REMARK UNBOUND:                -0.826
REMARK  Name = 
REMARK  4 active torsions:
REMARK  status: ('A' for Active; 'I' for Inactive)
REMARK    1  A    between atoms: C_2  and  C_4
REMARK    2  A    between atoms: N_8  and  C_9
REMARK    3  A    between atoms: C_9  and  C_10
REMARK    4  A    between atoms: C_14  and  C_15
REMARK                            x       y       z     vdW  Elec       q    Type
REMARK                         _______ _______ _______ _____ _____    ______ ____
ROOT
ATOM      1  C   UNL     1      46.023   5.182  14.017  0.00  0.00    +0.000 C 
ENDROOT
BRANCH   1   6
ATOM      2  C   UNL     1      49.665   3.746  17.330  0.00  0.00    +0.000 A 
ATOM      3  C   UNL     1      49.087   4.999  17.144  0.00  0.00    +0.000 A 
ATOM      4  C   UNL     1      47.991   5.123  16.293  0.00  0.00    +0.000 A 
ATOM      5  C   UNL     1      47.502   4.008  15.623  0.00  0.00    +0.000 A 
ATOM      6  N   UNL     1      46.384   4.033  14.819  0.00  0.00    +0.000 N 
ATOM      7  N   UNL     1      48.058   2.791  15.791  0.00  0.00    +0.000 NA
ATOM      8  C   UNL     1      49.126   2.682  16.627  0.00  0.00    +0.000 A 
ATOM      9  H   UNL     1      46.287   3.127  14.373  0.00  0.00    +0.000 HD
BRANCH   2  11
ATOM     10  N   UNL     1      51.535   2.374  18.050  0.00  0.00    +0.000 N 
ATOM     11  C   UNL     1      50.821   3.527  18.224  0.00  0.00    +0.000 C 
ATOM     12  O   UNL     1      51.143   4.360  19.061  0.00  0.00    +0.000 OA
ATOM     13  H   UNL     1      52.375   2.275  18.609  0.00  0.00    +0.000 HD
ATOM     14  H   UNL     1      51.456   1.798  17.227  0.00  0.00    +0.000 HD
ENDBRANCH   2  11
ENDBRANCH   1   6
BRANCH   1  15
ATOM     15  C   UNL     1      45.089   4.850  12.875  0.00  0.00    +0.000 A 
ATOM     16  C   UNL     1      43.767   5.309  12.876  0.00  0.00    +0.000 A 
ATOM     17  C   UNL     1      42.959   5.126  11.756  0.00  0.00    +0.000 A 
ATOM     18  C   UNL     1      43.469   4.500  10.616  0.00  0.00    +0.000 A 
ATOM     19  C   UNL     1      44.795   4.036  10.569  0.00  0.00    +0.000 A 
ATOM     20  C   UNL     1      45.578   4.193  11.729  0.00  0.00    +0.000 A 
BRANCH  19  21
ATOM     21  C   UNL     1      45.377   3.502   9.319  0.00  0.00    +0.000 A 
ATOM     22  C   UNL     1      45.666   4.308   8.211  0.00  0.00    +0.000 A 
ATOM     23  N   UNL     1      46.122   3.857   7.012  0.00  0.00    +0.000 NA
ATOM     24  C   UNL     1      46.317   2.523   6.907  0.00  0.00    +0.000 A 
ATOM     25  C   UNL     1      46.084   1.639   7.942  0.00  0.00    +0.000 A 
ATOM     26  F   UNL     1      46.290   0.326   7.781  0.00  0.00    +0.000 F 
ATOM     27  C   UNL     1      45.612   2.128   9.153  0.00  0.00    +0.000 A 
ENDBRANCH  19  21
ENDBRANCH   1  15
TORSDOF 4
ENDMDL
