MODEL 1
REMARK VINA RESULT:    -9.127      0.000      0.000
REMARK INTER + INTRA:         -12.403
REMARK INTER:                 -11.261
REMARK INTRA:                  -1.143
REMARK UNBOUND:                -1.143
REMARK  Name = 
REMARK  4 active torsions:
REMARK  status: ('A' for Active; 'I' for Inactive)
REMARK    1  A    between atoms: C_2  and  C_4
REMARK    2  A    between atoms: N_8  and  C_9
REMARK    3  A    between atoms: C_9  and  C_10
REMARK    4  A    between atoms: C_14  and  C_15
REMARK                            x       y       z     vdW  Elec       q    Type
REMARK                         _______ _______ _______ _____ _____    ______ ____
ROOT
ATOM      1  C   UNL     1      43.901   4.875  11.429  0.00  0.00    +0.000 C 
ATOM      2  C   UNL     1      42.557   5.123  12.128  0.00  0.00    +0.000 C 
ATOM      3  C   UNL     1      42.992   6.020  11.020  0.00  0.00    +0.000 C 
ENDROOT
BRANCH   1   8
ATOM      4  C   UNL     1      46.611   2.773   7.499  0.00  0.00    +0.000 A 
ATOM      5  C   UNL     1      46.360   4.110   7.794  0.00  0.00    +0.000 A 
ATOM      6  C   UNL     1      45.527   4.428   8.869  0.00  0.00    +0.000 A 
ATOM      7  C   UNL     1      44.961   3.414   9.632  0.00  0.00    +0.000 A 
ATOM      8  N   UNL     1      44.014   3.647  10.635  0.00  0.00    +0.000 N 
ATOM      9  N   UNL     1      45.226   2.115   9.375  0.00  0.00    +0.000 NA
ATOM     10  C   UNL     1      46.028   1.819   8.315  0.00  0.00    +0.000 A 
ATOM     11  H   UNL     1      43.867   2.759  11.111  0.00  0.00    +0.000 HD
BRANCH   4  13
ATOM     12  N   UNL     1      47.179   3.021   5.148  0.00  0.00    +0.000 N 
ATOM     13  C   UNL     1      47.393   2.345   6.321  0.00  0.00    +0.000 C 
ATOM     14  O   UNL     1      48.203   1.431   6.386  0.00  0.00    +0.000 OA
ATOM     15  H   UNL     1      47.744   2.744   4.354  0.00  0.00    +0.000 HD
ATOM     16  H   UNL     1      46.711   3.913   5.103  0.00  0.00    +0.000 HD
ENDBRANCH   4  13
ENDBRANCH   1   8
BRANCH   1  17
ATOM     17  C   UNL     1      45.133   5.176  12.274  0.00  0.00    +0.000 A 
ATOM     18  C   UNL     1      45.616   4.292  13.242  0.00  0.00    +0.000 A 
ATOM     19  C   UNL     1      46.803   4.560  13.928  0.00  0.00    +0.000 A 
ATOM     20  C   UNL     1      47.542   5.705  13.625  0.00  0.00    +0.000 A 
ATOM     21  C   UNL     1      47.112   6.614  12.651  0.00  0.00    +0.000 A 
ATOM     22  C   UNL     1      45.873   6.354  12.047  0.00  0.00    +0.000 A 
BRANCH  21  23
ATOM     23  C   UNL     1      47.969   7.710  12.138  0.00  0.00    +0.000 A 
ATOM     24  C   UNL     1      47.496   9.038  12.138  0.00  0.00    +0.000 A 
ATOM     25  C   UNL     1      48.335  10.109  11.826  0.00  0.00    +0.000 A 
ATOM     26  C   UNL     1      49.664   9.868  11.515  0.00  0.00    +0.000 A 
ATOM     27  F   UNL     1      50.480  10.899  11.262  0.00  0.00    +0.000 F 
ATOM     28  C   UNL     1      50.162   8.574  11.479  0.00  0.00    +0.000 A 
ATOM     29  C   UNL     1      49.315   7.501  11.774  0.00  0.00    +0.000 A 
ENDBRANCH  21  23
ENDBRANCH   1  17
TORSDOF 4
ENDMDL
MODEL 2
REMARK VINA RESULT:    -8.927      2.513      3.897
REMARK INTER + INTRA:         -12.157
REMARK INTER:                 -11.440
REMARK INTRA:                  -0.716
REMARK UNBOUND:                -1.143
REMARK  Name = 
REMARK  4 active torsions:
REMARK  status: ('A' for Active; 'I' for Inactive)
REMARK    1  A    between atoms: C_2  and  C_4
REMARK    2  A    between atoms: N_8  and  C_9
REMARK    3  A    between atoms: C_9  and  C_10
REMARK    4  A    between atoms: C_14  and  C_15
REMARK                            x       y       z     vdW  Elec       q    Type
REMARK                         _______ _______ _______ _____ _____    ______ ____
ROOT
ATOM      1  C   UNL     1      43.928   4.882  11.511  0.00  0.00    +0.000 C 
ATOM      2  C   UNL     1      42.797   4.954  12.548  0.00  0.00    +0.000 C 
ATOM      3  C   UNL     1      42.742   5.813  11.332  0.00  0.00    +0.000 C 
ENDROOT
BRANCH   1   8
ATOM      4  C   UNL     1      46.501   2.749   7.508  0.00  0.00    +0.000 A 
ATOM      5  C   UNL     1      46.200   4.083   7.765  0.00  0.00    +0.000 A 
ATOM      6  C   UNL     1      45.417   4.407   8.875  0.00  0.00    +0.000 A 
ATOM      7  C   UNL     1      44.952   3.399   9.711  0.00  0.00    +0.000 A 
ATOM      8  N   UNL     1      44.055   3.628  10.761  0.00  0.00    +0.000 N 
ATOM      9  N   UNL     1      45.266   2.105   9.491  0.00  0.00    +0.000 NA
ATOM     10  C   UNL     1      46.017   1.804   8.396  0.00  0.00    +0.000 A 
ATOM     11  H   UNL     1      43.983   2.756  11.280  0.00  0.00    +0.000 HD
BRANCH   4  13
ATOM     12  N   UNL     1      47.137   3.103   5.188  0.00  0.00    +0.000 N 
ATOM     13  C   UNL     1      47.232   2.310   6.301  0.00  0.00    +0.000 C 
ATOM     14  O   UNL     1      47.900   1.285   6.293  0.00  0.00    +0.000 OA
ATOM     15  H   UNL     1      47.668   2.813   4.376  0.00  0.00    +0.000 HD
ATOM     16  H   UNL     1      46.803   4.055   5.215  0.00  0.00    +0.000 HD
ENDBRANCH   4  13
ENDBRANCH   1   8
BRANCH   1  17
ATOM     17  C   UNL     1      45.260   5.464  11.969  0.00  0.00    +0.000 A 
ATOM     18  C   UNL     1      45.821   6.605  11.390  0.00  0.00    +0.000 A 
ATOM     19  C   UNL     1      46.995   7.163  11.902  0.00  0.00    +0.000 A 
ATOM     20  C   UNL     1      47.603   6.604  13.027  0.00  0.00    +0.000 A 
ATOM     21  C   UNL     1      47.070   5.472  13.656  0.00  0.00    +0.000 A 
ATOM     22  C   UNL     1      45.942   4.890  13.061  0.00  0.00    +0.000 A 
BRANCH  21  23
ATOM     23  C   UNL     1      47.544   4.986  14.974  0.00  0.00    +0.000 A 
ATOM     24  C   UNL     1      48.303   5.829  15.811  0.00  0.00    +0.000 A 
ATOM     25  C   UNL     1      48.615   5.465  17.121  0.00  0.00    +0.000 A 
ATOM     26  C   UNL     1      48.169   4.251  17.618  0.00  0.00    +0.000 A 
ATOM     27  F   UNL     1      48.428   3.923  18.890  0.00  0.00    +0.000 F 
ATOM     28  C   UNL     1      47.442   3.381  16.819  0.00  0.00    +0.000 A 
ATOM     29  C   UNL     1      47.145   3.740  15.501  0.00  0.00    +0.000 A 
ENDBRANCH  21  23
ENDBRANCH   1  17
TORSDOF 4
ENDMDL
MODEL 3
REMARK VINA RESULT:    -7.391      3.984      7.044
REMARK INTER + INTRA:         -10.262
REMARK INTER:                  -9.247
REMARK INTRA:                  -1.015
REMARK UNBOUND:                -1.143
REMARK  Name = 
REMARK  4 active torsions:
REMARK  status: ('A' for Active; 'I' for Inactive)
REMARK    1  A    between atoms: C_2  and  C_4
REMARK    2  A    between atoms: N_8  and  C_9
REMARK    3  A    between atoms: C_9  and  C_10
REMARK    4  A    between atoms: C_14  and  C_15
REMARK                            x       y       z     vdW  Elec       q    Type
REMARK                         _______ _______ _______ _____ _____    ______ ____
ROOT
ATOM      1  C   UNL     1      46.187   5.288  13.384  0.00  0.00    +0.000 C 
ATOM      2  C   UNL     1      46.106   4.375  14.615  0.00  0.00    +0.000 C 
ATOM      3  C   UNL     1      47.297   4.308  13.723  0.00  0.00    +0.000 C 
ENDROOT
BRANCH   1   8
ATOM      4  C   UNL     1      48.617   9.558  11.635  0.00  0.00    +0.000 A 
ATOM      5  C   UNL     1      48.987   8.220  11.539  0.00  0.00    +0.000 A 
ATOM      6  C   UNL     1      48.205   7.247  12.166  0.00  0.00    +0.000 A 
ATOM      7  C   UNL     1      47.069   7.622  12.873  0.00  0.00    +0.000 A 
ATOM      8  N   UNL     1      46.313   6.727  13.637  0.00  0.00    +0.000 N 
ATOM      9  N   UNL     1      46.682   8.914  12.944  0.00  0.00    +0.000 NA
ATOM     10  C   UNL     1      47.463   9.852  12.340  0.00  0.00    +0.000 A 
ATOM     11  H   UNL     1      45.480   7.230  13.939  0.00  0.00    +0.000 HD
BRANCH   4  13
ATOM     12  N   UNL     1      48.839  11.514  10.207  0.00  0.00    +0.000 N 
ATOM     13  C   UNL     1      49.441  10.658  11.092  0.00  0.00    +0.000 C 
ATOM     14  O   UNL     1      50.611  10.806  11.421  0.00  0.00    +0.000 OA
ATOM     15  H   UNL     1      49.402  12.285   9.866  0.00  0.00    +0.000 HD
ATOM     16  H   UNL     1      47.839  11.575  10.092  0.00  0.00    +0.000 HD
ENDBRANCH   4  13
ENDBRANCH   1   8
BRANCH   1  17
ATOM     17  C   UNL     1      45.217   4.943  12.260  0.00  0.00    +0.000 A 
ATOM     18  C   UNL     1      43.930   5.481  12.186  0.00  0.00    +0.000 A 
ATOM     19  C   UNL     1      43.105   5.216  11.090  0.00  0.00    +0.000 A 
ATOM     20  C   UNL     1      43.577   4.436  10.033  0.00  0.00    +0.000 A 
ATOM     21  C   UNL     1      44.865   3.889  10.049  0.00  0.00    +0.000 A 
ATOM     22  C   UNL     1      45.629   4.104  11.205  0.00  0.00    +0.000 A 
BRANCH  21  23
ATOM     23  C   UNL     1      45.485   3.253   8.861  0.00  0.00    +0.000 A 
ATOM     24  C   UNL     1      46.042   4.049   7.840  0.00  0.00    +0.000 A 
ATOM     25  C   UNL     1      46.782   3.486   6.800  0.00  0.00    +0.000 A 
ATOM     26  C   UNL     1      46.980   2.114   6.767  0.00  0.00    +0.000 A 
ATOM     27  F   UNL     1      47.729   1.579   5.794  0.00  0.00    +0.000 F 
ATOM     28  C   UNL     1      46.426   1.293   7.738  0.00  0.00    +0.000 A 
ATOM     29  C   UNL     1      45.671   1.858   8.770  0.00  0.00    +0.000 A 
ENDBRANCH  21  23
ENDBRANCH   1  17
TORSDOF 4
ENDMDL
MODEL 4
REMARK VINA RESULT:    -7.239      4.800      8.151
REMARK INTER + INTRA:         -10.075
REMARK INTER:                 -10.588
REMARK INTRA:                   0.513
REMARK UNBOUND:                -1.143
REMARK  Name = 
REMARK  4 active torsions:
REMARK  status: ('A' for Active; 'I' for Inactive)
REMARK    1  A    between atoms: C_2  and  C_4
REMARK    2  A    between atoms: N_8  and  C_9
REMARK    3  A    between atoms: C_9  and  C_10
REMARK    4  A    between atoms: C_14  and  C_15
REMARK                            x       y       z     vdW  Elec       q    Type
REMARK                         _______ _______ _______ _____ _____    ______ ____
ROOT
ATOM      1  C   UNL     1      46.278   5.236  13.374  0.00  0.00    +0.000 C 
ATOM      2  C   UNL     1      47.535   5.955  12.861  0.00  0.00    +0.000 C 
ATOM      3  C   UNL     1      46.529   6.705  13.664  0.00  0.00    +0.000 C 
ENDROOT
BRANCH   1   8
ATOM      4  C   UNL     1      48.374   4.464  18.087  0.00  0.00    +0.000 A 
ATOM      5  C   UNL     1      48.689   5.409  17.115  0.00  0.00    +0.000 A 
ATOM      6  C   UNL     1      48.036   5.366  15.881  0.00  0.00    +0.000 A 
ATOM      7  C   UNL     1      47.080   4.387  15.638  0.00  0.00    +0.000 A 
ATOM      8  N   UNL     1      46.482   4.195  14.387  0.00  0.00    +0.000 N 
ATOM      9  N   UNL     1      46.742   3.487  16.585  0.00  0.00    +0.000 NA
ATOM     10  C   UNL     1      47.398   3.532  17.778  0.00  0.00    +0.000 A 
ATOM     11  H   UNL     1      45.740   3.510  14.519  0.00  0.00    +0.000 HD
BRANCH   4  13
ATOM     12  N   UNL     1      48.464   3.696  20.392  0.00  0.00    +0.000 N 
ATOM     13  C   UNL     1      49.089   4.372  19.377  0.00  0.00    +0.000 C 
ATOM     14  O   UNL     1      50.194   4.871  19.535  0.00  0.00    +0.000 OA
ATOM     15  H   UNL     1      48.975   3.608  21.262  0.00  0.00    +0.000 HD
ATOM     16  H   UNL     1      47.680   3.079  20.243  0.00  0.00    +0.000 HD
ENDBRANCH   4  13
ENDBRANCH   1   8
BRANCH   1  17
ATOM     17  C   UNL     1      45.267   4.858  12.297  0.00  0.00    +0.000 A 
ATOM     18  C   UNL     1      43.959   5.348  12.290  0.00  0.00    +0.000 A 
ATOM     19  C   UNL     1      43.092   5.055  11.233  0.00  0.00    +0.000 A 
ATOM     20  C   UNL     1      43.540   4.296  10.151  0.00  0.00    +0.000 A 
ATOM     21  C   UNL     1      44.848   3.798  10.101  0.00  0.00    +0.000 A 
ATOM     22  C   UNL     1      45.659   4.039  11.219  0.00  0.00    +0.000 A 
BRANCH  21  23
ATOM     23  C   UNL     1      45.431   3.190   8.881  0.00  0.00    +0.000 A 
ATOM     24  C   UNL     1      45.842   4.007   7.808  0.00  0.00    +0.000 A 
ATOM     25  C   UNL     1      46.550   3.484   6.725  0.00  0.00    +0.000 A 
ATOM     26  C   UNL     1      46.863   2.134   6.701  0.00  0.00    +0.000 A 
ATOM     27  F   UNL     1      47.582   1.642   5.684  0.00  0.00    +0.000 F 
ATOM     28  C   UNL     1      46.454   1.292   7.724  0.00  0.00    +0.000 A 
ATOM     29  C   UNL     1      45.730   1.814   8.800  0.00  0.00    +0.000 A 
ENDBRANCH  21  23
ENDBRANCH   1  17
TORSDOF 4
ENDMDL
MODEL 5
REMARK VINA RESULT:    -6.971      5.131      8.478
REMARK INTER + INTRA:          -9.743
REMARK INTER:                  -8.725
REMARK INTRA:                  -1.018
REMARK UNBOUND:                -1.143
REMARK  Name = 
REMARK  4 active torsions:
REMARK  status: ('A' for Active; 'I' for Inactive)
REMARK    1  A    between atoms: C_2  and  C_4
REMARK    2  A    between atoms: N_8  and  C_9
REMARK    3  A    between atoms: C_9  and  C_10
REMARK    4  A    between atoms: C_14  and  C_15
REMARK                            x       y       z     vdW  Elec       q    Type
REMARK                         _______ _______ _______ _____ _____    ______ ____
ROOT
ATOM      1  C   UNL     1      48.933   7.792  12.538  0.00  0.00    +0.000 C 
ATOM      2  C   UNL     1      49.849   7.897  11.310  0.00  0.00    +0.000 C 
ATOM      3  C   UNL     1      49.689   9.069  12.216  0.00  0.00    +0.000 C 
ENDROOT
BRANCH   1   8
ATOM      4  C   UNL     1      48.665   7.110  17.701  0.00  0.00    +0.000 A 
ATOM      5  C   UNL     1      48.577   8.279  16.951  0.00  0.00    +0.000 A 
ATOM      6  C   UNL     1      48.764   8.220  15.568  0.00  0.00    +0.000 A 
ATOM      7  C   UNL     1      49.030   7.000  14.957  0.00  0.00    +0.000 A 
ATOM      8  N   UNL     1      49.361   6.879  13.603  0.00  0.00    +0.000 N 
ATOM      9  N   UNL     1      49.084   5.856  15.671  0.00  0.00    +0.000 NA
ATOM     10  C   UNL     1      48.915   5.932  17.020  0.00  0.00    +0.000 A 
ATOM     11  H   UNL     1      49.380   5.883  13.394  0.00  0.00    +0.000 HD
BRANCH   4  13
ATOM     12  N   UNL     1      47.669   6.252  19.747  0.00  0.00    +0.000 N 
ATOM     13  C   UNL     1      48.585   7.097  19.177  0.00  0.00    +0.000 C 
ATOM     14  O   UNL     1      49.307   7.806  19.865  0.00  0.00    +0.000 OA
ATOM     15  H   UNL     1      47.645   6.224  20.760  0.00  0.00    +0.000 HD
ATOM     16  H   UNL     1      47.231   5.494  19.246  0.00  0.00    +0.000 HD
ENDBRANCH   4  13
ENDBRANCH   1   8
BRANCH   1  17
ATOM     17  C   UNL     1      47.443   7.718  12.226  0.00  0.00    +0.000 A 
ATOM     18  C   UNL     1      46.610   8.839  12.268  0.00  0.00    +0.000 A 
ATOM     19  C   UNL     1      45.270   8.749  11.881  0.00  0.00    +0.000 A 
ATOM     20  C   UNL     1      44.757   7.539  11.412  0.00  0.00    +0.000 A 
ATOM     21  C   UNL     1      45.555   6.391  11.333  0.00  0.00    +0.000 A 
ATOM     22  C   UNL     1      46.868   6.500  11.812  0.00  0.00    +0.000 A 
BRANCH  21  23
ATOM     23  C   UNL     1      45.123   5.157  10.633  0.00  0.00    +0.000 A 
ATOM     24  C   UNL     1      45.493   4.936   9.292  0.00  0.00    +0.000 A 
ATOM     25  C   UNL     1      45.251   3.714   8.662  0.00  0.00    +0.000 A 
ATOM     26  C   UNL     1      44.638   2.691   9.368  0.00  0.00    +0.000 A 
ATOM     27  F   UNL     1      44.449   1.504   8.778  0.00  0.00    +0.000 F 
ATOM     28  C   UNL     1      44.235   2.877  10.682  0.00  0.00    +0.000 A 
ATOM     29  C   UNL     1      44.463   4.108  11.306  0.00  0.00    +0.000 A 
ENDBRANCH  21  23
ENDBRANCH   1  17
TORSDOF 4
ENDMDL
MODEL 6
REMARK VINA RESULT:    -6.919      4.514      7.638
REMARK INTER + INTRA:          -9.680
REMARK INTER:                  -9.850
REMARK INTRA:                   0.171
REMARK UNBOUND:                -1.143
REMARK  Name = 
REMARK  4 active torsions:
REMARK  status: ('A' for Active; 'I' for Inactive)
REMARK    1  A    between atoms: C_2  and  C_4
REMARK    2  A    between atoms: N_8  and  C_9
REMARK    3  A    between atoms: C_9  and  C_10
REMARK    4  A    between atoms: C_14  and  C_15
REMARK                            x       y       z     vdW  Elec       q    Type
REMARK                         _______ _______ _______ _____ _____    ______ ____
ROOT
ATOM      1  C   UNL     1      48.596   8.009  12.643  0.00  0.00    +0.000 C 
ATOM      2  C   UNL     1      49.620   7.398  11.675  0.00  0.00    +0.000 C 
ATOM      3  C   UNL     1      49.504   8.879  11.792  0.00  0.00    +0.000 C 
ENDROOT
BRANCH   1   8
ATOM      4  C   UNL     1      47.894   4.500  16.437  0.00  0.00    +0.000 A 
ATOM      5  C   UNL     1      47.188   4.685  15.251  0.00  0.00    +0.000 A 
ATOM      6  C   UNL     1      47.514   5.759  14.421  0.00  0.00    +0.000 A 
ATOM      7  C   UNL     1      48.538   6.627  14.781  0.00  0.00    +0.000 A 
ATOM      8  N   UNL     1      48.834   7.798  14.074  0.00  0.00    +0.000 N 
ATOM      9  N   UNL     1      49.252   6.437  15.912  0.00  0.00    +0.000 NA
ATOM     10  C   UNL     1      48.912   5.395  16.719  0.00  0.00    +0.000 A 
ATOM     11  H   UNL     1      49.694   8.171  14.472  0.00  0.00    +0.000 HD
BRANCH   4  13
ATOM     12  N   UNL     1      48.493   3.142  18.362  0.00  0.00    +0.000 N 
ATOM     13  C   UNL     1      47.546   3.455  17.422  0.00  0.00    +0.000 C 
ATOM     14  O   UNL     1      46.459   2.895  17.406  0.00  0.00    +0.000 OA
ATOM     15  H   UNL     1      48.234   2.449  19.054  0.00  0.00    +0.000 HD
ATOM     16  H   UNL     1      49.290   3.727  18.559  0.00  0.00    +0.000 HD
ENDBRANCH   4  13
ENDBRANCH   1   8
BRANCH   1  17
ATOM     17  C   UNL     1      47.138   7.839  12.229  0.00  0.00    +0.000 A 
ATOM     18  C   UNL     1      46.225   8.895  12.245  0.00  0.00    +0.000 A 
ATOM     19  C   UNL     1      44.923   8.722  11.766  0.00  0.00    +0.000 A 
ATOM     20  C   UNL     1      44.533   7.493  11.231  0.00  0.00    +0.000 A 
ATOM     21  C   UNL     1      45.416   6.409  11.174  0.00  0.00    +0.000 A 
ATOM     22  C   UNL     1      46.684   6.596  11.744  0.00  0.00    +0.000 A 
BRANCH  21  23
ATOM     23  C   UNL     1      45.123   5.170  10.414  0.00  0.00    +0.000 A 
ATOM     24  C   UNL     1      45.646   4.993   9.117  0.00  0.00    +0.000 A 
ATOM     25  C   UNL     1      45.534   3.774   8.447  0.00  0.00    +0.000 A 
ATOM     26  C   UNL     1      44.898   2.709   9.067  0.00  0.00    +0.000 A 
ATOM     27  F   UNL     1      44.832   1.526   8.443  0.00  0.00    +0.000 F 
ATOM     28  C   UNL     1      44.347   2.850  10.332  0.00  0.00    +0.000 A 
ATOM     29  C   UNL     1      44.446   4.078  10.995  0.00  0.00    +0.000 A 
ENDBRANCH  21  23
ENDBRANCH   1  17
TORSDOF 4
ENDMDL
MODEL 7
REMARK VINA RESULT:    -6.902      4.125      7.266
REMARK INTER + INTRA:          -9.658
REMARK INTER:                  -9.644
REMARK INTRA:                  -0.014
REMARK UNBOUND:                -1.143
REMARK  Name = 
REMARK  4 active torsions:
REMARK  status: ('A' for Active; 'I' for Inactive)
REMARK    1  A    between atoms: C_2  and  C_4
REMARK    2  A    between atoms: N_8  and  C_9
REMARK    3  A    between atoms: C_9  and  C_10
REMARK    4  A    between atoms: C_14  and  C_15
REMARK                            x       y       z     vdW  Elec       q    Type
REMARK                         _______ _______ _______ _____ _____    ______ ____
ROOT
ATOM      1  C   UNL     1      46.735   7.476  12.373  0.00  0.00    +0.000 C 
ATOM      2  C   UNL     1      47.965   7.594  11.461  0.00  0.00    +0.000 C 
ATOM      3  C   UNL     1      47.063   8.766  11.642  0.00  0.00    +0.000 C 
ENDROOT
BRANCH   1   8
ATOM      4  C   UNL     1      47.850   3.825  15.926  0.00  0.00    +0.000 A 
ATOM      5  C   UNL     1      47.202   3.708  14.701  0.00  0.00    +0.000 A 
ATOM      6  C   UNL     1      46.942   4.857  13.951  0.00  0.00    +0.000 A 
ATOM      7  C   UNL     1      47.334   6.101  14.431  0.00  0.00    +0.000 A 
ATOM      8  N   UNL     1      46.992   7.305  13.807  0.00  0.00    +0.000 N 
ATOM      9  N   UNL     1      47.994   6.223  15.603  0.00  0.00    +0.000 NA
ATOM     10  C   UNL     1      48.227   5.095  16.330  0.00  0.00    +0.000 A 
ATOM     11  H   UNL     1      47.506   8.041  14.288  0.00  0.00    +0.000 HD
BRANCH   4  13
ATOM     12  N   UNL     1      47.260   2.581  17.931  0.00  0.00    +0.000 N 
ATOM     13  C   UNL     1      48.071   2.677  16.830  0.00  0.00    +0.000 C 
ATOM     14  O   UNL     1      48.937   1.842  16.607  0.00  0.00    +0.000 OA
ATOM     15  H   UNL     1      47.396   1.773  18.526  0.00  0.00    +0.000 HD
ATOM     16  H   UNL     1      46.399   3.098  18.028  0.00  0.00    +0.000 HD
ENDBRANCH   4  13
ENDBRANCH   1   8
BRANCH   1  17
ATOM     17  C   UNL     1      45.618   6.588  11.837  0.00  0.00    +0.000 A 
ATOM     18  C   UNL     1      44.268   6.845  12.086  0.00  0.00    +0.000 A 
ATOM     19  C   UNL     1      43.271   6.064  11.497  0.00  0.00    +0.000 A 
ATOM     20  C   UNL     1      43.616   5.035  10.620  0.00  0.00    +0.000 A 
ATOM     21  C   UNL     1      44.954   4.749  10.322  0.00  0.00    +0.000 A 
ATOM     22  C   UNL     1      45.926   5.497  11.000  0.00  0.00    +0.000 A 
BRANCH  21  23
ATOM     23  C   UNL     1      45.356   3.827   9.232  0.00  0.00    +0.000 A 
ATOM     24  C   UNL     1      45.980   4.330   8.072  0.00  0.00    +0.000 A 
ATOM     25  C   UNL     1      46.524   3.478   7.111  0.00  0.00    +0.000 A 
ATOM     26  C   UNL     1      46.457   2.106   7.297  0.00  0.00    +0.000 A 
ATOM     27  F   UNL     1      47.021   1.290   6.398  0.00  0.00    +0.000 F 
ATOM     28  C   UNL     1      45.829   1.570   8.412  0.00  0.00    +0.000 A 
ATOM     29  C   UNL     1      45.269   2.426   9.365  0.00  0.00    +0.000 A 
ENDBRANCH  21  23
ENDBRANCH   1  17
TORSDOF 4
ENDMDL
MODEL 8
REMARK VINA RESULT:    -6.717      6.077      8.487
REMARK INTER + INTRA:          -9.431
REMARK INTER:                  -8.690
REMARK INTRA:                  -0.741
REMARK UNBOUND:                -1.143
REMARK  Name = 
REMARK  4 active torsions:
REMARK  status: ('A' for Active; 'I' for Inactive)
REMARK    1  A    between atoms: C_2  and  C_4
REMARK    2  A    between atoms: N_8  and  C_9
REMARK    3  A    between atoms: C_9  and  C_10
REMARK    4  A    between atoms: C_14  and  C_15
REMARK                            x       y       z     vdW  Elec       q    Type
REMARK                         _______ _______ _______ _____ _____    ______ ____
ROOT
ATOM      1  C   UNL     1      48.360   4.863  17.290  0.00  0.00    +0.000 C 
ATOM      2  C   UNL     1      47.167   5.156  18.212  0.00  0.00    +0.000 C 
ATOM      3  C   UNL     1      47.244   3.853  17.492  0.00  0.00    +0.000 C 
ENDROOT
BRANCH   1   8
ATOM      4  C   UNL     1      52.418   1.604  17.627  0.00  0.00    +0.000 A 
ATOM      5  C   UNL     1      51.086   1.341  17.319  0.00  0.00    +0.000 A 
ATOM      6  C   UNL     1      50.153   2.379  17.372  0.00  0.00    +0.000 A 
ATOM      7  C   UNL     1      50.562   3.659  17.727  0.00  0.00    +0.000 A 
ATOM      8  N   UNL     1      49.670   4.718  17.933  0.00  0.00    +0.000 N 
ATOM      9  N   UNL     1      51.857   3.933  17.994  0.00  0.00    +0.000 NA
ATOM     10  C   UNL     1      52.752   2.907  17.953  0.00  0.00    +0.000 A 
ATOM     11  H   UNL     1      50.234   5.556  18.056  0.00  0.00    +0.000 HD
BRANCH   4  13
ATOM     12  N   UNL     1      53.146  -0.574  18.425  0.00  0.00    +0.000 N 
ATOM     13  C   UNL     1      53.448   0.547  17.697  0.00  0.00    +0.000 C 
ATOM     14  O   UNL     1      54.525   0.662  17.127  0.00  0.00    +0.000 OA
ATOM     15  H   UNL     1      53.845  -1.308  18.440  0.00  0.00    +0.000 HD
ATOM     16  H   UNL     1      52.208  -0.813  18.707  0.00  0.00    +0.000 HD
ENDBRANCH   4  13
ENDBRANCH   1   8
BRANCH   1  17
ATOM     17  C   UNL     1      48.394   5.677  16.001  0.00  0.00    +0.000 A 
ATOM     18  C   UNL     1      49.400   6.606  15.725  0.00  0.00    +0.000 A 
ATOM     19  C   UNL     1      49.449   7.262  14.492  0.00  0.00    +0.000 A 
ATOM     20  C   UNL     1      48.509   6.965  13.505  0.00  0.00    +0.000 A 
ATOM     21  C   UNL     1      47.492   6.028  13.724  0.00  0.00    +0.000 A 
ATOM     22  C   UNL     1      47.424   5.457  15.003  0.00  0.00    +0.000 A 
BRANCH  21  23
ATOM     23  C   UNL     1      46.620   5.517  12.639  0.00  0.00    +0.000 A 
ATOM     24  C   UNL     1      45.808   4.385  12.855  0.00  0.00    +0.000 A 
ATOM     25  C   UNL     1      44.854   3.985  11.918  0.00  0.00    +0.000 A 
ATOM     26  C   UNL     1      44.693   4.716  10.751  0.00  0.00    +0.000 A 
ATOM     27  F   UNL     1      43.745   4.359   9.876  0.00  0.00    +0.000 F 
ATOM     28  C   UNL     1      45.490   5.820  10.489  0.00  0.00    +0.000 A 
ATOM     29  C   UNL     1      46.457   6.209  11.421  0.00  0.00    +0.000 A 
ENDBRANCH  21  23
ENDBRANCH   1  17
TORSDOF 4
ENDMDL
MODEL 9
REMARK VINA RESULT:    -6.552      4.331      6.847
REMARK INTER + INTRA:          -9.226
REMARK INTER:                  -8.082
REMARK INTRA:                  -1.144
REMARK UNBOUND:                -1.143
REMARK  Name = 
REMARK  4 active torsions:
REMARK  status: ('A' for Active; 'I' for Inactive)
REMARK    1  A    between atoms: C_2  and  C_4
REMARK    2  A    between atoms: N_8  and  C_9
REMARK    3  A    between atoms: C_9  and  C_10
REMARK    4  A    between atoms: C_14  and  C_15
REMARK                            x       y       z     vdW  Elec       q    Type
REMARK                         _______ _______ _______ _____ _____    ______ ____
ROOT
ATOM      1  C   UNL     1      48.787   8.369  13.171  0.00  0.00    +0.000 C 
ATOM      2  C   UNL     1      49.696   9.478  12.622  0.00  0.00    +0.000 C 
ATOM      3  C   UNL     1      50.014   8.051  12.335  0.00  0.00    +0.000 C 
ENDROOT
BRANCH   1   8
ATOM      4  C   UNL     1      44.759   5.102  12.625  0.00  0.00    +0.000 A 
ATOM      5  C   UNL     1      46.115   4.828  12.773  0.00  0.00    +0.000 A 
ATOM      6  C   UNL     1      47.026   5.885  12.819  0.00  0.00    +0.000 A 
ATOM      7  C   UNL     1      46.572   7.195  12.721  0.00  0.00    +0.000 A 
ATOM      8  N   UNL     1      47.429   8.297  12.623  0.00  0.00    +0.000 N 
ATOM      9  N   UNL     1      45.256   7.474  12.611  0.00  0.00    +0.000 NA
ATOM     10  C   UNL     1      44.381   6.432  12.553  0.00  0.00    +0.000 A 
ATOM     11  H   UNL     1      46.846   9.129  12.691  0.00  0.00    +0.000 HD
BRANCH   4  13
ATOM     12  N   UNL     1      42.594   4.377  11.788  0.00  0.00    +0.000 N 
ATOM     13  C   UNL     1      43.740   4.045  12.462  0.00  0.00    +0.000 C 
ATOM     14  O   UNL     1      43.910   2.917  12.905  0.00  0.00    +0.000 OA
ATOM     15  H   UNL     1      41.916   3.637  11.652  0.00  0.00    +0.000 HD
ATOM     16  H   UNL     1      42.512   5.201  11.213  0.00  0.00    +0.000 HD
ENDBRANCH   4  13
ENDBRANCH   1   8
BRANCH   1  17
ATOM     17  C   UNL     1      48.853   8.171  14.682  0.00  0.00    +0.000 A 
ATOM     18  C   UNL     1      48.313   9.090  15.584  0.00  0.00    +0.000 A 
ATOM     19  C   UNL     1      48.307   8.826  16.956  0.00  0.00    +0.000 A 
ATOM     20  C   UNL     1      48.812   7.618  17.438  0.00  0.00    +0.000 A 
ATOM     21  C   UNL     1      49.347   6.655  16.573  0.00  0.00    +0.000 A 
ATOM     22  C   UNL     1      49.415   6.994  15.215  0.00  0.00    +0.000 A 
BRANCH  21  23
ATOM     23  C   UNL     1      49.680   5.278  17.010  0.00  0.00    +0.000 A 
ATOM     24  C   UNL     1      48.711   4.257  16.939  0.00  0.00    +0.000 A 
ATOM     25  C   UNL     1      49.041   2.922  17.176  0.00  0.00    +0.000 A 
ATOM     26  C   UNL     1      50.350   2.586  17.485  0.00  0.00    +0.000 A 
ATOM     27  F   UNL     1      50.675   1.300  17.666  0.00  0.00    +0.000 F 
ATOM     28  C   UNL     1      51.328   3.563  17.590  0.00  0.00    +0.000 A 
ATOM     29  C   UNL     1      50.992   4.902  17.369  0.00  0.00    +0.000 A 
ENDBRANCH  21  23
ENDBRANCH   1  17
TORSDOF 4
ENDMDL
