MODEL 1
REMARK VINA RESULT:    -9.377      0.000      0.000
REMARK INTER + INTRA:         -12.153
REMARK INTER:                 -11.570
REMARK INTRA:                  -0.583
REMARK UNBOUND:                -0.583
REMARK  Name = 
REMARK  4 active torsions:
REMARK  status: ('A' for Active; 'I' for Inactive)
REMARK    1  A    between atoms: C_2  and  C_4
REMARK    2  A    between atoms: N_8  and  C_9
REMARK    3  A    between atoms: C_9  and  C_10
REMARK    4  A    between atoms: C_15  and  C_16
REMARK                            x       y       z     vdW  Elec       q    Type
REMARK                         _______ _______ _______ _____ _____    ______ ____
ROOT
ATOM      1  C   UNL     1      43.620   4.492  11.126  0.00  0.00    +0.000 C 
ENDROOT
BRANCH   1   6
ATOM      2  C   UNL     1      46.389   2.321   7.695  0.00  0.00    +0.000 A 
ATOM      3  C   UNL     1      45.592   1.863   8.712  0.00  0.00    +0.000 A 
ATOM      4  N   UNL     1      44.745   2.650   9.401  0.00  0.00    +0.000 NA
ATOM      5  C   UNL     1      44.699   3.950   9.071  0.00  0.00    +0.000 A 
ATOM      6  N   UNL     1      43.809   4.786   9.719  0.00  0.00    +0.000 N 
ATOM      7  N   UNL     1      45.453   4.498   8.110  0.00  0.00    +0.000 NA
ATOM      8  C   UNL     1      46.291   3.669   7.440  0.00  0.00    +0.000 A 
ATOM      9  H   UNL     1      44.078   5.742   9.512  0.00  0.00    +0.000 HD
BRANCH   2  11
ATOM     10  N   UNL     1      48.440   2.045   6.431  0.00  0.00    +0.000 N 
ATOM     11  C   UNL     1      47.314   1.463   6.946  0.00  0.00    +0.000 C 
ATOM     12  O   UNL     1      47.097   0.266   6.813  0.00  0.00    +0.000 OA
ATOM     13  H   UNL     1      49.105   1.420   5.986  0.00  0.00    +0.000 HD
ATOM     14  H   UNL     1      48.784   2.952   6.712  0.00  0.00    +0.000 HD
ENDBRANCH   2  11
ENDBRANCH   1   6
BRANCH   1  15
ATOM     15  C   UNL     1      44.888   4.814  11.880  0.00  0.00    +0.000 A 
ATOM     16  C   UNL     1      45.436   3.913  12.792  0.00  0.00    +0.000 A 
ATOM     17  C   UNL     1      46.582   4.265  13.491  0.00  0.00    +0.000 A 
ATOM     18  F   UNL     1      47.102   3.400  14.372  0.00  0.00    +0.000 F 
ATOM     19  C   UNL     1      47.201   5.499  13.301  0.00  0.00    +0.000 A 
ATOM     20  C   UNL     1      46.673   6.442  12.405  0.00  0.00    +0.000 A 
ATOM     21  C   UNL     1      45.506   6.072  11.709  0.00  0.00    +0.000 A 
BRANCH  20  22
ATOM     22  C   UNL     1      47.304   7.767  12.205  0.00  0.00    +0.000 A 
ATOM     23  C   UNL     1      48.646   7.911  11.818  0.00  0.00    +0.000 A 
ATOM     24  C   UNL     1      49.205   9.175  11.625  0.00  0.00    +0.000 A 
ATOM     25  C   UNL     1      48.409  10.285  11.837  0.00  0.00    +0.000 A 
ATOM     26  N   UNL     1      47.118  10.210  12.213  0.00  0.00    +0.000 NA
ATOM     27  C   UNL     1      46.604   8.966  12.381  0.00  0.00    +0.000 A 
ENDBRANCH  20  22
ENDBRANCH   1  15
TORSDOF 4
ENDMDL
MODEL 2
REMARK VINA RESULT:    -8.983      2.314      3.778
REMARK INTER + INTRA:         -11.666
REMARK INTER:                 -10.983
REMARK INTRA:                  -0.683
REMARK UNBOUND:                -0.583
REMARK  Name = 
REMARK  4 active torsions:
REMARK  status: ('A' for Active; 'I' for Inactive)
REMARK    1  A    between atoms: C_2  and  C_4
REMARK    2  A    between atoms: N_8  and  C_9
REMARK    3  A    between atoms: C_9  and  C_10
REMARK    4  A    between atoms: C_15  and  C_16
REMARK                            x       y       z     vdW  Elec       q    Type
REMARK                         _______ _______ _______ _____ _____    ______ ____
ROOT
ATOM      1  C   UNL     1      43.656   4.590  11.082  0.00  0.00    +0.000 C 
ENDROOT
BRANCH   1   6
ATOM      2  C   UNL     1      46.369   2.272   7.703  0.00  0.00    +0.000 A 
ATOM      3  C   UNL     1      45.578   1.858   8.744  0.00  0.00    +0.000 A 
ATOM      4  N   UNL     1      44.745   2.677   9.412  0.00  0.00    +0.000 NA
ATOM      5  C   UNL     1      44.709   3.966   9.037  0.00  0.00    +0.000 A 
ATOM      6  N   UNL     1      43.833   4.833   9.664  0.00  0.00    +0.000 N 
ATOM      7  N   UNL     1      45.460   4.472   8.050  0.00  0.00    +0.000 NA
ATOM      8  C   UNL     1      46.283   3.612   7.402  0.00  0.00    +0.000 A 
ATOM      9  H   UNL     1      44.110   5.778   9.421  0.00  0.00    +0.000 HD
BRANCH   2  11
ATOM     10  N   UNL     1      48.418   1.926   6.453  0.00  0.00    +0.000 N 
ATOM     11  C   UNL     1      47.279   1.379   6.977  0.00  0.00    +0.000 C 
ATOM     12  O   UNL     1      47.038   0.185   6.870  0.00  0.00    +0.000 OA
ATOM     13  H   UNL     1      49.071   1.278   6.024  0.00  0.00    +0.000 HD
ATOM     14  H   UNL     1      48.780   2.832   6.714  0.00  0.00    +0.000 HD
ENDBRANCH   2  11
ENDBRANCH   1   6
BRANCH   1  15
ATOM     15  C   UNL     1      44.738   5.307  11.853  0.00  0.00    +0.000 A 
ATOM     16  C   UNL     1      45.144   6.594  11.501  0.00  0.00    +0.000 A 
ATOM     17  C   UNL     1      46.169   7.201  12.214  0.00  0.00    +0.000 A 
ATOM     18  F   UNL     1      46.563   8.435  11.870  0.00  0.00    +0.000 F 
ATOM     19  C   UNL     1      46.801   6.555  13.275  0.00  0.00    +0.000 A 
ATOM     20  C   UNL     1      46.434   5.254  13.651  0.00  0.00    +0.000 A 
ATOM     21  C   UNL     1      45.397   4.649  12.913  0.00  0.00    +0.000 A 
BRANCH  20  22
ATOM     22  C   UNL     1      47.108   4.543  14.761  0.00  0.00    +0.000 A 
ATOM     23  C   UNL     1      47.445   5.178  15.968  0.00  0.00    +0.000 A 
ATOM     24  C   UNL     1      48.067   4.475  16.999  0.00  0.00    +0.000 A 
ATOM     25  C   UNL     1      48.357   3.138  16.801  0.00  0.00    +0.000 A 
ATOM     26  N   UNL     1      48.063   2.475  15.666  0.00  0.00    +0.000 NA
ATOM     27  C   UNL     1      47.449   3.188  14.688  0.00  0.00    +0.000 A 
ENDBRANCH  20  22
ENDBRANCH   1  15
TORSDOF 4
ENDMDL
MODEL 3
REMARK VINA RESULT:    -8.020      3.427      7.149
REMARK INTER + INTRA:         -10.478
REMARK INTER:                 -10.344
REMARK INTRA:                  -0.134
REMARK UNBOUND:                -0.583
REMARK  Name = 
REMARK  4 active torsions:
REMARK  status: ('A' for Active; 'I' for Inactive)
REMARK    1  A    between atoms: C_2  and  C_4
REMARK    2  A    between atoms: N_8  and  C_9
REMARK    3  A    between atoms: C_9  and  C_10
REMARK    4  A    between atoms: C_15  and  C_16
REMARK                            x       y       z     vdW  Elec       q    Type
REMARK                         _______ _______ _______ _____ _____    ______ ____
ROOT
ATOM      1  C   UNL     1      45.127   6.457  11.174  0.00  0.00    +0.000 C 
ENDROOT
BRANCH   1   6
ATOM      2  C   UNL     1      47.758   5.435  15.197  0.00  0.00    +0.000 A 
ATOM      3  C   UNL     1      46.740   4.800  14.532  0.00  0.00    +0.000 A 
ATOM      4  N   UNL     1      46.313   5.166  13.310  0.00  0.00    +0.000 NA
ATOM      5  C   UNL     1      46.916   6.217  12.730  0.00  0.00    +0.000 A 
ATOM      6  N   UNL     1      46.542   6.598  11.455  0.00  0.00    +0.000 N 
ATOM      7  N   UNL     1      47.902   6.917  13.307  0.00  0.00    +0.000 NA
ATOM      8  C   UNL     1      48.302   6.513  14.537  0.00  0.00    +0.000 A 
ATOM      9  H   UNL     1      46.924   7.523  11.286  0.00  0.00    +0.000 HD
BRANCH   2  11
ATOM     10  N   UNL     1      47.577   5.575  17.611  0.00  0.00    +0.000 N 
ATOM     11  C   UNL     1      48.221   5.037  16.531  0.00  0.00    +0.000 C 
ATOM     12  O   UNL     1      49.133   4.233  16.668  0.00  0.00    +0.000 OA
ATOM     13  H   UNL     1      47.859   5.227  18.521  0.00  0.00    +0.000 HD
ATOM     14  H   UNL     1      46.682   6.040  17.558  0.00  0.00    +0.000 HD
ENDBRANCH   2  11
ENDBRANCH   1   6
BRANCH   1  15
ATOM     15  C   UNL     1      44.852   5.061  10.670  0.00  0.00    +0.000 A 
ATOM     16  C   UNL     1      43.957   4.218  11.328  0.00  0.00    +0.000 A 
ATOM     17  C   UNL     1      43.762   2.929  10.853  0.00  0.00    +0.000 A 
ATOM     18  F   UNL     1      42.907   2.119  11.491  0.00  0.00    +0.000 F 
ATOM     19  C   UNL     1      44.440   2.456   9.730  0.00  0.00    +0.000 A 
ATOM     20  C   UNL     1      45.361   3.266   9.048  0.00  0.00    +0.000 A 
ATOM     21  C   UNL     1      45.553   4.569   9.548  0.00  0.00    +0.000 A 
BRANCH  20  22
ATOM     22  C   UNL     1      46.107   2.775   7.867  0.00  0.00    +0.000 A 
ATOM     23  C   UNL     1      46.325   3.571   6.730  0.00  0.00    +0.000 A 
ATOM     24  C   UNL     1      47.045   3.081   5.640  0.00  0.00    +0.000 A 
ATOM     25  C   UNL     1      47.527   1.787   5.698  0.00  0.00    +0.000 A 
ATOM     26  N   UNL     1      47.345   0.974   6.757  0.00  0.00    +0.000 NA
ATOM     27  C   UNL     1      46.650   1.487   7.804  0.00  0.00    +0.000 A 
ENDBRANCH  20  22
ENDBRANCH   1  15
TORSDOF 4
ENDMDL
MODEL 4
REMARK VINA RESULT:    -8.008      2.556      3.092
REMARK INTER + INTRA:         -10.463
REMARK INTER:                  -9.900
REMARK INTRA:                  -0.564
REMARK UNBOUND:                -0.583
REMARK  Name = 
REMARK  4 active torsions:
REMARK  status: ('A' for Active; 'I' for Inactive)
REMARK    1  A    between atoms: C_2  and  C_4
REMARK    2  A    between atoms: N_8  and  C_9
REMARK    3  A    between atoms: C_9  and  C_10
REMARK    4  A    between atoms: C_15  and  C_16
REMARK                            x       y       z     vdW  Elec       q    Type
REMARK                         _______ _______ _______ _____ _____    ______ ____
ROOT
ATOM      1  C   UNL     1      44.302   5.179  11.167  0.00  0.00    +0.000 C 
ENDROOT
BRANCH   1   6
ATOM      2  C   UNL     1      46.334   2.092   7.928  0.00  0.00    +0.000 A 
ATOM      3  C   UNL     1      45.635   1.929   9.097  0.00  0.00    +0.000 A 
ATOM      4  N   UNL     1      44.978   2.930   9.711  0.00  0.00    +0.000 NA
ATOM      5  C   UNL     1      45.031   4.147   9.146  0.00  0.00    +0.000 A 
ATOM      6  N   UNL     1      44.332   5.193   9.718  0.00  0.00    +0.000 N 
ATOM      7  N   UNL     1      45.706   4.413   8.020  0.00  0.00    +0.000 NA
ATOM      8  C   UNL     1      46.351   3.375   7.433  0.00  0.00    +0.000 A 
ATOM      9  H   UNL     1      44.673   6.054   9.303  0.00  0.00    +0.000 HD
BRANCH   2  11
ATOM     10  N   UNL     1      46.737  -0.279   7.622  0.00  0.00    +0.000 N 
ATOM     11  C   UNL     1      47.053   1.001   7.259  0.00  0.00    +0.000 C 
ATOM     12  O   UNL     1      47.883   1.232   6.392  0.00  0.00    +0.000 OA
ATOM     13  H   UNL     1      47.187  -1.020   7.092  0.00  0.00    +0.000 HD
ATOM     14  H   UNL     1      45.908  -0.530   8.141  0.00  0.00    +0.000 HD
ENDBRANCH   2  11
ENDBRANCH   1   6
BRANCH   1  15
ATOM     15  C   UNL     1      44.858   6.480  11.693  0.00  0.00    +0.000 A 
ATOM     16  C   UNL     1      44.317   7.706  11.308  0.00  0.00    +0.000 A 
ATOM     17  C   UNL     1      44.883   8.880  11.787  0.00  0.00    +0.000 A 
ATOM     18  F   UNL     1      44.365  10.056  11.410  0.00  0.00    +0.000 F 
ATOM     19  C   UNL     1      45.981   8.862  12.645  0.00  0.00    +0.000 A 
ATOM     20  C   UNL     1      46.566   7.650  13.044  0.00  0.00    +0.000 A 
ATOM     21  C   UNL     1      45.984   6.469  12.544  0.00  0.00    +0.000 A 
BRANCH  20  22
ATOM     22  C   UNL     1      47.746   7.610  13.939  0.00  0.00    +0.000 A 
ATOM     23  C   UNL     1      48.456   8.768  14.299  0.00  0.00    +0.000 A 
ATOM     24  C   UNL     1      49.556   8.696  15.155  0.00  0.00    +0.000 A 
ATOM     25  C   UNL     1      49.939   7.456  15.631  0.00  0.00    +0.000 A 
ATOM     26  N   UNL     1      49.301   6.312  15.317  0.00  0.00    +0.000 NA
ATOM     27  C   UNL     1      48.230   6.420  14.491  0.00  0.00    +0.000 A 
ENDBRANCH  20  22
ENDBRANCH   1  15
TORSDOF 4
ENDMDL
MODEL 5
REMARK VINA RESULT:    -7.912      3.194      7.066
REMARK INTER + INTRA:         -10.345
REMARK INTER:                  -9.692
REMARK INTRA:                  -0.653
REMARK UNBOUND:                -0.583
REMARK  Name = 
REMARK  4 active torsions:
REMARK  status: ('A' for Active; 'I' for Inactive)
REMARK    1  A    between atoms: C_2  and  C_4
REMARK    2  A    between atoms: N_8  and  C_9
REMARK    3  A    between atoms: C_9  and  C_10
REMARK    4  A    between atoms: C_15  and  C_16
REMARK                            x       y       z     vdW  Elec       q    Type
REMARK                         _______ _______ _______ _____ _____    ______ ____
ROOT
ATOM      1  C   UNL     1      44.733   6.538  11.087  0.00  0.00    +0.000 C 
ENDROOT
BRANCH   1   6
ATOM      2  C   UNL     1      49.020   7.636  13.223  0.00  0.00    +0.000 A 
ATOM      3  C   UNL     1      48.315   8.157  12.169  0.00  0.00    +0.000 A 
ATOM      4  N   UNL     1      47.040   7.826  11.896  0.00  0.00    +0.000 NA
ATOM      5  C   UNL     1      46.446   6.927  12.698  0.00  0.00    +0.000 A 
ATOM      6  N   UNL     1      45.122   6.593  12.482  0.00  0.00    +0.000 N 
ATOM      7  N   UNL     1      47.057   6.343  13.737  0.00  0.00    +0.000 NA
ATOM      8  C   UNL     1      48.340   6.708  13.978  0.00  0.00    +0.000 A 
ATOM      9  H   UNL     1      44.926   5.754  13.017  0.00  0.00    +0.000 HD
BRANCH   2  11
ATOM     10  N   UNL     1      50.972   7.473  14.653  0.00  0.00    +0.000 N 
ATOM     11  C   UNL     1      50.412   7.995  13.520  0.00  0.00    +0.000 C 
ATOM     12  O   UNL     1      51.052   8.714  12.765  0.00  0.00    +0.000 OA
ATOM     13  H   UNL     1      51.958   7.669  14.798  0.00  0.00    +0.000 HD
ATOM     14  H   UNL     1      50.581   6.698  15.170  0.00  0.00    +0.000 HD
ENDBRANCH   2  11
ENDBRANCH   1   6
BRANCH   1  15
ATOM     15  C   UNL     1      44.578   5.097  10.666  0.00  0.00    +0.000 A 
ATOM     16  C   UNL     1      43.764   4.219  11.381  0.00  0.00    +0.000 A 
ATOM     17  C   UNL     1      43.678   2.892  10.982  0.00  0.00    +0.000 A 
ATOM     18  F   UNL     1      42.902   2.049  11.674  0.00  0.00    +0.000 F 
ATOM     19  C   UNL     1      44.387   2.416   9.879  0.00  0.00    +0.000 A 
ATOM     20  C   UNL     1      45.229   3.263   9.142  0.00  0.00    +0.000 A 
ATOM     21  C   UNL     1      45.310   4.604   9.565  0.00  0.00    +0.000 A 
BRANCH  20  22
ATOM     22  C   UNL     1      46.007   2.771   7.981  0.00  0.00    +0.000 A 
ATOM     23  C   UNL     1      46.251   3.565   6.848  0.00  0.00    +0.000 A 
ATOM     24  C   UNL     1      46.999   3.075   5.777  0.00  0.00    +0.000 A 
ATOM     25  C   UNL     1      47.485   1.783   5.851  0.00  0.00    +0.000 A 
ATOM     26  N   UNL     1      47.280   0.973   6.908  0.00  0.00    +0.000 NA
ATOM     27  C   UNL     1      46.557   1.486   7.935  0.00  0.00    +0.000 A 
ENDBRANCH  20  22
ENDBRANCH   1  15
TORSDOF 4
ENDMDL
MODEL 6
REMARK VINA RESULT:    -7.542      4.869      7.774
REMARK INTER + INTRA:          -9.889
REMARK INTER:                  -9.417
REMARK INTRA:                  -0.472
REMARK UNBOUND:                -0.583
REMARK  Name = 
REMARK  4 active torsions:
REMARK  status: ('A' for Active; 'I' for Inactive)
REMARK    1  A    between atoms: C_2  and  C_4
REMARK    2  A    between atoms: N_8  and  C_9
REMARK    3  A    between atoms: C_9  and  C_10
REMARK    4  A    between atoms: C_15  and  C_16
REMARK                            x       y       z     vdW  Elec       q    Type
REMARK                         _______ _______ _______ _____ _____    ______ ____
ROOT
ATOM      1  C   UNL     1      46.191   5.382  13.868  0.00  0.00    +0.000 C 
ENDROOT
BRANCH   1   6
ATOM      2  C   UNL     1      49.379   3.914  17.308  0.00  0.00    +0.000 A 
ATOM      3  C   UNL     1      48.798   5.116  16.991  0.00  0.00    +0.000 A 
ATOM      4  N   UNL     1      47.773   5.237  16.129  0.00  0.00    +0.000 NA
ATOM      5  C   UNL     1      47.314   4.117  15.547  0.00  0.00    +0.000 A 
ATOM      6  N   UNL     1      46.230   4.190  14.691  0.00  0.00    +0.000 N 
ATOM      7  N   UNL     1      47.828   2.901  15.772  0.00  0.00    +0.000 NA
ATOM      8  C   UNL     1      48.858   2.824  16.649  0.00  0.00    +0.000 A 
ATOM      9  H   UNL     1      46.182   3.313  14.182  0.00  0.00    +0.000 HD
BRANCH   2  11
ATOM     10  N   UNL     1      51.324   2.701  18.098  0.00  0.00    +0.000 N 
ATOM     11  C   UNL     1      50.499   3.782  18.246  0.00  0.00    +0.000 C 
ATOM     12  O   UNL     1      50.701   4.624  19.110  0.00  0.00    +0.000 OA
ATOM     13  H   UNL     1      52.137   2.670  18.705  0.00  0.00    +0.000 HD
ATOM     14  H   UNL     1      51.350   2.121  17.272  0.00  0.00    +0.000 HD
ENDBRANCH   2  11
ENDBRANCH   1   6
BRANCH   1  15
ATOM     15  C   UNL     1      45.259   5.155  12.702  0.00  0.00    +0.000 A 
ATOM     16  C   UNL     1      43.917   5.531  12.765  0.00  0.00    +0.000 A 
ATOM     17  C   UNL     1      43.086   5.271  11.684  0.00  0.00    +0.000 A 
ATOM     18  F   UNL     1      41.797   5.627  11.750  0.00  0.00    +0.000 F 
ATOM     19  C   UNL     1      43.562   4.642  10.535  0.00  0.00    +0.000 A 
ATOM     20  C   UNL     1      44.901   4.232  10.436  0.00  0.00    +0.000 A 
ATOM     21  C   UNL     1      45.729   4.498  11.545  0.00  0.00    +0.000 A 
BRANCH  20  22
ATOM     22  C   UNL     1      45.420   3.544   9.232  0.00  0.00    +0.000 A 
ATOM     23  C   UNL     1      45.853   4.243   8.094  0.00  0.00    +0.000 A 
ATOM     24  C   UNL     1      46.350   3.563   6.981  0.00  0.00    +0.000 A 
ATOM     25  C   UNL     1      46.394   2.182   7.020  0.00  0.00    +0.000 A 
ATOM     26  N   UNL     1      45.988   1.457   8.080  0.00  0.00    +0.000 NA
ATOM     27  C   UNL     1      45.521   2.151   9.148  0.00  0.00    +0.000 A 
ENDBRANCH  20  22
ENDBRANCH   1  15
TORSDOF 4
ENDMDL
MODEL 7
REMARK VINA RESULT:    -7.414      5.405      7.921
REMARK INTER + INTRA:          -9.730
REMARK INTER:                  -9.087
REMARK INTRA:                  -0.643
REMARK UNBOUND:                -0.583
REMARK  Name = 
REMARK  4 active torsions:
REMARK  status: ('A' for Active; 'I' for Inactive)
REMARK    1  A    between atoms: C_2  and  C_4
REMARK    2  A    between atoms: N_8  and  C_9
REMARK    3  A    between atoms: C_9  and  C_10
REMARK    4  A    between atoms: C_15  and  C_16
REMARK                            x       y       z     vdW  Elec       q    Type
REMARK                         _______ _______ _______ _____ _____    ______ ____
ROOT
ATOM      1  C   UNL     1      48.648   6.519  15.825  0.00  0.00    +0.000 C 
ENDROOT
BRANCH   1   6
ATOM      2  C   UNL     1      50.993   2.490  17.382  0.00  0.00    +0.000 A 
ATOM      3  C   UNL     1      51.235   3.836  17.481  0.00  0.00    +0.000 A 
ATOM      4  N   UNL     1      50.327   4.776  17.160  0.00  0.00    +0.000 NA
ATOM      5  C   UNL     1      49.133   4.359  16.709  0.00  0.00    +0.000 A 
ATOM      6  N   UNL     1      48.154   5.289  16.413  0.00  0.00    +0.000 N 
ATOM      7  N   UNL     1      48.809   3.068  16.554  0.00  0.00    +0.000 NA
ATOM      8  C   UNL     1      49.752   2.155  16.891  0.00  0.00    +0.000 A 
ATOM      9  H   UNL     1      47.433   4.816  15.878  0.00  0.00    +0.000 HD
BRANCH   2  11
ATOM     10  N   UNL     1      51.517   0.243  18.129  0.00  0.00    +0.000 N 
ATOM     11  C   UNL     1      51.984   1.465  17.730  0.00  0.00    +0.000 C 
ATOM     12  O   UNL     1      53.183   1.690  17.638  0.00  0.00    +0.000 OA
ATOM     13  H   UNL     1      52.216  -0.475  18.288  0.00  0.00    +0.000 HD
ATOM     14  H   UNL     1      50.566  -0.069  17.991  0.00  0.00    +0.000 HD
ENDBRANCH   2  11
ENDBRANCH   1   6
BRANCH   1  15
ATOM     15  C   UNL     1      48.210   6.596  14.382  0.00  0.00    +0.000 A 
ATOM     16  C   UNL     1      48.818   7.478  13.489  0.00  0.00    +0.000 A 
ATOM     17  C   UNL     1      48.359   7.544  12.181  0.00  0.00    +0.000 A 
ATOM     18  F   UNL     1      48.940   8.396  11.326  0.00  0.00    +0.000 F 
ATOM     19  C   UNL     1      47.305   6.747  11.737  0.00  0.00    +0.000 A 
ATOM     20  C   UNL     1      46.655   5.859  12.608  0.00  0.00    +0.000 A 
ATOM     21  C   UNL     1      47.128   5.809  13.934  0.00  0.00    +0.000 A 
BRANCH  20  22
ATOM     22  C   UNL     1      45.519   5.020  12.162  0.00  0.00    +0.000 A 
ATOM     23  C   UNL     1      44.878   5.216  10.928  0.00  0.00    +0.000 A 
ATOM     24  C   UNL     1      43.818   4.398  10.532  0.00  0.00    +0.000 A 
ATOM     25  C   UNL     1      43.405   3.396  11.391  0.00  0.00    +0.000 A 
ATOM     26  N   UNL     1      43.977   3.164  12.589  0.00  0.00    +0.000 NA
ATOM     27  C   UNL     1      45.010   3.971  12.936  0.00  0.00    +0.000 A 
ENDBRANCH  20  22
ENDBRANCH   1  15
TORSDOF 4
ENDMDL
MODEL 8
REMARK VINA RESULT:    -6.918      5.068      8.073
REMARK INTER + INTRA:          -9.118
REMARK INTER:                  -8.646
REMARK INTRA:                  -0.473
REMARK UNBOUND:                -0.583
REMARK  Name = 
REMARK  4 active torsions:
REMARK  status: ('A' for Active; 'I' for Inactive)
REMARK    1  A    between atoms: C_2  and  C_4
REMARK    2  A    between atoms: N_8  and  C_9
REMARK    3  A    between atoms: C_9  and  C_10
REMARK    4  A    between atoms: C_15  and  C_16
REMARK                            x       y       z     vdW  Elec       q    Type
REMARK                         _______ _______ _______ _____ _____    ______ ____
ROOT
ATOM      1  C   UNL     1      48.344   6.979  14.248  0.00  0.00    +0.000 C 
ENDROOT
BRANCH   1   6
ATOM      2  C   UNL     1      50.798   4.392  17.630  0.00  0.00    +0.000 A 
ATOM      3  C   UNL     1      51.006   5.598  17.011  0.00  0.00    +0.000 A 
ATOM      4  N   UNL     1      50.073   6.217  16.264  0.00  0.00    +0.000 NA
ATOM      5  C   UNL     1      48.888   5.603  16.116  0.00  0.00    +0.000 A 
ATOM      6  N   UNL     1      47.884   6.225  15.397  0.00  0.00    +0.000 N 
ATOM      7  N   UNL     1      48.596   4.414  16.660  0.00  0.00    +0.000 NA
ATOM      8  C   UNL     1      49.563   3.827  17.406  0.00  0.00    +0.000 A 
ATOM      9  H   UNL     1      47.173   5.530  15.199  0.00  0.00    +0.000 HD
BRANCH   2  11
ATOM     10  N   UNL     1      51.935   4.095  19.750  0.00  0.00    +0.000 N 
ATOM     11  C   UNL     1      51.816   3.716  18.442  0.00  0.00    +0.000 C 
ATOM     12  O   UNL     1      52.512   2.828  17.969  0.00  0.00    +0.000 OA
ATOM     13  H   UNL     1      52.589   3.561  20.314  0.00  0.00    +0.000 HD
ATOM     14  H   UNL     1      51.240   4.634  20.246  0.00  0.00    +0.000 HD
ENDBRANCH   2  11
ENDBRANCH   1   6
BRANCH   1  15
ATOM     15  C   UNL     1      47.194   7.187  13.292  0.00  0.00    +0.000 A 
ATOM     16  C   UNL     1      46.478   8.384  13.273  0.00  0.00    +0.000 A 
ATOM     17  C   UNL     1      45.404   8.519  12.404  0.00  0.00    +0.000 A 
ATOM     18  F   UNL     1      44.713   9.667  12.392  0.00  0.00    +0.000 F 
ATOM     19  C   UNL     1      45.025   7.487  11.547  0.00  0.00    +0.000 A 
ATOM     20  C   UNL     1      45.709   6.261  11.545  0.00  0.00    +0.000 A 
ATOM     21  C   UNL     1      46.792   6.138  12.439  0.00  0.00    +0.000 A 
BRANCH  20  22
ATOM     22  C   UNL     1      45.309   5.145  10.658  0.00  0.00    +0.000 A 
ATOM     23  C   UNL     1      45.631   5.118   9.291  0.00  0.00    +0.000 A 
ATOM     24  C   UNL     1      45.250   4.043   8.487  0.00  0.00    +0.000 A 
ATOM     25  C   UNL     1      44.535   3.011   9.064  0.00  0.00    +0.000 A 
ATOM     26  N   UNL     1      44.193   2.983  10.367  0.00  0.00    +0.000 NA
ATOM     27  C   UNL     1      44.588   4.039  11.122  0.00  0.00    +0.000 A 
ENDBRANCH  20  22
ENDBRANCH   1  15
TORSDOF 4
ENDMDL
MODEL 9
REMARK VINA RESULT:    -6.720      3.379      6.999
REMARK INTER + INTRA:          -8.875
REMARK INTER:                  -8.246
REMARK INTRA:                  -0.629
REMARK UNBOUND:                -0.583
REMARK  Name = 
REMARK  4 active torsions:
REMARK  status: ('A' for Active; 'I' for Inactive)
REMARK    1  A    between atoms: C_2  and  C_4
REMARK    2  A    between atoms: N_8  and  C_9
REMARK    3  A    between atoms: C_9  and  C_10
REMARK    4  A    between atoms: C_15  and  C_16
REMARK                            x       y       z     vdW  Elec       q    Type
REMARK                         _______ _______ _______ _____ _____    ______ ____
ROOT
ATOM      1  C   UNL     1      46.118   7.057  12.883  0.00  0.00    +0.000 C 
ENDROOT
BRANCH   1   6
ATOM      2  C   UNL     1      50.601   8.705  11.727  0.00  0.00    +0.000 A 
ATOM      3  C   UNL     1      50.012   7.466  11.747  0.00  0.00    +0.000 A 
ATOM      4  N   UNL     1      48.688   7.279  11.893  0.00  0.00    +0.000 NA
ATOM      5  C   UNL     1      47.919   8.370  12.038  0.00  0.00    +0.000 A 
ATOM      6  N   UNL     1      46.547   8.227  12.143  0.00  0.00    +0.000 N 
ATOM      7  N   UNL     1      48.400   9.619  12.057  0.00  0.00    +0.000 NA
ATOM      8  C   UNL     1      49.740   9.763  11.904  0.00  0.00    +0.000 A 
ATOM      9  H   UNL     1      46.171   9.108  12.476  0.00  0.00    +0.000 HD
BRANCH   2  11
ATOM     10  N   UNL     1      52.838   7.795  11.503  0.00  0.00    +0.000 N 
ATOM     11  C   UNL     1      52.046   8.909  11.571  0.00  0.00    +0.000 C 
ATOM     12  O   UNL     1      52.517  10.033  11.479  0.00  0.00    +0.000 OA
ATOM     13  H   UNL     1      53.822   7.956  11.315  0.00  0.00    +0.000 HD
ATOM     14  H   UNL     1      52.487   6.864  11.331  0.00  0.00    +0.000 HD
ENDBRANCH   2  11
ENDBRANCH   1   6
BRANCH   1  15
ATOM     15  C   UNL     1      45.180   6.239  12.028  0.00  0.00    +0.000 A 
ATOM     16  C   UNL     1      43.801   6.271  12.232  0.00  0.00    +0.000 A 
ATOM     17  C   UNL     1      42.979   5.475  11.448  0.00  0.00    +0.000 A 
ATOM     18  F   UNL     1      41.655   5.502  11.651  0.00  0.00    +0.000 F 
ATOM     19  C   UNL     1      43.499   4.644  10.457  0.00  0.00    +0.000 A 
ATOM     20  C   UNL     1      44.882   4.569  10.229  0.00  0.00    +0.000 A 
ATOM     21  C   UNL     1      45.703   5.379  11.039  0.00  0.00    +0.000 A 
BRANCH  20  22
ATOM     22  C   UNL     1      45.456   3.677   9.195  0.00  0.00    +0.000 A 
ATOM     23  C   UNL     1      46.067   4.170   8.031  0.00  0.00    +0.000 A 
ATOM     24  C   UNL     1      46.610   3.300   7.084  0.00  0.00    +0.000 A 
ATOM     25  C   UNL     1      46.520   1.940   7.312  0.00  0.00    +0.000 A 
ATOM     26  N   UNL     1      45.942   1.408   8.407  0.00  0.00    +0.000 NA
ATOM     27  C   UNL     1      45.434   2.283   9.311  0.00  0.00    +0.000 A 
ENDBRANCH  20  22
ENDBRANCH   1  15
TORSDOF 4
ENDMDL
