MODEL 1
REMARK VINA RESULT:    -9.157      0.000      0.000
REMARK INTER + INTRA:         -14.109
REMARK INTER:                 -12.905
REMARK INTRA:                  -1.204
REMARK UNBOUND:                -1.204
REMARK  Name = 
REMARK  7 active torsions:
REMARK  status: ('A' for Active; 'I' for Inactive)
REMARK    1  A    between atoms: C_2  and  C_4
REMARK    2  A    between atoms: C_7  and  N_8
REMARK    3  A    between atoms: N_8  and  C_9
REMARK    4  A    between atoms: C_9  and  C_10
REMARK    5  A    between atoms: C_10  and  C_13
REMARK    6  A    between atoms: C_18  and  O_19
REMARK    7  A    between atoms: O_19  and  C_20
REMARK                            x       y       z     vdW  Elec       q    Type
REMARK                         _______ _______ _______ _____ _____    ______ ____
ROOT
ATOM      1  C   UNL     1      43.804   4.691  12.493  0.00  0.00    +0.000 C 
ATOM      2  F   UNL     1      42.900   5.490  13.136  0.00  0.00    +0.000 F 
ATOM      3  F   UNL     1      43.652   3.454  13.060  0.00  0.00    +0.000 F 
ENDROOT
BRANCH   1   4
ATOM      4  C   UNL     1      45.220   5.218  12.649  0.00  0.00    +0.000 A 
ATOM      5  C   UNL     1      45.778   6.070  11.686  0.00  0.00    +0.000 A 
ATOM      6  C   UNL     1      47.074   6.567  11.849  0.00  0.00    +0.000 A 
ATOM      7  C   UNL     1      47.821   6.213  12.970  0.00  0.00    +0.000 A 
ATOM      8  F   UNL     1      49.047   6.738  13.100  0.00  0.00    +0.000 F 
ATOM      9  C   UNL     1      47.291   5.355  13.934  0.00  0.00    +0.000 A 
ATOM     10  C   UNL     1      45.991   4.865  13.770  0.00  0.00    +0.000 A 
BRANCH   9  11
ATOM     11  O   UNL     1      47.905   4.962  15.096  0.00  0.00    +0.000 OA
BRANCH  11  12
ATOM     12  C   UNL     1      47.265   3.995  15.955  0.00  0.00    +0.000 C 
ATOM     13  C   UNL     1      47.148   4.358  17.455  0.00  0.00    +0.000 C 
ATOM     14  C   UNL     1      47.747   2.994  17.819  0.00  0.00    +0.000 C 
ATOM     15  C   UNL     1      48.193   2.827  16.364  0.00  0.00    +0.000 C 
ENDBRANCH  11  12
ENDBRANCH   9  11
ENDBRANCH   1   4
BRANCH   1  16
ATOM     16  C   UNL     1      43.404   4.583  10.998  0.00  0.00    +0.000 C 
BRANCH  16  17
ATOM     17  N   UNL     1      43.731   3.271  10.416  0.00  0.00    +0.000 N 
ATOM     18  H   UNL     1      43.643   2.486  11.061  0.00  0.00    +0.000 HD
BRANCH  17  22
ATOM     19  C   UNL     1      46.586   2.634   7.380  0.00  0.00    +0.000 A 
ATOM     20  C   UNL     1      46.120   3.927   7.624  0.00  0.00    +0.000 A 
ATOM     21  C   UNL     1      45.187   4.157   8.645  0.00  0.00    +0.000 A 
ATOM     22  C   UNL     1      44.726   3.116   9.458  0.00  0.00    +0.000 A 
ATOM     23  C   UNL     1      45.192   1.821   9.186  0.00  0.00    +0.000 A 
ATOM     24  C   UNL     1      46.109   1.577   8.155  0.00  0.00    +0.000 A 
BRANCH  19  26
ATOM     25  N   UNL     1      47.527   3.179   5.200  0.00  0.00    +0.000 N 
ATOM     26  C   UNL     1      47.542   2.342   6.281  0.00  0.00    +0.000 C 
ATOM     27  O   UNL     1      48.337   1.413   6.347  0.00  0.00    +0.000 OA
ATOM     28  H   UNL     1      48.254   3.030   4.511  0.00  0.00    +0.000 HD
ATOM     29  H   UNL     1      47.083   4.085   5.225  0.00  0.00    +0.000 HD
ENDBRANCH  19  26
ENDBRANCH  17  22
ENDBRANCH  16  17
ENDBRANCH   1  16
TORSDOF 7
ENDMDL
MODEL 2
REMARK VINA RESULT:    -8.328      2.057      3.885
REMARK INTER + INTRA:         -12.939
REMARK INTER:                 -11.964
REMARK INTRA:                  -0.976
REMARK UNBOUND:                -1.204
REMARK  Name = 
REMARK  7 active torsions:
REMARK  status: ('A' for Active; 'I' for Inactive)
REMARK    1  A    between atoms: C_2  and  C_4
REMARK    2  A    between atoms: C_7  and  N_8
REMARK    3  A    between atoms: N_8  and  C_9
REMARK    4  A    between atoms: C_9  and  C_10
REMARK    5  A    between atoms: C_10  and  C_13
REMARK    6  A    between atoms: C_18  and  O_19
REMARK    7  A    between atoms: O_19  and  C_20
REMARK                            x       y       z     vdW  Elec       q    Type
REMARK                         _______ _______ _______ _____ _____    ______ ____
ROOT
ATOM      1  C   UNL     1      43.447   4.539  12.474  0.00  0.00    +0.000 C 
ATOM      2  F   UNL     1      42.469   5.102  13.246  0.00  0.00    +0.000 F 
ATOM      3  F   UNL     1      43.418   3.205  12.780  0.00  0.00    +0.000 F 
ENDROOT
BRANCH   1   4
ATOM      4  C   UNL     1      44.804   5.159  12.758  0.00  0.00    +0.000 A 
ATOM      5  C   UNL     1      45.942   4.356  12.911  0.00  0.00    +0.000 A 
ATOM      6  C   UNL     1      47.190   4.937  13.152  0.00  0.00    +0.000 A 
ATOM      7  C   UNL     1      47.308   6.323  13.245  0.00  0.00    +0.000 A 
ATOM      8  F   UNL     1      48.530   6.836  13.445  0.00  0.00    +0.000 F 
ATOM      9  C   UNL     1      46.187   7.140  13.110  0.00  0.00    +0.000 A 
ATOM     10  C   UNL     1      44.941   6.554  12.863  0.00  0.00    +0.000 A 
BRANCH   9  11
ATOM     11  O   UNL     1      46.175   8.512  13.142  0.00  0.00    +0.000 OA
BRANCH  11  12
ATOM     12  C   UNL     1      45.913   9.256  11.933  0.00  0.00    +0.000 C 
ATOM     13  C   UNL     1      46.703  10.571  11.734  0.00  0.00    +0.000 C 
ATOM     14  C   UNL     1      45.388  11.302  11.436  0.00  0.00    +0.000 C 
ATOM     15  C   UNL     1      44.620  10.104  12.002  0.00  0.00    +0.000 C 
ENDBRANCH  11  12
ENDBRANCH   9  11
ENDBRANCH   1   4
BRANCH   1  16
ATOM     16  C   UNL     1      43.058   4.694  10.980  0.00  0.00    +0.000 C 
BRANCH  16  17
ATOM     17  N   UNL     1      44.201   5.075  10.133  0.00  0.00    +0.000 N 
ATOM     18  H   UNL     1      44.146   6.015   9.744  0.00  0.00    +0.000 HD
BRANCH  17  22
ATOM     19  C   UNL     1      46.422   2.387   7.763  0.00  0.00    +0.000 A 
ATOM     20  C   UNL     1      45.523   1.888   8.709  0.00  0.00    +0.000 A 
ATOM     21  C   UNL     1      44.762   2.770   9.488  0.00  0.00    +0.000 A 
ATOM     22  C   UNL     1      44.857   4.156   9.322  0.00  0.00    +0.000 A 
ATOM     23  C   UNL     1      45.778   4.638   8.380  0.00  0.00    +0.000 A 
ATOM     24  C   UNL     1      46.558   3.766   7.609  0.00  0.00    +0.000 A 
BRANCH  19  26
ATOM     25  N   UNL     1      48.348   2.049   6.311  0.00  0.00    +0.000 N 
ATOM     26  C   UNL     1      47.277   1.487   6.947  0.00  0.00    +0.000 C 
ATOM     27  O   UNL     1      47.058   0.285   6.868  0.00  0.00    +0.000 OA
ATOM     28  H   UNL     1      48.979   1.407   5.847  0.00  0.00    +0.000 HD
ATOM     29  H   UNL     1      48.705   2.961   6.558  0.00  0.00    +0.000 HD
ENDBRANCH  19  26
ENDBRANCH  17  22
ENDBRANCH  16  17
ENDBRANCH   1  16
TORSDOF 7
ENDMDL
MODEL 3
REMARK VINA RESULT:    -8.114      1.921      3.615
REMARK INTER + INTRA:         -12.639
REMARK INTER:                 -11.540
REMARK INTRA:                  -1.099
REMARK UNBOUND:                -1.204
REMARK  Name = 
REMARK  7 active torsions:
REMARK  status: ('A' for Active; 'I' for Inactive)
REMARK    1  A    between atoms: C_2  and  C_4
REMARK    2  A    between atoms: C_7  and  N_8
REMARK    3  A    between atoms: N_8  and  C_9
REMARK    4  A    between atoms: C_9  and  C_10
REMARK    5  A    between atoms: C_10  and  C_13
REMARK    6  A    between atoms: C_18  and  O_19
REMARK    7  A    between atoms: O_19  and  C_20
REMARK                            x       y       z     vdW  Elec       q    Type
REMARK                         _______ _______ _______ _____ _____    ______ ____
ROOT
ATOM      1  C   UNL     1      43.466   5.280  12.370  0.00  0.00    +0.000 C 
ATOM      2  F   UNL     1      42.871   6.344  11.751  0.00  0.00    +0.000 F 
ATOM      3  F   UNL     1      42.693   5.031  13.472  0.00  0.00    +0.000 F 
ENDROOT
BRANCH   1   4
ATOM      4  C   UNL     1      44.905   5.588  12.743  0.00  0.00    +0.000 A 
ATOM      5  C   UNL     1      45.609   4.764  13.632  0.00  0.00    +0.000 A 
ATOM      6  C   UNL     1      46.940   5.045  13.953  0.00  0.00    +0.000 A 
ATOM      7  C   UNL     1      47.575   6.151  13.392  0.00  0.00    +0.000 A 
ATOM      8  F   UNL     1      48.860   6.362  13.705  0.00  0.00    +0.000 F 
ATOM      9  C   UNL     1      46.890   6.992  12.516  0.00  0.00    +0.000 A 
ATOM     10  C   UNL     1      45.560   6.704  12.193  0.00  0.00    +0.000 A 
BRANCH   9  11
ATOM     11  O   UNL     1      47.409   8.086  11.870  0.00  0.00    +0.000 OA
BRANCH  11  12
ATOM     12  C   UNL     1      47.248   9.402  12.442  0.00  0.00    +0.000 C 
ATOM     13  C   UNL     1      47.865  10.586  11.661  0.00  0.00    +0.000 C 
ATOM     14  C   UNL     1      48.551  11.060  12.948  0.00  0.00    +0.000 C 
ATOM     15  C   UNL     1      48.246   9.702  13.585  0.00  0.00    +0.000 C 
ENDBRANCH  11  12
ENDBRANCH   9  11
ENDBRANCH   1   4
BRANCH   1  16
ATOM     16  C   UNL     1      43.379   4.044  11.437  0.00  0.00    +0.000 C 
BRANCH  16  17
ATOM     17  N   UNL     1      43.581   4.387  10.019  0.00  0.00    +0.000 N 
ATOM     18  H   UNL     1      42.738   4.686   9.531  0.00  0.00    +0.000 HD
BRANCH  17  22
ATOM     19  C   UNL     1      46.560   2.483   7.724  0.00  0.00    +0.000 A 
ATOM     20  C   UNL     1      45.700   1.712   8.508  0.00  0.00    +0.000 A 
ATOM     21  C   UNL     1      44.690   2.330   9.259  0.00  0.00    +0.000 A 
ATOM     22  C   UNL     1      44.499   3.715   9.221  0.00  0.00    +0.000 A 
ATOM     23  C   UNL     1      45.385   4.474   8.442  0.00  0.00    +0.000 A 
ATOM     24  C   UNL     1      46.410   3.869   7.703  0.00  0.00    +0.000 A 
BRANCH  19  26
ATOM     25  N   UNL     1      48.483   2.716   6.246  0.00  0.00    +0.000 N 
ATOM     26  C   UNL     1      47.669   1.871   6.947  0.00  0.00    +0.000 C 
ATOM     27  O   UNL     1      47.872   0.663   6.954  0.00  0.00    +0.000 OA
ATOM     28  H   UNL     1      49.293   2.295   5.809  0.00  0.00    +0.000 HD
ATOM     29  H   UNL     1      48.508   3.710   6.422  0.00  0.00    +0.000 HD
ENDBRANCH  19  26
ENDBRANCH  17  22
ENDBRANCH  16  17
ENDBRANCH   1  16
TORSDOF 7
ENDMDL
MODEL 4
REMARK VINA RESULT:    -8.111      1.606      2.087
REMARK INTER + INTRA:         -12.634
REMARK INTER:                 -11.992
REMARK INTRA:                  -0.642
REMARK UNBOUND:                -1.204
REMARK  Name = 
REMARK  7 active torsions:
REMARK  status: ('A' for Active; 'I' for Inactive)
REMARK    1  A    between atoms: C_2  and  C_4
REMARK    2  A    between atoms: C_7  and  N_8
REMARK    3  A    between atoms: N_8  and  C_9
REMARK    4  A    between atoms: C_9  and  C_10
REMARK    5  A    between atoms: C_10  and  C_13
REMARK    6  A    between atoms: C_18  and  O_19
REMARK    7  A    between atoms: O_19  and  C_20
REMARK                            x       y       z     vdW  Elec       q    Type
REMARK                         _______ _______ _______ _____ _____    ______ ____
ROOT
ATOM      1  C   UNL     1      43.687   4.660  12.496  0.00  0.00    +0.000 C 
ATOM      2  F   UNL     1      42.692   4.891  13.405  0.00  0.00    +0.000 F 
ATOM      3  F   UNL     1      44.170   3.417  12.807  0.00  0.00    +0.000 F 
ENDROOT
BRANCH   1   4
ATOM      4  C   UNL     1      44.767   5.724  12.572  0.00  0.00    +0.000 A 
ATOM      5  C   UNL     1      44.548   7.007  12.053  0.00  0.00    +0.000 A 
ATOM      6  C   UNL     1      45.540   7.987  12.146  0.00  0.00    +0.000 A 
ATOM      7  C   UNL     1      46.758   7.691  12.754  0.00  0.00    +0.000 A 
ATOM      8  F   UNL     1      47.667   8.671  12.849  0.00  0.00    +0.000 F 
ATOM      9  C   UNL     1      47.003   6.417  13.266  0.00  0.00    +0.000 A 
ATOM     10  C   UNL     1      46.005   5.442  13.176  0.00  0.00    +0.000 A 
BRANCH   9  11
ATOM     11  O   UNL     1      48.139   6.011  13.920  0.00  0.00    +0.000 OA
BRANCH  11  12
ATOM     12  C   UNL     1      48.530   6.658  15.149  0.00  0.00    +0.000 C 
ATOM     13  C   UNL     1      50.028   7.013  15.310  0.00  0.00    +0.000 C 
ATOM     14  C   UNL     1      50.030   6.332  16.683  0.00  0.00    +0.000 C 
ATOM     15  C   UNL     1      48.689   5.679  16.336  0.00  0.00    +0.000 C 
ENDBRANCH  11  12
ENDBRANCH   9  11
ENDBRANCH   1   4
BRANCH   1  16
ATOM     16  C   UNL     1      43.064   4.589  11.077  0.00  0.00    +0.000 C 
BRANCH  16  17
ATOM     17  N   UNL     1      44.006   4.997  10.022  0.00  0.00    +0.000 N 
ATOM     18  H   UNL     1      43.736   5.839   9.515  0.00  0.00    +0.000 HD
BRANCH  17  22
ATOM     19  C   UNL     1      46.370   2.295   7.814  0.00  0.00    +0.000 A 
ATOM     20  C   UNL     1      45.459   1.804   8.750  0.00  0.00    +0.000 A 
ATOM     21  C   UNL     1      44.651   2.689   9.475  0.00  0.00    +0.000 A 
ATOM     22  C   UNL     1      44.711   4.071   9.264  0.00  0.00    +0.000 A 
ATOM     23  C   UNL     1      45.646   4.547   8.332  0.00  0.00    +0.000 A 
ATOM     24  C   UNL     1      46.472   3.672   7.615  0.00  0.00    +0.000 A 
BRANCH  19  26
ATOM     25  N   UNL     1      48.312   1.972   6.378  0.00  0.00    +0.000 N 
ATOM     26  C   UNL     1      47.274   1.393   7.054  0.00  0.00    +0.000 C 
ATOM     27  O   UNL     1      47.124   0.178   7.056  0.00  0.00    +0.000 OA
ATOM     28  H   UNL     1      48.977   1.337   5.954  0.00  0.00    +0.000 HD
ATOM     29  H   UNL     1      48.616   2.916   6.562  0.00  0.00    +0.000 HD
ENDBRANCH  19  26
ENDBRANCH  17  22
ENDBRANCH  16  17
ENDBRANCH   1  16
TORSDOF 7
ENDMDL
MODEL 5
REMARK VINA RESULT:    -7.928      2.488      3.134
REMARK INTER + INTRA:         -12.377
REMARK INTER:                 -11.734
REMARK INTRA:                  -0.642
REMARK UNBOUND:                -1.204
REMARK  Name = 
REMARK  7 active torsions:
REMARK  status: ('A' for Active; 'I' for Inactive)
REMARK    1  A    between atoms: C_2  and  C_4
REMARK    2  A    between atoms: C_7  and  N_8
REMARK    3  A    between atoms: N_8  and  C_9
REMARK    4  A    between atoms: C_9  and  C_10
REMARK    5  A    between atoms: C_10  and  C_13
REMARK    6  A    between atoms: C_18  and  O_19
REMARK    7  A    between atoms: O_19  and  C_20
REMARK                            x       y       z     vdW  Elec       q    Type
REMARK                         _______ _______ _______ _____ _____    ______ ____
ROOT
ATOM      1  C   UNL     1      44.089   4.540  12.427  0.00  0.00    +0.000 C 
ATOM      2  F   UNL     1      43.354   4.421  13.574  0.00  0.00    +0.000 F 
ATOM      3  F   UNL     1      45.034   3.553  12.507  0.00  0.00    +0.000 F 
ENDROOT
BRANCH   1   4
ATOM      4  C   UNL     1      44.715   5.919  12.309  0.00  0.00    +0.000 A 
ATOM      5  C   UNL     1      44.074   6.939  11.594  0.00  0.00    +0.000 A 
ATOM      6  C   UNL     1      44.648   8.210  11.508  0.00  0.00    +0.000 A 
ATOM      7  C   UNL     1      45.866   8.470  12.133  0.00  0.00    +0.000 A 
ATOM      8  F   UNL     1      46.361   9.712  12.051  0.00  0.00    +0.000 F 
ATOM      9  C   UNL     1      46.528   7.466  12.840  0.00  0.00    +0.000 A 
ATOM     10  C   UNL     1      45.947   6.197  12.927  0.00  0.00    +0.000 A 
BRANCH   9  11
ATOM     11  O   UNL     1      47.706   7.602  13.528  0.00  0.00    +0.000 OA
BRANCH  11  12
ATOM     12  C   UNL     1      48.945   7.174  12.923  0.00  0.00    +0.000 C 
ATOM     13  C   UNL     1      50.219   7.970  13.293  0.00  0.00    +0.000 C 
ATOM     14  C   UNL     1      50.548   8.113  11.802  0.00  0.00    +0.000 C 
ATOM     15  C   UNL     1      49.121   7.669  11.468  0.00  0.00    +0.000 C 
ENDBRANCH  11  12
ENDBRANCH   9  11
ENDBRANCH   1   4
BRANCH   1  16
ATOM     16  C   UNL     1      43.176   4.229  11.212  0.00  0.00    +0.000 C 
BRANCH  16  17
ATOM     17  N   UNL     1      43.751   4.692   9.937  0.00  0.00    +0.000 N 
ATOM     18  H   UNL     1      43.100   5.197   9.337  0.00  0.00    +0.000 HD
BRANCH  17  22
ATOM     19  C   UNL     1      46.470   2.339   7.737  0.00  0.00    +0.000 A 
ATOM     20  C   UNL     1      46.504   3.729   7.609  0.00  0.00    +0.000 A 
ATOM     21  C   UNL     1      45.621   4.525   8.351  0.00  0.00    +0.000 A 
ATOM     22  C   UNL     1      44.713   3.960   9.253  0.00  0.00    +0.000 A 
ATOM     23  C   UNL     1      44.681   2.561   9.354  0.00  0.00    +0.000 A 
ATOM     24  C   UNL     1      45.546   1.754   8.603  0.00  0.00    +0.000 A 
BRANCH  19  26
ATOM     25  N   UNL     1      48.393   2.053   6.270  0.00  0.00    +0.000 N 
ATOM     26  C   UNL     1      47.360   1.458   6.938  0.00  0.00    +0.000 C 
ATOM     27  O   UNL     1      47.202   0.245   6.900  0.00  0.00    +0.000 OA
ATOM     28  H   UNL     1      49.050   1.430   5.818  0.00  0.00    +0.000 HD
ATOM     29  H   UNL     1      48.705   2.989   6.483  0.00  0.00    +0.000 HD
ENDBRANCH  19  26
ENDBRANCH  17  22
ENDBRANCH  16  17
ENDBRANCH   1  16
TORSDOF 7
ENDMDL
MODEL 6
REMARK VINA RESULT:    -7.826      2.734      4.659
REMARK INTER + INTRA:         -12.233
REMARK INTER:                 -10.924
REMARK INTRA:                  -1.309
REMARK UNBOUND:                -1.204
REMARK  Name = 
REMARK  7 active torsions:
REMARK  status: ('A' for Active; 'I' for Inactive)
REMARK    1  A    between atoms: C_2  and  C_4
REMARK    2  A    between atoms: C_7  and  N_8
REMARK    3  A    between atoms: N_8  and  C_9
REMARK    4  A    between atoms: C_9  and  C_10
REMARK    5  A    between atoms: C_10  and  C_13
REMARK    6  A    between atoms: C_18  and  O_19
REMARK    7  A    between atoms: O_19  and  C_20
REMARK                            x       y       z     vdW  Elec       q    Type
REMARK                         _______ _______ _______ _____ _____    ______ ____
ROOT
ATOM      1  C   UNL     1      43.506   4.740  12.255  0.00  0.00    +0.000 C 
ATOM      2  F   UNL     1      42.501   4.982  11.359  0.00  0.00    +0.000 F 
ATOM      3  F   UNL     1      42.894   4.722  13.479  0.00  0.00    +0.000 F 
ENDROOT
BRANCH   1   4
ATOM      4  C   UNL     1      44.588   5.802  12.176  0.00  0.00    +0.000 A 
ATOM      5  C   UNL     1      45.941   5.459  12.306  0.00  0.00    +0.000 A 
ATOM      6  C   UNL     1      46.931   6.440  12.211  0.00  0.00    +0.000 A 
ATOM      7  C   UNL     1      46.577   7.770  11.988  0.00  0.00    +0.000 A 
ATOM      8  F   UNL     1      47.563   8.670  11.872  0.00  0.00    +0.000 F 
ATOM      9  C   UNL     1      45.237   8.136  11.869  0.00  0.00    +0.000 A 
ATOM     10  C   UNL     1      44.250   7.149  11.959  0.00  0.00    +0.000 A 
BRANCH   9  11
ATOM     11  O   UNL     1      44.761   9.396  11.612  0.00  0.00    +0.000 OA
BRANCH  11  12
ATOM     12  C   UNL     1      43.772   9.594  10.579  0.00  0.00    +0.000 C 
ATOM     13  C   UNL     1      44.050  10.713   9.547  0.00  0.00    +0.000 C 
ATOM     14  C   UNL     1      42.643  11.271   9.791  0.00  0.00    +0.000 C 
ATOM     15  C   UNL     1      42.544  10.407  11.051  0.00  0.00    +0.000 C 
ENDBRANCH  11  12
ENDBRANCH   9  11
ENDBRANCH   1   4
BRANCH   1  16
ATOM     16  C   UNL     1      44.084   3.325  11.990  0.00  0.00    +0.000 C 
BRANCH  16  17
ATOM     17  N   UNL     1      43.777   2.831  10.637  0.00  0.00    +0.000 N 
ATOM     18  H   UNL     1      43.166   2.016  10.611  0.00  0.00    +0.000 HD
BRANCH  17  22
ATOM     19  C   UNL     1      46.434   2.832   7.364  0.00  0.00    +0.000 A 
ATOM     20  C   UNL     1      45.890   4.039   7.807  0.00  0.00    +0.000 A 
ATOM     21  C   UNL     1      45.023   4.056   8.908  0.00  0.00    +0.000 A 
ATOM     22  C   UNL     1      44.706   2.885   9.604  0.00  0.00    +0.000 A 
ATOM     23  C   UNL     1      45.248   1.680   9.133  0.00  0.00    +0.000 A 
ATOM     24  C   UNL     1      46.100   1.648   8.022  0.00  0.00    +0.000 A 
BRANCH  19  26
ATOM     25  N   UNL     1      48.650   2.518   6.401  0.00  0.00    +0.000 N 
ATOM     26  C   UNL     1      47.324   2.765   6.176  0.00  0.00    +0.000 C 
ATOM     27  O   UNL     1      46.891   2.891   5.038  0.00  0.00    +0.000 OA
ATOM     28  H   UNL     1      49.221   2.371   5.579  0.00  0.00    +0.000 HD
ATOM     29  H   UNL     1      48.990   2.156   7.280  0.00  0.00    +0.000 HD
ENDBRANCH  19  26
ENDBRANCH  17  22
ENDBRANCH  16  17
ENDBRANCH   1  16
TORSDOF 7
ENDMDL
MODEL 7
REMARK VINA RESULT:    -7.726      2.982      8.011
REMARK INTER + INTRA:         -12.091
REMARK INTER:                 -11.097
REMARK INTRA:                  -0.994
REMARK UNBOUND:                -1.204
REMARK  Name = 
REMARK  7 active torsions:
REMARK  status: ('A' for Active; 'I' for Inactive)
REMARK    1  A    between atoms: C_2  and  C_4
REMARK    2  A    between atoms: C_7  and  N_8
REMARK    3  A    between atoms: N_8  and  C_9
REMARK    4  A    between atoms: C_9  and  C_10
REMARK    5  A    between atoms: C_10  and  C_13
REMARK    6  A    between atoms: C_18  and  O_19
REMARK    7  A    between atoms: O_19  and  C_20
REMARK                            x       y       z     vdW  Elec       q    Type
REMARK                         _______ _______ _______ _____ _____    ______ ____
ROOT
ATOM      1  C   UNL     1      45.741   6.409  11.499  0.00  0.00    +0.000 C 
ATOM      2  F   UNL     1      44.966   7.464  11.103  0.00  0.00    +0.000 F 
ATOM      3  F   UNL     1      47.023   6.772  11.185  0.00  0.00    +0.000 F 
ENDROOT
BRANCH   1   4
ATOM      4  C   UNL     1      45.327   5.124  10.806  0.00  0.00    +0.000 A 
ATOM      5  C   UNL     1      44.714   4.087  11.522  0.00  0.00    +0.000 A 
ATOM      6  C   UNL     1      44.317   2.916  10.871  0.00  0.00    +0.000 A 
ATOM      7  C   UNL     1      44.533   2.771   9.502  0.00  0.00    +0.000 A 
ATOM      8  F   UNL     1      44.108   1.645   8.915  0.00  0.00    +0.000 F 
ATOM      9  C   UNL     1      45.154   3.785   8.772  0.00  0.00    +0.000 A 
ATOM     10  C   UNL     1      45.544   4.957   9.427  0.00  0.00    +0.000 A 
BRANCH   9  11
ATOM     11  O   UNL     1      45.389   3.782   7.420  0.00  0.00    +0.000 OA
BRANCH  11  12
ATOM     12  C   UNL     1      46.718   3.519   6.923  0.00  0.00    +0.000 C 
ATOM     13  C   UNL     1      46.838   3.060   5.450  0.00  0.00    +0.000 C 
ATOM     14  C   UNL     1      47.714   1.884   5.901  0.00  0.00    +0.000 C 
ATOM     15  C   UNL     1      47.270   2.136   7.344  0.00  0.00    +0.000 C 
ENDBRANCH  11  12
ENDBRANCH   9  11
ENDBRANCH   1   4
BRANCH   1  16
ATOM     16  C   UNL     1      45.649   6.272  13.042  0.00  0.00    +0.000 C 
BRANCH  16  17
ATOM     17  N   UNL     1      46.934   6.533  13.713  0.00  0.00    +0.000 N 
ATOM     18  H   UNL     1      47.627   7.004  13.133  0.00  0.00    +0.000 HD
BRANCH  17  22
ATOM     19  C   UNL     1      48.465   4.036  16.744  0.00  0.00    +0.000 A 
ATOM     20  C   UNL     1      47.536   3.523  15.837  0.00  0.00    +0.000 A 
ATOM     21  C   UNL     1      47.035   4.336  14.810  0.00  0.00    +0.000 A 
ATOM     22  C   UNL     1      47.469   5.656  14.649  0.00  0.00    +0.000 A 
ATOM     23  C   UNL     1      48.389   6.158  15.581  0.00  0.00    +0.000 A 
ATOM     24  C   UNL     1      48.882   5.361  16.622  0.00  0.00    +0.000 A 
BRANCH  19  26
ATOM     25  N   UNL     1      48.441   3.434  19.104  0.00  0.00    +0.000 N 
ATOM     26  C   UNL     1      48.989   3.220  17.870  0.00  0.00    +0.000 C 
ATOM     27  O   UNL     1      49.852   2.368  17.703  0.00  0.00    +0.000 OA
ATOM     28  H   UNL     1      48.733   2.799  19.837  0.00  0.00    +0.000 HD
ATOM     29  H   UNL     1      47.569   3.926  19.230  0.00  0.00    +0.000 HD
ENDBRANCH  19  26
ENDBRANCH  17  22
ENDBRANCH  16  17
ENDBRANCH   1  16
TORSDOF 7
ENDMDL
MODEL 8
REMARK VINA RESULT:    -7.592      2.734      7.775
REMARK INTER + INTRA:         -11.903
REMARK INTER:                 -10.821
REMARK INTRA:                  -1.082
REMARK UNBOUND:                -1.204
REMARK  Name = 
REMARK  7 active torsions:
REMARK  status: ('A' for Active; 'I' for Inactive)
REMARK    1  A    between atoms: C_2  and  C_4
REMARK    2  A    between atoms: C_7  and  N_8
REMARK    3  A    between atoms: N_8  and  C_9
REMARK    4  A    between atoms: C_9  and  C_10
REMARK    5  A    between atoms: C_10  and  C_13
REMARK    6  A    between atoms: C_18  and  O_19
REMARK    7  A    between atoms: O_19  and  C_20
REMARK                            x       y       z     vdW  Elec       q    Type
REMARK                         _______ _______ _______ _____ _____    ______ ____
ROOT
ATOM      1  C   UNL     1      44.916   6.532  11.948  0.00  0.00    +0.000 C 
ATOM      2  F   UNL     1      44.455   6.429  13.231  0.00  0.00    +0.000 F 
ATOM      3  F   UNL     1      44.188   7.547  11.389  0.00  0.00    +0.000 F 
ENDROOT
BRANCH   1   4
ATOM      4  C   UNL     1      44.748   5.227  11.191  0.00  0.00    +0.000 A 
ATOM      5  C   UNL     1      44.238   4.088  11.829  0.00  0.00    +0.000 A 
ATOM      6  C   UNL     1      44.067   2.897  11.118  0.00  0.00    +0.000 A 
ATOM      7  C   UNL     1      44.407   2.834   9.768  0.00  0.00    +0.000 A 
ATOM      8  F   UNL     1      44.196   1.681   9.120  0.00  0.00    +0.000 F 
ATOM      9  C   UNL     1      44.929   3.952   9.117  0.00  0.00    +0.000 A 
ATOM     10  C   UNL     1      45.092   5.143   9.830  0.00  0.00    +0.000 A 
BRANCH   9  11
ATOM     11  O   UNL     1      45.265   4.032   7.789  0.00  0.00    +0.000 OA
BRANCH  11  12
ATOM     12  C   UNL     1      46.584   3.633   7.357  0.00  0.00    +0.000 C 
ATOM     13  C   UNL     1      46.785   3.403   5.840  0.00  0.00    +0.000 C 
ATOM     14  C   UNL     1      47.419   2.040   6.143  0.00  0.00    +0.000 C 
ATOM     15  C   UNL     1      46.871   2.128   7.570  0.00  0.00    +0.000 C 
ENDBRANCH  11  12
ENDBRANCH   9  11
ENDBRANCH   1   4
BRANCH   1  16
ATOM     16  C   UNL     1      46.403   6.976  11.984  0.00  0.00    +0.000 C 
BRANCH  16  17
ATOM     17  N   UNL     1      47.300   5.913  12.466  0.00  0.00    +0.000 N 
ATOM     18  H   UNL     1      47.309   5.071  11.890  0.00  0.00    +0.000 HD
BRANCH  17  22
ATOM     19  C   UNL     1      48.057   4.985  16.508  0.00  0.00    +0.000 A 
ATOM     20  C   UNL     1      48.601   6.147  15.956  0.00  0.00    +0.000 A 
ATOM     21  C   UNL     1      48.339   6.479  14.620  0.00  0.00    +0.000 A 
ATOM     22  C   UNL     1      47.512   5.684  13.820  0.00  0.00    +0.000 A 
ATOM     23  C   UNL     1      46.990   4.511  14.386  0.00  0.00    +0.000 A 
ATOM     24  C   UNL     1      47.261   4.159  15.715  0.00  0.00    +0.000 A 
BRANCH  19  26
ATOM     25  N   UNL     1      47.675   3.485  18.389  0.00  0.00    +0.000 N 
ATOM     26  C   UNL     1      48.344   4.576  17.907  0.00  0.00    +0.000 C 
ATOM     27  O   UNL     1      49.167   5.164  18.595  0.00  0.00    +0.000 OA
ATOM     28  H   UNL     1      47.959   3.157  19.304  0.00  0.00    +0.000 HD
ATOM     29  H   UNL     1      47.199   2.833  17.783  0.00  0.00    +0.000 HD
ENDBRANCH  19  26
ENDBRANCH  17  22
ENDBRANCH  16  17
ENDBRANCH   1  16
TORSDOF 7
ENDMDL
MODEL 9
REMARK VINA RESULT:    -7.445      2.424      3.444
REMARK INTER + INTRA:         -11.696
REMARK INTER:                 -10.788
REMARK INTRA:                  -0.908
REMARK UNBOUND:                -1.204
REMARK  Name = 
REMARK  7 active torsions:
REMARK  status: ('A' for Active; 'I' for Inactive)
REMARK    1  A    between atoms: C_2  and  C_4
REMARK    2  A    between atoms: C_7  and  N_8
REMARK    3  A    between atoms: N_8  and  C_9
REMARK    4  A    between atoms: C_9  and  C_10
REMARK    5  A    between atoms: C_10  and  C_13
REMARK    6  A    between atoms: C_18  and  O_19
REMARK    7  A    between atoms: O_19  and  C_20
REMARK                            x       y       z     vdW  Elec       q    Type
REMARK                         _______ _______ _______ _____ _____    ______ ____
ROOT
ATOM      1  C   UNL     1      45.150   6.392  11.595  0.00  0.00    +0.000 C 
ATOM      2  F   UNL     1      45.922   6.604  10.486  0.00  0.00    +0.000 F 
ATOM      3  F   UNL     1      44.515   7.583  11.819  0.00  0.00    +0.000 F 
ENDROOT
BRANCH   1   4
ATOM      4  C   UNL     1      45.992   5.964  12.784  0.00  0.00    +0.000 A 
ATOM      5  C   UNL     1      45.705   4.781  13.478  0.00  0.00    +0.000 A 
ATOM      6  C   UNL     1      46.498   4.384  14.558  0.00  0.00    +0.000 A 
ATOM      7  C   UNL     1      47.580   5.168  14.954  0.00  0.00    +0.000 A 
ATOM      8  F   UNL     1      48.331   4.732  15.974  0.00  0.00    +0.000 F 
ATOM      9  C   UNL     1      47.876   6.356  14.286  0.00  0.00    +0.000 A 
ATOM     10  C   UNL     1      47.083   6.745  13.202  0.00  0.00    +0.000 A 
BRANCH   9  11
ATOM     11  O   UNL     1      48.930   7.193  14.551  0.00  0.00    +0.000 OA
BRANCH  11  12
ATOM     12  C   UNL     1      48.704   8.433  15.255  0.00  0.00    +0.000 C 
ATOM     13  C   UNL     1      48.782   9.736  14.425  0.00  0.00    +0.000 C 
ATOM     14  C   UNL     1      49.740  10.327  15.466  0.00  0.00    +0.000 C 
ATOM     15  C   UNL     1      49.939   8.925  16.047  0.00  0.00    +0.000 C 
ENDBRANCH  11  12
ENDBRANCH   9  11
ENDBRANCH   1   4
BRANCH   1  16
ATOM     16  C   UNL     1      44.070   5.331  11.258  0.00  0.00    +0.000 C 
BRANCH  16  17
ATOM     17  N   UNL     1      43.945   5.088   9.811  0.00  0.00    +0.000 N 
ATOM     18  H   UNL     1      43.023   5.290   9.425  0.00  0.00    +0.000 HD
BRANCH  17  22
ATOM     19  C   UNL     1      46.216   2.048   7.975  0.00  0.00    +0.000 A 
ATOM     20  C   UNL     1      45.251   1.706   8.924  0.00  0.00    +0.000 A 
ATOM     21  C   UNL     1      44.473   2.704   9.527  0.00  0.00    +0.000 A 
ATOM     22  C   UNL     1      44.618   4.051   9.176  0.00  0.00    +0.000 A 
ATOM     23  C   UNL     1      45.604   4.377   8.234  0.00  0.00    +0.000 A 
ATOM     24  C   UNL     1      46.401   3.389   7.640  0.00  0.00    +0.000 A 
BRANCH  19  26
ATOM     25  N   UNL     1      46.840  -0.284   7.650  0.00  0.00    +0.000 N 
ATOM     26  C   UNL     1      47.089   1.025   7.344  0.00  0.00    +0.000 C 
ATOM     27  O   UNL     1      47.975   1.329   6.556  0.00  0.00    +0.000 OA
ATOM     28  H   UNL     1      47.373  -0.972   7.132  0.00  0.00    +0.000 HD
ATOM     29  H   UNL     1      45.975  -0.584   8.076  0.00  0.00    +0.000 HD
ENDBRANCH  19  26
ENDBRANCH  17  22
ENDBRANCH  16  17
ENDBRANCH   1  16
TORSDOF 7
ENDMDL
