MODEL 1
REMARK VINA RESULT:    -9.110      0.000      0.000
REMARK INTER + INTRA:         -12.508
REMARK INTER:                 -11.773
REMARK INTRA:                  -0.735
REMARK UNBOUND:                -0.735
REMARK  Name = 
REMARK  5 active torsions:
REMARK  status: ('A' for Active; 'I' for Inactive)
REMARK    1  A    between atoms: C_2  and  C_4
REMARK    2  A    between atoms: C_7  and  N_8
REMARK    3  A    between atoms: N_8  and  C_9
REMARK    4  A    between atoms: C_9  and  C_10
REMARK    5  A    between atoms: C_12  and  C_13
REMARK                            x       y       z     vdW  Elec       q    Type
REMARK                         _______ _______ _______ _____ _____    ______ ____
ROOT
ATOM      1  C   UNL     1      43.823   5.010  11.328  0.00  0.00    +0.000 C 
ATOM      2  C   UNL     1      42.990   4.027  12.138  0.00  0.00    +0.000 C 
ATOM      3  C   UNL     1      42.552   5.448  12.052  0.00  0.00    +0.000 C 
ENDROOT
BRANCH   1   4
ATOM      4  C   UNL     1      45.108   5.624  11.914  0.00  0.00    +0.000 A 
ATOM      5  C   UNL     1      45.643   5.118  13.111  0.00  0.00    +0.000 A 
ATOM      6  C   UNL     1      46.872   5.574  13.615  0.00  0.00    +0.000 A 
ATOM      7  C   UNL     1      47.523   6.561  12.867  0.00  0.00    +0.000 A 
ATOM      8  C   UNL     1      46.931   7.037  11.709  0.00  0.00    +0.000 A 
ATOM      9  N   UNL     1      45.756   6.593  11.221  0.00  0.00    +0.000 NA
BRANCH   6  10
ATOM     10  C   UNL     1      47.457   5.026  14.855  0.00  0.00    +0.000 A 
ATOM     11  C   UNL     1      48.374   5.707  15.643  0.00  0.00    +0.000 A 
ATOM     12  N   UNL     1      48.921   5.233  16.787  0.00  0.00    +0.000 NA
ATOM     13  C   UNL     1      48.520   4.011  17.160  0.00  0.00    +0.000 A 
ATOM     14  N   UNL     1      47.641   3.245  16.503  0.00  0.00    +0.000 NA
ATOM     15  C   UNL     1      47.138   3.774  15.364  0.00  0.00    +0.000 A 
ENDBRANCH   6  10
ENDBRANCH   1   4
BRANCH   1  16
ATOM     16  N   UNL     1      43.826   4.875   9.852  0.00  0.00    +0.000 N 
ATOM     17  H   UNL     1      42.940   5.000   9.368  0.00  0.00    +0.000 HD
BRANCH  16  21
ATOM     18  C   UNL     1      46.413   2.255   7.755  0.00  0.00    +0.000 A 
ATOM     19  C   UNL     1      45.526   1.739   8.701  0.00  0.00    +0.000 A 
ATOM     20  C   UNL     1      44.700   2.601   9.427  0.00  0.00    +0.000 A 
ATOM     21  C   UNL     1      44.681   3.977   9.173  0.00  0.00    +0.000 A 
ATOM     22  C   UNL     1      45.623   4.489   8.269  0.00  0.00    +0.000 A 
ATOM     23  C   UNL     1      46.490   3.638   7.571  0.00  0.00    +0.000 A 
BRANCH  18  25
ATOM     24  N   UNL     1      48.346   1.944   6.309  0.00  0.00    +0.000 N 
ATOM     25  C   UNL     1      47.296   1.365   6.966  0.00  0.00    +0.000 C 
ATOM     26  O   UNL     1      47.121   0.151   6.932  0.00  0.00    +0.000 OA
ATOM     27  H   UNL     1      48.998   1.317   5.854  0.00  0.00    +0.000 HD
ATOM     28  H   UNL     1      48.660   2.880   6.516  0.00  0.00    +0.000 HD
ENDBRANCH  18  25
ENDBRANCH  16  21
ENDBRANCH   1  16
TORSDOF 5
ENDMDL
MODEL 2
REMARK VINA RESULT:    -8.775      1.842      3.332
REMARK INTER + INTRA:         -12.076
REMARK INTER:                 -11.317
REMARK INTRA:                  -0.758
REMARK UNBOUND:                -0.735
REMARK  Name = 
REMARK  5 active torsions:
REMARK  status: ('A' for Active; 'I' for Inactive)
REMARK    1  A    between atoms: C_2  and  C_4
REMARK    2  A    between atoms: C_7  and  N_8
REMARK    3  A    between atoms: N_8  and  C_9
REMARK    4  A    between atoms: C_9  and  C_10
REMARK    5  A    between atoms: C_12  and  C_13
REMARK                            x       y       z     vdW  Elec       q    Type
REMARK                         _______ _______ _______ _____ _____    ______ ____
ROOT
ATOM      1  C   UNL     1      43.996   4.799  11.567  0.00  0.00    +0.000 C 
ATOM      2  C   UNL     1      42.979   3.835  12.161  0.00  0.00    +0.000 C 
ATOM      3  C   UNL     1      42.759   5.301  12.308  0.00  0.00    +0.000 C 
ENDROOT
BRANCH   1   4
ATOM      4  C   UNL     1      45.316   5.102  12.298  0.00  0.00    +0.000 A 
ATOM      5  C   UNL     1      46.105   6.194  11.897  0.00  0.00    +0.000 A 
ATOM      6  C   UNL     1      47.255   6.569  12.610  0.00  0.00    +0.000 A 
ATOM      7  C   UNL     1      47.574   5.791  13.729  0.00  0.00    +0.000 A 
ATOM      8  C   UNL     1      46.771   4.712  14.057  0.00  0.00    +0.000 A 
ATOM      9  N   UNL     1      45.663   4.358  13.378  0.00  0.00    +0.000 NA
BRANCH   6  10
ATOM     10  C   UNL     1      48.072   7.734  12.215  0.00  0.00    +0.000 A 
ATOM     11  C   UNL     1      47.555   9.003  12.001  0.00  0.00    +0.000 A 
ATOM     12  N   UNL     1      48.280  10.089  11.645  0.00  0.00    +0.000 NA
ATOM     13  C   UNL     1      49.596   9.887  11.502  0.00  0.00    +0.000 A 
ATOM     14  N   UNL     1      50.230   8.722  11.680  0.00  0.00    +0.000 NA
ATOM     15  C   UNL     1      49.447   7.676  12.028  0.00  0.00    +0.000 A 
ENDBRANCH   6  10
ENDBRANCH   1   4
BRANCH   1  16
ATOM     16  N   UNL     1      44.073   4.914  10.090  0.00  0.00    +0.000 N 
ATOM     17  H   UNL     1      43.237   5.223   9.601  0.00  0.00    +0.000 HD
BRANCH  16  21
ATOM     18  C   UNL     1      46.461   2.389   7.666  0.00  0.00    +0.000 A 
ATOM     19  C   UNL     1      45.628   1.829   8.636  0.00  0.00    +0.000 A 
ATOM     20  C   UNL     1      44.869   2.657   9.468  0.00  0.00    +0.000 A 
ATOM     21  C   UNL     1      44.862   4.046   9.302  0.00  0.00    +0.000 A 
ATOM     22  C   UNL     1      45.752   4.598   8.369  0.00  0.00    +0.000 A 
ATOM     23  C   UNL     1      46.554   3.779   7.563  0.00  0.00    +0.000 A 
BRANCH  18  25
ATOM     24  N   UNL     1      48.274   2.141   6.062  0.00  0.00    +0.000 N 
ATOM     25  C   UNL     1      47.271   1.536   6.766  0.00  0.00    +0.000 C 
ATOM     26  O   UNL     1      47.080   0.326   6.682  0.00  0.00    +0.000 OA
ATOM     27  H   UNL     1      48.882   1.535   5.527  0.00  0.00    +0.000 HD
ATOM     28  H   UNL     1      48.614   3.063   6.293  0.00  0.00    +0.000 HD
ENDBRANCH  18  25
ENDBRANCH  16  21
ENDBRANCH   1  16
TORSDOF 5
ENDMDL
MODEL 3
REMARK VINA RESULT:    -8.522      1.515      2.411
REMARK INTER + INTRA:         -11.749
REMARK INTER:                 -11.116
REMARK INTRA:                  -0.633
REMARK UNBOUND:                -0.735
REMARK  Name = 
REMARK  5 active torsions:
REMARK  status: ('A' for Active; 'I' for Inactive)
REMARK    1  A    between atoms: C_2  and  C_4
REMARK    2  A    between atoms: C_7  and  N_8
REMARK    3  A    between atoms: N_8  and  C_9
REMARK    4  A    between atoms: C_9  and  C_10
REMARK    5  A    between atoms: C_12  and  C_13
REMARK                            x       y       z     vdW  Elec       q    Type
REMARK                         _______ _______ _______ _____ _____    ______ ____
ROOT
ATOM      1  C   UNL     1      44.069   4.973  11.616  0.00  0.00    +0.000 C 
ATOM      2  C   UNL     1      44.214   3.757  12.520  0.00  0.00    +0.000 C 
ATOM      3  C   UNL     1      42.995   4.606  12.638  0.00  0.00    +0.000 C 
ENDROOT
BRANCH   1   4
ATOM      4  C   UNL     1      44.803   6.287  11.938  0.00  0.00    +0.000 A 
ATOM      5  C   UNL     1      45.997   6.259  12.678  0.00  0.00    +0.000 A 
ATOM      6  C   UNL     1      46.755   7.421  12.895  0.00  0.00    +0.000 A 
ATOM      7  C   UNL     1      46.248   8.604  12.344  0.00  0.00    +0.000 A 
ATOM      8  C   UNL     1      45.051   8.571  11.646  0.00  0.00    +0.000 A 
ATOM      9  N   UNL     1      44.331   7.453  11.432  0.00  0.00    +0.000 NA
BRANCH   6  10
ATOM     10  C   UNL     1      48.026   7.396  13.644  0.00  0.00    +0.000 A 
ATOM     11  C   UNL     1      48.295   6.515  14.681  0.00  0.00    +0.000 A 
ATOM     12  N   UNL     1      49.453   6.465  15.380  0.00  0.00    +0.000 NA
ATOM     13  C   UNL     1      50.392   7.345  15.011  0.00  0.00    +0.000 A 
ATOM     14  N   UNL     1      50.274   8.246  14.028  0.00  0.00    +0.000 NA
ATOM     15  C   UNL     1      49.089   8.248  13.375  0.00  0.00    +0.000 A 
ENDBRANCH   6  10
ENDBRANCH   1   4
BRANCH   1  16
ATOM     16  N   UNL     1      43.825   4.746  10.171  0.00  0.00    +0.000 N 
ATOM     17  H   UNL     1      42.859   4.667   9.866  0.00  0.00    +0.000 HD
BRANCH  16  21
ATOM     18  C   UNL     1      46.430   2.389   7.801  0.00  0.00    +0.000 A 
ATOM     19  C   UNL     1      46.474   3.781   7.700  0.00  0.00    +0.000 A 
ATOM     20  C   UNL     1      45.590   4.564   8.447  0.00  0.00    +0.000 A 
ATOM     21  C   UNL     1      44.702   3.987   9.363  0.00  0.00    +0.000 A 
ATOM     22  C   UNL     1      44.622   2.587   9.404  0.00  0.00    +0.000 A 
ATOM     23  C   UNL     1      45.472   1.792   8.624  0.00  0.00    +0.000 A 
BRANCH  18  25
ATOM     24  N   UNL     1      48.467   2.133   6.494  0.00  0.00    +0.000 N 
ATOM     25  C   UNL     1      47.360   1.535   7.027  0.00  0.00    +0.000 C 
ATOM     26  O   UNL     1      47.170   0.329   6.899  0.00  0.00    +0.000 OA
ATOM     27  H   UNL     1      49.143   1.525   6.051  0.00  0.00    +0.000 HD
ATOM     28  H   UNL     1      48.777   3.048   6.786  0.00  0.00    +0.000 HD
ENDBRANCH  18  25
ENDBRANCH  16  21
ENDBRANCH   1  16
TORSDOF 5
ENDMDL
MODEL 4
REMARK VINA RESULT:    -8.281      2.052      3.994
REMARK INTER + INTRA:         -11.437
REMARK INTER:                 -10.612
REMARK INTRA:                  -0.825
REMARK UNBOUND:                -0.735
REMARK  Name = 
REMARK  5 active torsions:
REMARK  status: ('A' for Active; 'I' for Inactive)
REMARK    1  A    between atoms: C_2  and  C_4
REMARK    2  A    between atoms: C_7  and  N_8
REMARK    3  A    between atoms: N_8  and  C_9
REMARK    4  A    between atoms: C_9  and  C_10
REMARK    5  A    between atoms: C_12  and  C_13
REMARK                            x       y       z     vdW  Elec       q    Type
REMARK                         _______ _______ _______ _____ _____    ______ ____
ROOT
ATOM      1  C   UNL     1      44.142   4.182  11.907  0.00  0.00    +0.000 C 
ATOM      2  C   UNL     1      43.824   2.963  12.762  0.00  0.00    +0.000 C 
ATOM      3  C   UNL     1      43.020   4.204  12.943  0.00  0.00    +0.000 C 
ENDROOT
BRANCH   1   4
ATOM      4  C   UNL     1      45.323   5.105  12.258  0.00  0.00    +0.000 A 
ATOM      5  C   UNL     1      45.232   6.484  12.007  0.00  0.00    +0.000 A 
ATOM      6  C   UNL     1      46.239   7.373  12.417  0.00  0.00    +0.000 A 
ATOM      7  C   UNL     1      47.337   6.807  13.077  0.00  0.00    +0.000 A 
ATOM      8  C   UNL     1      47.379   5.436  13.271  0.00  0.00    +0.000 A 
ATOM      9  N   UNL     1      46.407   4.585  12.885  0.00  0.00    +0.000 NA
BRANCH   6  10
ATOM     10  C   UNL     1      46.138   8.827  12.186  0.00  0.00    +0.000 A 
ATOM     11  C   UNL     1      47.211   9.701  12.280  0.00  0.00    +0.000 A 
ATOM     12  N   UNL     1      47.149  11.037  12.067  0.00  0.00    +0.000 NA
ATOM     13  C   UNL     1      45.943  11.516  11.736  0.00  0.00    +0.000 A 
ATOM     14  N   UNL     1      44.825  10.792  11.604  0.00  0.00    +0.000 NA
ATOM     15  C   UNL     1      44.955   9.466  11.838  0.00  0.00    +0.000 A 
ENDBRANCH   6  10
ENDBRANCH   1   4
BRANCH   1  16
ATOM     16  N   UNL     1      43.815   4.128  10.462  0.00  0.00    +0.000 N 
ATOM     17  H   UNL     1      42.858   3.900  10.206  0.00  0.00    +0.000 HD
BRANCH  16  21
ATOM     18  C   UNL     1      46.596   2.729   7.587  0.00  0.00    +0.000 A 
ATOM     19  C   UNL     1      46.357   4.099   7.707  0.00  0.00    +0.000 A 
ATOM     20  C   UNL     1      45.410   4.565   8.623  0.00  0.00    +0.000 A 
ATOM     21  C   UNL     1      44.744   3.691   9.489  0.00  0.00    +0.000 A 
ATOM     22  C   UNL     1      44.944   2.315   9.313  0.00  0.00    +0.000 A 
ATOM     23  C   UNL     1      45.855   1.834   8.363  0.00  0.00    +0.000 A 
BRANCH  18  25
ATOM     24  N   UNL     1      47.740   2.872   5.444  0.00  0.00    +0.000 N 
ATOM     25  C   UNL     1      47.598   2.207   6.629  0.00  0.00    +0.000 C 
ATOM     26  O   UNL     1      48.305   1.240   6.900  0.00  0.00    +0.000 OA
ATOM     27  H   UNL     1      48.492   2.567   4.839  0.00  0.00    +0.000 HD
ATOM     28  H   UNL     1      47.365   3.797   5.297  0.00  0.00    +0.000 HD
ENDBRANCH  18  25
ENDBRANCH  16  21
ENDBRANCH   1  16
TORSDOF 5
ENDMDL
MODEL 5
REMARK VINA RESULT:    -6.987      2.594      7.257
REMARK INTER + INTRA:          -9.765
REMARK INTER:                  -9.726
REMARK INTRA:                  -0.039
REMARK UNBOUND:                -0.735
REMARK  Name = 
REMARK  5 active torsions:
REMARK  status: ('A' for Active; 'I' for Inactive)
REMARK    1  A    between atoms: C_2  and  C_4
REMARK    2  A    between atoms: C_7  and  N_8
REMARK    3  A    between atoms: N_8  and  C_9
REMARK    4  A    between atoms: C_9  and  C_10
REMARK    5  A    between atoms: C_12  and  C_13
REMARK                            x       y       z     vdW  Elec       q    Type
REMARK                         _______ _______ _______ _____ _____    ______ ____
ROOT
ATOM      1  C   UNL     1      46.133   7.434  12.024  0.00  0.00    +0.000 C 
ATOM      2  C   UNL     1      46.090   8.916  11.677  0.00  0.00    +0.000 C 
ATOM      3  C   UNL     1      45.345   8.430  12.872  0.00  0.00    +0.000 C 
ENDROOT
BRANCH   1   4
ATOM      4  C   UNL     1      45.244   6.424  11.276  0.00  0.00    +0.000 A 
ATOM      5  C   UNL     1      45.817   5.540  10.346  0.00  0.00    +0.000 A 
ATOM      6  C   UNL     1      45.061   4.530   9.731  0.00  0.00    +0.000 A 
ATOM      7  C   UNL     1      43.708   4.462  10.086  0.00  0.00    +0.000 A 
ATOM      8  C   UNL     1      43.197   5.379  10.990  0.00  0.00    +0.000 A 
ATOM      9  N   UNL     1      43.926   6.342  11.587  0.00  0.00    +0.000 NA
BRANCH   6  10
ATOM     10  C   UNL     1      45.661   3.577   8.776  0.00  0.00    +0.000 A 
ATOM     11  C   UNL     1      46.363   3.958   7.642  0.00  0.00    +0.000 A 
ATOM     12  N   UNL     1      46.930   3.107   6.755  0.00  0.00    +0.000 NA
ATOM     13  C   UNL     1      46.786   1.804   7.027  0.00  0.00    +0.000 A 
ATOM     14  N   UNL     1      46.142   1.294   8.083  0.00  0.00    +0.000 NA
ATOM     15  C   UNL     1      45.593   2.198   8.927  0.00  0.00    +0.000 A 
ENDBRANCH   6  10
ENDBRANCH   1   4
BRANCH   1  16
ATOM     16  N   UNL     1      47.406   6.871  12.533  0.00  0.00    +0.000 N 
ATOM     17  H   UNL     1      48.102   6.591  11.846  0.00  0.00    +0.000 HD
BRANCH  16  21
ATOM     18  C   UNL     1      47.535   4.472  16.023  0.00  0.00    +0.000 A 
ATOM     19  C   UNL     1      48.265   5.660  15.975  0.00  0.00    +0.000 A 
ATOM     20  C   UNL     1      48.261   6.436  14.812  0.00  0.00    +0.000 A 
ATOM     21  C   UNL     1      47.474   6.089  13.708  0.00  0.00    +0.000 A 
ATOM     22  C   UNL     1      46.800   4.860  13.745  0.00  0.00    +0.000 A 
ATOM     23  C   UNL     1      46.836   4.051  14.889  0.00  0.00    +0.000 A 
BRANCH  18  25
ATOM     24  N   UNL     1      48.558   3.768  18.116  0.00  0.00    +0.000 N 
ATOM     25  C   UNL     1      47.514   3.633  17.244  0.00  0.00    +0.000 C 
ATOM     26  O   UNL     1      46.580   2.875  17.489  0.00  0.00    +0.000 OA
ATOM     27  H   UNL     1      48.487   3.265  18.991  0.00  0.00    +0.000 HD
ATOM     28  H   UNL     1      49.199   4.546  18.072  0.00  0.00    +0.000 HD
ENDBRANCH  18  25
ENDBRANCH  16  21
ENDBRANCH   1  16
TORSDOF 5
ENDMDL
MODEL 6
REMARK VINA RESULT:    -6.865      3.283      7.467
REMARK INTER + INTRA:          -9.607
REMARK INTER:                  -9.642
REMARK INTRA:                   0.035
REMARK UNBOUND:                -0.735
REMARK  Name = 
REMARK  5 active torsions:
REMARK  status: ('A' for Active; 'I' for Inactive)
REMARK    1  A    between atoms: C_2  and  C_4
REMARK    2  A    between atoms: C_7  and  N_8
REMARK    3  A    between atoms: N_8  and  C_9
REMARK    4  A    between atoms: C_9  and  C_10
REMARK    5  A    between atoms: C_12  and  C_13
REMARK                            x       y       z     vdW  Elec       q    Type
REMARK                         _______ _______ _______ _____ _____    ______ ____
ROOT
ATOM      1  C   UNL     1      43.669   5.413  11.268  0.00  0.00    +0.000 C 
ATOM      2  C   UNL     1      42.272   5.870  11.661  0.00  0.00    +0.000 C 
ATOM      3  C   UNL     1      43.172   5.312  12.708  0.00  0.00    +0.000 C 
ENDROOT
BRANCH   1   4
ATOM      4  C   UNL     1      43.892   4.046  10.596  0.00  0.00    +0.000 A 
ATOM      5  C   UNL     1      44.774   3.936   9.507  0.00  0.00    +0.000 A 
ATOM      6  C   UNL     1      45.090   2.690   8.942  0.00  0.00    +0.000 A 
ATOM      7  C   UNL     1      44.472   1.572   9.515  0.00  0.00    +0.000 A 
ATOM      8  C   UNL     1      43.593   1.750  10.571  0.00  0.00    +0.000 A 
ATOM      9  N   UNL     1      43.297   2.945  11.118  0.00  0.00    +0.000 NA
BRANCH   6  10
ATOM     10  C   UNL     1      46.039   2.561   7.818  0.00  0.00    +0.000 A 
ATOM     11  C   UNL     1      46.188   3.513   6.820  0.00  0.00    +0.000 A 
ATOM     12  N   UNL     1      47.053   3.424   5.783  0.00  0.00    +0.000 NA
ATOM     13  C   UNL     1      47.813   2.322   5.753  0.00  0.00    +0.000 A 
ATOM     14  N   UNL     1      47.780   1.328   6.649  0.00  0.00    +0.000 NA
ATOM     15  C   UNL     1      46.889   1.475   7.655  0.00  0.00    +0.000 A 
ENDBRANCH   6  10
ENDBRANCH   1   4
BRANCH   1  16
ATOM     16  N   UNL     1      44.666   6.447  10.898  0.00  0.00    +0.000 N 
ATOM     17  H   UNL     1      45.058   6.405   9.961  0.00  0.00    +0.000 HD
BRANCH  16  21
ATOM     18  C   UNL     1      47.354   8.168  13.686  0.00  0.00    +0.000 A 
ATOM     19  C   UNL     1      47.585   6.875  13.212  0.00  0.00    +0.000 A 
ATOM     20  C   UNL     1      46.680   6.285  12.325  0.00  0.00    +0.000 A 
ATOM     21  C   UNL     1      45.577   6.991  11.832  0.00  0.00    +0.000 A 
ATOM     22  C   UNL     1      45.321   8.262  12.367  0.00  0.00    +0.000 A 
ATOM     23  C   UNL     1      46.196   8.844  13.295  0.00  0.00    +0.000 A 
BRANCH  18  25
ATOM     24  N   UNL     1      47.800   9.254  15.817  0.00  0.00    +0.000 N 
ATOM     25  C   UNL     1      48.299   8.821  14.621  0.00  0.00    +0.000 C 
ATOM     26  O   UNL     1      49.492   8.936  14.355  0.00  0.00    +0.000 OA
ATOM     27  H   UNL     1      48.470   9.610  16.487  0.00  0.00    +0.000 HD
ATOM     28  H   UNL     1      46.900   8.956  16.165  0.00  0.00    +0.000 HD
ENDBRANCH  18  25
ENDBRANCH  16  21
ENDBRANCH   1  16
TORSDOF 5
ENDMDL
MODEL 7
REMARK VINA RESULT:    -6.717      2.720      7.617
REMARK INTER + INTRA:          -9.415
REMARK INTER:                  -9.388
REMARK INTRA:                  -0.027
REMARK UNBOUND:                -0.735
REMARK  Name = 
REMARK  5 active torsions:
REMARK  status: ('A' for Active; 'I' for Inactive)
REMARK    1  A    between atoms: C_2  and  C_4
REMARK    2  A    between atoms: C_7  and  N_8
REMARK    3  A    between atoms: N_8  and  C_9
REMARK    4  A    between atoms: C_9  and  C_10
REMARK    5  A    between atoms: C_12  and  C_13
REMARK                            x       y       z     vdW  Elec       q    Type
REMARK                         _______ _______ _______ _____ _____    ______ ____
ROOT
ATOM      1  C   UNL     1      45.559   6.367  11.730  0.00  0.00    +0.000 C 
ATOM      2  C   UNL     1      45.034   7.744  11.348  0.00  0.00    +0.000 C 
ATOM      3  C   UNL     1      44.516   7.088  12.581  0.00  0.00    +0.000 C 
ENDROOT
BRANCH   1   4
ATOM      4  C   UNL     1      45.022   5.100  11.040  0.00  0.00    +0.000 A 
ATOM      5  C   UNL     1      45.665   4.600   9.894  0.00  0.00    +0.000 A 
ATOM      6  C   UNL     1      45.276   3.386   9.305  0.00  0.00    +0.000 A 
ATOM      7  C   UNL     1      44.211   2.713   9.915  0.00  0.00    +0.000 A 
ATOM      8  C   UNL     1      43.602   3.270  11.027  0.00  0.00    +0.000 A 
ATOM      9  N   UNL     1      43.983   4.431  11.597  0.00  0.00    +0.000 NA
BRANCH   6  10
ATOM     10  C   UNL     1      45.965   2.838   8.120  0.00  0.00    +0.000 A 
ATOM     11  C   UNL     1      46.419   1.531   8.026  0.00  0.00    +0.000 A 
ATOM     12  N   UNL     1      47.047   1.000   6.951  0.00  0.00    +0.000 NA
ATOM     13  C   UNL     1      47.223   1.829   5.914  0.00  0.00    +0.000 A 
ATOM     14  N   UNL     1      46.834   3.109   5.863  0.00  0.00    +0.000 NA
ATOM     15  C   UNL     1      46.219   3.578   6.973  0.00  0.00    +0.000 A 
ENDBRANCH   6  10
ENDBRANCH   1   4
BRANCH   1  16
ATOM     16  N   UNL     1      46.959   6.259  12.207  0.00  0.00    +0.000 N 
ATOM     17  H   UNL     1      47.667   5.998  11.526  0.00  0.00    +0.000 HD
BRANCH  16  21
ATOM     18  C   UNL     1      48.007   4.999  16.114  0.00  0.00    +0.000 A 
ATOM     19  C   UNL     1      47.125   4.229  15.354  0.00  0.00    +0.000 A 
ATOM     20  C   UNL     1      46.741   4.659  14.081  0.00  0.00    +0.000 A 
ATOM     21  C   UNL     1      47.284   5.816  13.509  0.00  0.00    +0.000 A 
ATOM     22  C   UNL     1      48.116   6.613  14.309  0.00  0.00    +0.000 A 
ATOM     23  C   UNL     1      48.469   6.215  15.605  0.00  0.00    +0.000 A 
BRANCH  18  25
ATOM     24  N   UNL     1      47.472   4.457  18.426  0.00  0.00    +0.000 N 
ATOM     25  C   UNL     1      48.436   4.564  17.464  0.00  0.00    +0.000 C 
ATOM     26  O   UNL     1      49.604   4.270  17.704  0.00  0.00    +0.000 OA
ATOM     27  H   UNL     1      47.758   4.068  19.315  0.00  0.00    +0.000 HD
ATOM     28  H   UNL     1      46.488   4.447  18.203  0.00  0.00    +0.000 HD
ENDBRANCH  18  25
ENDBRANCH  16  21
ENDBRANCH   1  16
TORSDOF 5
ENDMDL
MODEL 8
REMARK VINA RESULT:    -6.643      2.894      7.464
REMARK INTER + INTRA:          -9.321
REMARK INTER:                  -8.929
REMARK INTRA:                  -0.392
REMARK UNBOUND:                -0.735
REMARK  Name = 
REMARK  5 active torsions:
REMARK  status: ('A' for Active; 'I' for Inactive)
REMARK    1  A    between atoms: C_2  and  C_4
REMARK    2  A    between atoms: C_7  and  N_8
REMARK    3  A    between atoms: N_8  and  C_9
REMARK    4  A    between atoms: C_9  and  C_10
REMARK    5  A    between atoms: C_12  and  C_13
REMARK                            x       y       z     vdW  Elec       q    Type
REMARK                         _______ _______ _______ _____ _____    ______ ____
ROOT
ATOM      1  C   UNL     1      48.580   7.886  12.666  0.00  0.00    +0.000 C 
ATOM      2  C   UNL     1      49.766   7.364  11.867  0.00  0.00    +0.000 C 
ATOM      3  C   UNL     1      49.406   8.806  11.770  0.00  0.00    +0.000 C 
ENDROOT
BRANCH   1   4
ATOM      4  C   UNL     1      47.139   7.674  12.168  0.00  0.00    +0.000 A 
ATOM      5  C   UNL     1      46.818   6.528  11.419  0.00  0.00    +0.000 A 
ATOM      6  C   UNL     1      45.495   6.242  11.046  0.00  0.00    +0.000 A 
ATOM      7  C   UNL     1      44.522   7.163  11.450  0.00  0.00    +0.000 A 
ATOM      8  C   UNL     1      44.906   8.287  12.165  0.00  0.00    +0.000 A 
ATOM      9  N   UNL     1      46.175   8.555  12.530  0.00  0.00    +0.000 NA
BRANCH   6  10
ATOM     10  C   UNL     1      45.145   5.026  10.286  0.00  0.00    +0.000 A 
ATOM     11  C   UNL     1      45.611   4.751   9.009  0.00  0.00    +0.000 A 
ATOM     12  N   UNL     1      45.312   3.642   8.293  0.00  0.00    +0.000 NA
ATOM     13  C   UNL     1      44.505   2.761   8.897  0.00  0.00    +0.000 A 
ATOM     14  N   UNL     1      43.986   2.892  10.124  0.00  0.00    +0.000 NA
ATOM     15  C   UNL     1      44.319   4.026  10.782  0.00  0.00    +0.000 A 
ENDBRANCH   6  10
ENDBRANCH   1   4
BRANCH   1  16
ATOM     16  N   UNL     1      48.712   7.973  14.140  0.00  0.00    +0.000 N 
ATOM     17  H   UNL     1      49.417   8.605  14.511  0.00  0.00    +0.000 HD
BRANCH  16  21
ATOM     18  C   UNL     1      47.983   4.620  16.626  0.00  0.00    +0.000 A 
ATOM     19  C   UNL     1      48.876   5.608  17.044  0.00  0.00    +0.000 A 
ATOM     20  C   UNL     1      49.154   6.695  16.211  0.00  0.00    +0.000 A 
ATOM     21  C   UNL     1      48.495   6.863  14.988  0.00  0.00    +0.000 A 
ATOM     22  C   UNL     1      47.651   5.831  14.552  0.00  0.00    +0.000 A 
ATOM     23  C   UNL     1      47.403   4.712  15.358  0.00  0.00    +0.000 A 
BRANCH  18  25
ATOM     24  N   UNL     1      48.609   3.076  18.400  0.00  0.00    +0.000 N 
ATOM     25  C   UNL     1      47.664   3.460  17.490  0.00  0.00    +0.000 C 
ATOM     26  O   UNL     1      46.580   2.887  17.424  0.00  0.00    +0.000 OA
ATOM     27  H   UNL     1      48.344   2.347  19.050  0.00  0.00    +0.000 HD
ATOM     28  H   UNL     1      49.388   3.667  18.649  0.00  0.00    +0.000 HD
ENDBRANCH  18  25
ENDBRANCH  16  21
ENDBRANCH   1  16
TORSDOF 5
ENDMDL
MODEL 9
REMARK VINA RESULT:    -6.511      4.075      8.032
REMARK INTER + INTRA:          -9.149
REMARK INTER:                  -8.559
REMARK INTRA:                  -0.590
REMARK UNBOUND:                -0.735
REMARK  Name = 
REMARK  5 active torsions:
REMARK  status: ('A' for Active; 'I' for Inactive)
REMARK    1  A    between atoms: C_2  and  C_4
REMARK    2  A    between atoms: C_7  and  N_8
REMARK    3  A    between atoms: N_8  and  C_9
REMARK    4  A    between atoms: C_9  and  C_10
REMARK    5  A    between atoms: C_12  and  C_13
REMARK                            x       y       z     vdW  Elec       q    Type
REMARK                         _______ _______ _______ _____ _____    ______ ____
ROOT
ATOM      1  C   UNL     1      49.062   6.804  16.473  0.00  0.00    +0.000 C 
ATOM      2  C   UNL     1      50.186   7.767  16.827  0.00  0.00    +0.000 C 
ATOM      3  C   UNL     1      48.773   8.218  16.971  0.00  0.00    +0.000 C 
ENDROOT
BRANCH   1   4
ATOM      4  C   UNL     1      48.655   6.573  15.006  0.00  0.00    +0.000 A 
ATOM      5  C   UNL     1      47.450   5.913  14.709  0.00  0.00    +0.000 A 
ATOM      6  C   UNL     1      46.990   5.784  13.388  0.00  0.00    +0.000 A 
ATOM      7  C   UNL     1      47.801   6.339  12.391  0.00  0.00    +0.000 A 
ATOM      8  C   UNL     1      48.990   6.955  12.747  0.00  0.00    +0.000 A 
ATOM      9  N   UNL     1      49.425   7.085  14.015  0.00  0.00    +0.000 NA
BRANCH   6  10
ATOM     10  C   UNL     1      45.711   5.120  13.069  0.00  0.00    +0.000 A 
ATOM     11  C   UNL     1      44.503   5.790  12.942  0.00  0.00    +0.000 A 
ATOM     12  N   UNL     1      43.318   5.208  12.644  0.00  0.00    +0.000 NA
ATOM     13  C   UNL     1      43.352   3.882  12.459  0.00  0.00    +0.000 A 
ATOM     14  N   UNL     1      44.442   3.111  12.545  0.00  0.00    +0.000 NA
ATOM     15  C   UNL     1      45.592   3.754  12.853  0.00  0.00    +0.000 A 
ENDBRANCH   6  10
ENDBRANCH   1   4
BRANCH   1  16
ATOM     16  N   UNL     1      48.827   5.642  17.364  0.00  0.00    +0.000 N 
ATOM     17  H   UNL     1      48.375   5.820  18.257  0.00  0.00    +0.000 HD
BRANCH  16  21
ATOM     18  C   UNL     1      51.406   2.285  17.552  0.00  0.00    +0.000 A 
ATOM     19  C   UNL     1      51.925   3.566  17.751  0.00  0.00    +0.000 A 
ATOM     20  C   UNL     1      51.088   4.681  17.649  0.00  0.00    +0.000 A 
ATOM     21  C   UNL     1      49.714   4.543  17.427  0.00  0.00    +0.000 A 
ATOM     22  C   UNL     1      49.220   3.257  17.163  0.00  0.00    +0.000 A 
ATOM     23  C   UNL     1      50.059   2.136  17.215  0.00  0.00    +0.000 A 
BRANCH  18  25
ATOM     24  N   UNL     1      51.724  -0.027  18.241  0.00  0.00    +0.000 N 
ATOM     25  C   UNL     1      52.267   1.085  17.661  0.00  0.00    +0.000 C 
ATOM     26  O   UNL     1      53.411   1.070  17.214  0.00  0.00    +0.000 OA
ATOM     27  H   UNL     1      52.285  -0.869  18.223  0.00  0.00    +0.000 HD
ATOM     28  H   UNL     1      50.730  -0.128  18.386  0.00  0.00    +0.000 HD
ENDBRANCH  18  25
ENDBRANCH  16  21
ENDBRANCH   1  16
TORSDOF 5
ENDMDL
