MODEL 1
REMARK VINA RESULT:    -9.031      0.000      0.000
REMARK INTER + INTRA:         -13.083
REMARK INTER:                 -12.199
REMARK INTRA:                  -0.885
REMARK UNBOUND:                -0.885
REMARK  Name = 
REMARK  6 active torsions:
REMARK  status: ('A' for Active; 'I' for Inactive)
REMARK    1  A    between atoms: C_2  and  C_4
REMARK    2  A    between atoms: C_7  and  N_8
REMARK    3  A    between atoms: N_8  and  C_9
REMARK    4  A    between atoms: C_9  and  C_10
REMARK    5  A    between atoms: C_10  and  C_13
REMARK    6  A    between atoms: C_15  and  C_16
REMARK                            x       y       z     vdW  Elec       q    Type
REMARK                         _______ _______ _______ _____ _____    ______ ____
ROOT
ATOM      1  C   UNL     1      43.302   5.060  12.536  0.00  0.00    +0.000 C 
ATOM      2  F   UNL     1      42.652   6.228  12.245  0.00  0.00    +0.000 F 
ATOM      3  F   UNL     1      42.631   4.539  13.613  0.00  0.00    +0.000 F 
ENDROOT
BRANCH   1   4
ATOM      4  C   UNL     1      44.775   5.308  12.860  0.00  0.00    +0.000 A 
ATOM      5  C   UNL     1      45.374   6.495  12.431  0.00  0.00    +0.000 A 
ATOM      6  C   UNL     1      46.725   6.750  12.718  0.00  0.00    +0.000 A 
ATOM      7  C   UNL     1      47.418   5.767  13.439  0.00  0.00    +0.000 A 
ATOM      8  C   UNL     1      46.763   4.612  13.824  0.00  0.00    +0.000 A 
ATOM      9  N   UNL     1      45.467   4.366  13.556  0.00  0.00    +0.000 NA
BRANCH   6  10
ATOM     10  C   UNL     1      47.391   7.992  12.286  0.00  0.00    +0.000 A 
ATOM     11  C   UNL     1      48.720   8.056  11.890  0.00  0.00    +0.000 A 
ATOM     12  N   UNL     1      49.355   9.179  11.485  0.00  0.00    +0.000 NA
ATOM     13  C   UNL     1      48.613  10.295  11.473  0.00  0.00    +0.000 A 
ATOM     14  N   UNL     1      47.325  10.379  11.825  0.00  0.00    +0.000 NA
ATOM     15  C   UNL     1      46.752   9.223  12.228  0.00  0.00    +0.000 A 
ENDBRANCH   6  10
ENDBRANCH   1   4
BRANCH   1  16
ATOM     16  C   UNL     1      43.146   4.079  11.351  0.00  0.00    +0.000 C 
BRANCH  16  17
ATOM     17  N   UNL     1      43.644   4.607  10.065  0.00  0.00    +0.000 N 
ATOM     18  H   UNL     1      42.924   5.015   9.470  0.00  0.00    +0.000 HD
BRANCH  17  22
ATOM     19  C   UNL     1      46.429   2.358   7.829  0.00  0.00    +0.000 A 
ATOM     20  C   UNL     1      46.378   3.744   7.665  0.00  0.00    +0.000 A 
ATOM     21  C   UNL     1      45.471   4.504   8.413  0.00  0.00    +0.000 A 
ATOM     22  C   UNL     1      44.623   3.910   9.358  0.00  0.00    +0.000 A 
ATOM     23  C   UNL     1      44.671   2.516   9.490  0.00  0.00    +0.000 A 
ATOM     24  C   UNL     1      45.559   1.744   8.732  0.00  0.00    +0.000 A 
BRANCH  19  26
ATOM     25  N   UNL     1      48.453   2.125   6.502  0.00  0.00    +0.000 N 
ATOM     26  C   UNL     1      47.355   1.511   7.037  0.00  0.00    +0.000 C 
ATOM     27  O   UNL     1      47.173   0.310   6.898  0.00  0.00    +0.000 OA
ATOM     28  H   UNL     1      49.134   1.516   6.065  0.00  0.00    +0.000 HD
ATOM     29  H   UNL     1      48.765   3.036   6.806  0.00  0.00    +0.000 HD
ENDBRANCH  19  26
ENDBRANCH  17  22
ENDBRANCH  16  17
ENDBRANCH   1  16
TORSDOF 6
ENDMDL
MODEL 2
REMARK VINA RESULT:    -9.014      1.804      3.566
REMARK INTER + INTRA:         -13.060
REMARK INTER:                 -12.033
REMARK INTRA:                  -1.027
REMARK UNBOUND:                -0.885
REMARK  Name = 
REMARK  6 active torsions:
REMARK  status: ('A' for Active; 'I' for Inactive)
REMARK    1  A    between atoms: C_2  and  C_4
REMARK    2  A    between atoms: C_7  and  N_8
REMARK    3  A    between atoms: N_8  and  C_9
REMARK    4  A    between atoms: C_9  and  C_10
REMARK    5  A    between atoms: C_10  and  C_13
REMARK    6  A    between atoms: C_15  and  C_16
REMARK                            x       y       z     vdW  Elec       q    Type
REMARK                         _______ _______ _______ _____ _____    ______ ____
ROOT
ATOM      1  C   UNL     1      43.314   5.323  12.309  0.00  0.00    +0.000 C 
ATOM      2  F   UNL     1      42.591   6.459  12.069  0.00  0.00    +0.000 F 
ATOM      3  F   UNL     1      42.750   4.775  13.432  0.00  0.00    +0.000 F 
ENDROOT
BRANCH   1   4
ATOM      4  C   UNL     1      44.794   5.638  12.523  0.00  0.00    +0.000 A 
ATOM      5  C   UNL     1      45.455   5.082  13.621  0.00  0.00    +0.000 A 
ATOM      6  C   UNL     1      46.815   5.353  13.841  0.00  0.00    +0.000 A 
ATOM      7  C   UNL     1      47.453   6.194  12.917  0.00  0.00    +0.000 A 
ATOM      8  C   UNL     1      46.733   6.715  11.857  0.00  0.00    +0.000 A 
ATOM      9  N   UNL     1      45.431   6.454  11.640  0.00  0.00    +0.000 NA
BRANCH   6  10
ATOM     10  C   UNL     1      47.548   4.782  14.985  0.00  0.00    +0.000 A 
ATOM     11  C   UNL     1      48.300   5.539  15.874  0.00  0.00    +0.000 A 
ATOM     12  N   UNL     1      48.977   5.043  16.934  0.00  0.00    +0.000 NA
ATOM     13  C   UNL     1      48.889   3.718  17.113  0.00  0.00    +0.000 A 
ATOM     14  N   UNL     1      48.202   2.870  16.339  0.00  0.00    +0.000 NA
ATOM     15  C   UNL     1      47.554   3.429  15.292  0.00  0.00    +0.000 A 
ENDBRANCH   6  10
ENDBRANCH   1   4
BRANCH   1  16
ATOM     16  C   UNL     1      43.115   4.334  11.137  0.00  0.00    +0.000 C 
BRANCH  16  17
ATOM     17  N   UNL     1      43.727   4.775   9.869  0.00  0.00    +0.000 N 
ATOM     18  H   UNL     1      43.118   5.343   9.282  0.00  0.00    +0.000 HD
BRANCH  17  22
ATOM     19  C   UNL     1      46.382   2.252   7.770  0.00  0.00    +0.000 A 
ATOM     20  C   UNL     1      45.464   1.692   8.662  0.00  0.00    +0.000 A 
ATOM     21  C   UNL     1      44.567   2.515   9.351  0.00  0.00    +0.000 A 
ATOM     22  C   UNL     1      44.540   3.902   9.146  0.00  0.00    +0.000 A 
ATOM     23  C   UNL     1      45.484   4.447   8.267  0.00  0.00    +0.000 A 
ATOM     24  C   UNL     1      46.400   3.636   7.587  0.00  0.00    +0.000 A 
BRANCH  19  26
ATOM     25  N   UNL     1      48.466   2.060   6.533  0.00  0.00    +0.000 N 
ATOM     26  C   UNL     1      47.369   1.420   7.039  0.00  0.00    +0.000 C 
ATOM     27  O   UNL     1      47.236   0.210   6.925  0.00  0.00    +0.000 OA
ATOM     28  H   UNL     1      49.186   1.466   6.140  0.00  0.00    +0.000 HD
ATOM     29  H   UNL     1      48.733   2.989   6.825  0.00  0.00    +0.000 HD
ENDBRANCH  19  26
ENDBRANCH  17  22
ENDBRANCH  16  17
ENDBRANCH   1  16
TORSDOF 6
ENDMDL
MODEL 3
REMARK VINA RESULT:    -8.792      1.727      2.353
REMARK INTER + INTRA:         -12.760
REMARK INTER:                 -11.640
REMARK INTRA:                  -1.121
REMARK UNBOUND:                -0.885
REMARK  Name = 
REMARK  6 active torsions:
REMARK  status: ('A' for Active; 'I' for Inactive)
REMARK    1  A    between atoms: C_2  and  C_4
REMARK    2  A    between atoms: C_7  and  N_8
REMARK    3  A    between atoms: N_8  and  C_9
REMARK    4  A    between atoms: C_9  and  C_10
REMARK    5  A    between atoms: C_10  and  C_13
REMARK    6  A    between atoms: C_15  and  C_16
REMARK                            x       y       z     vdW  Elec       q    Type
REMARK                         _______ _______ _______ _____ _____    ______ ____
ROOT
ATOM      1  C   UNL     1      43.673   4.933  12.414  0.00  0.00    +0.000 C 
ATOM      2  F   UNL     1      42.689   5.082  13.352  0.00  0.00    +0.000 F 
ATOM      3  F   UNL     1      44.404   3.852  12.835  0.00  0.00    +0.000 F 
ENDROOT
BRANCH   1   4
ATOM      4  C   UNL     1      44.538   6.187  12.309  0.00  0.00    +0.000 A 
ATOM      5  C   UNL     1      45.792   6.201  12.926  0.00  0.00    +0.000 A 
ATOM      6  C   UNL     1      46.609   7.341  12.844  0.00  0.00    +0.000 A 
ATOM      7  C   UNL     1      46.104   8.434  12.126  0.00  0.00    +0.000 A 
ATOM      8  C   UNL     1      44.850   8.353  11.548  0.00  0.00    +0.000 A 
ATOM      9  N   UNL     1      44.066   7.261  11.620  0.00  0.00    +0.000 NA
BRANCH   6  10
ATOM     10  C   UNL     1      47.939   7.392  13.477  0.00  0.00    +0.000 A 
ATOM     11  C   UNL     1      48.325   6.569  14.527  0.00  0.00    +0.000 A 
ATOM     12  N   UNL     1      49.539   6.590  15.122  0.00  0.00    +0.000 NA
ATOM     13  C   UNL     1      50.412   7.481  14.633  0.00  0.00    +0.000 A 
ATOM     14  N   UNL     1      50.177   8.332  13.627  0.00  0.00    +0.000 NA
ATOM     15  C   UNL     1      48.942   8.265  13.081  0.00  0.00    +0.000 A 
ENDBRANCH   6  10
ENDBRANCH   1   4
BRANCH   1  16
ATOM     16  C   UNL     1      43.030   4.579  11.053  0.00  0.00    +0.000 C 
BRANCH  16  17
ATOM     17  N   UNL     1      43.839   4.981   9.885  0.00  0.00    +0.000 N 
ATOM     18  H   UNL     1      43.346   5.570   9.214  0.00  0.00    +0.000 HD
BRANCH  17  22
ATOM     19  C   UNL     1      46.273   2.095   7.999  0.00  0.00    +0.000 A 
ATOM     20  C   UNL     1      46.453   3.446   7.697  0.00  0.00    +0.000 A 
ATOM     21  C   UNL     1      45.665   4.415   8.328  0.00  0.00    +0.000 A 
ATOM     22  C   UNL     1      44.708   4.066   9.290  0.00  0.00    +0.000 A 
ATOM     23  C   UNL     1      44.525   2.704   9.562  0.00  0.00    +0.000 A 
ATOM     24  C   UNL     1      45.293   1.725   8.922  0.00  0.00    +0.000 A 
BRANCH  19  26
ATOM     25  N   UNL     1      46.782  -0.261   7.672  0.00  0.00    +0.000 N 
ATOM     26  C   UNL     1      47.068   1.032   7.334  0.00  0.00    +0.000 C 
ATOM     27  O   UNL     1      47.914   1.291   6.490  0.00  0.00    +0.000 OA
ATOM     28  H   UNL     1      47.247  -0.976   7.129  0.00  0.00    +0.000 HD
ATOM     29  H   UNL     1      45.934  -0.517   8.157  0.00  0.00    +0.000 HD
ENDBRANCH  19  26
ENDBRANCH  17  22
ENDBRANCH  16  17
ENDBRANCH   1  16
TORSDOF 6
ENDMDL
MODEL 4
REMARK VINA RESULT:    -8.754      1.562      2.416
REMARK INTER + INTRA:         -12.709
REMARK INTER:                 -11.616
REMARK INTRA:                  -1.093
REMARK UNBOUND:                -0.885
REMARK  Name = 
REMARK  6 active torsions:
REMARK  status: ('A' for Active; 'I' for Inactive)
REMARK    1  A    between atoms: C_2  and  C_4
REMARK    2  A    between atoms: C_7  and  N_8
REMARK    3  A    between atoms: N_8  and  C_9
REMARK    4  A    between atoms: C_9  and  C_10
REMARK    5  A    between atoms: C_10  and  C_13
REMARK    6  A    between atoms: C_15  and  C_16
REMARK                            x       y       z     vdW  Elec       q    Type
REMARK                         _______ _______ _______ _____ _____    ______ ____
ROOT
ATOM      1  C   UNL     1      43.668   4.915  12.435  0.00  0.00    +0.000 C 
ATOM      2  F   UNL     1      42.661   5.060  13.350  0.00  0.00    +0.000 F 
ATOM      3  F   UNL     1      44.412   3.858  12.892  0.00  0.00    +0.000 F 
ENDROOT
BRANCH   1   4
ATOM      4  C   UNL     1      44.509   6.186  12.324  0.00  0.00    +0.000 A 
ATOM      5  C   UNL     1      45.771   6.219  12.922  0.00  0.00    +0.000 A 
ATOM      6  C   UNL     1      46.566   7.373  12.834  0.00  0.00    +0.000 A 
ATOM      7  C   UNL     1      46.030   8.461  12.130  0.00  0.00    +0.000 A 
ATOM      8  C   UNL     1      44.770   8.360  11.570  0.00  0.00    +0.000 A 
ATOM      9  N   UNL     1      44.007   7.254  11.648  0.00  0.00    +0.000 NA
BRANCH   6  10
ATOM     10  C   UNL     1      47.904   7.445  13.448  0.00  0.00    +0.000 A 
ATOM     11  C   UNL     1      48.321   6.625  14.487  0.00  0.00    +0.000 A 
ATOM     12  N   UNL     1      49.542   6.665  15.065  0.00  0.00    +0.000 NA
ATOM     13  C   UNL     1      50.392   7.574  14.568  0.00  0.00    +0.000 A 
ATOM     14  N   UNL     1      50.127   8.426  13.571  0.00  0.00    +0.000 NA
ATOM     15  C   UNL     1      48.885   8.339  13.042  0.00  0.00    +0.000 A 
ENDBRANCH   6  10
ENDBRANCH   1   4
BRANCH   1  16
ATOM     16  C   UNL     1      43.062   4.522  11.067  0.00  0.00    +0.000 C 
BRANCH  16  17
ATOM     17  N   UNL     1      43.860   4.965   9.908  0.00  0.00    +0.000 N 
ATOM     18  H   UNL     1      43.399   5.655   9.317  0.00  0.00    +0.000 HD
BRANCH  17  22
ATOM     19  C   UNL     1      46.368   2.281   7.828  0.00  0.00    +0.000 A 
ATOM     20  C   UNL     1      45.436   1.782   8.740  0.00  0.00    +0.000 A 
ATOM     21  C   UNL     1      44.587   2.658   9.423  0.00  0.00    +0.000 A 
ATOM     22  C   UNL     1      44.623   4.041   9.193  0.00  0.00    +0.000 A 
ATOM     23  C   UNL     1      45.581   4.525   8.293  0.00  0.00    +0.000 A 
ATOM     24  C   UNL     1      46.450   3.659   7.619  0.00  0.00    +0.000 A 
BRANCH  19  26
ATOM     25  N   UNL     1      48.283   1.991   6.356  0.00  0.00    +0.000 N 
ATOM     26  C   UNL     1      47.307   1.390   7.102  0.00  0.00    +0.000 C 
ATOM     27  O   UNL     1      47.244   0.172   7.194  0.00  0.00    +0.000 OA
ATOM     28  H   UNL     1      48.984   1.377   5.962  0.00  0.00    +0.000 HD
ATOM     29  H   UNL     1      48.520   2.967   6.464  0.00  0.00    +0.000 HD
ENDBRANCH  19  26
ENDBRANCH  17  22
ENDBRANCH  16  17
ENDBRANCH   1  16
TORSDOF 6
ENDMDL
MODEL 5
REMARK VINA RESULT:    -8.385      1.273      1.330
REMARK INTER + INTRA:         -12.211
REMARK INTER:                 -11.367
REMARK INTRA:                  -0.844
REMARK UNBOUND:                -0.885
REMARK  Name = 
REMARK  6 active torsions:
REMARK  status: ('A' for Active; 'I' for Inactive)
REMARK    1  A    between atoms: C_2  and  C_4
REMARK    2  A    between atoms: C_7  and  N_8
REMARK    3  A    between atoms: N_8  and  C_9
REMARK    4  A    between atoms: C_9  and  C_10
REMARK    5  A    between atoms: C_10  and  C_13
REMARK    6  A    between atoms: C_15  and  C_16
REMARK                            x       y       z     vdW  Elec       q    Type
REMARK                         _______ _______ _______ _____ _____    ______ ____
ROOT
ATOM      1  C   UNL     1      43.596   5.752  12.132  0.00  0.00    +0.000 C 
ATOM      2  F   UNL     1      43.512   6.964  11.502  0.00  0.00    +0.000 F 
ATOM      3  F   UNL     1      42.634   5.793  13.108  0.00  0.00    +0.000 F 
ENDROOT
BRANCH   1   4
ATOM      4  C   UNL     1      44.986   5.527  12.725  0.00  0.00    +0.000 A 
ATOM      5  C   UNL     1      45.898   6.586  12.738  0.00  0.00    +0.000 A 
ATOM      6  C   UNL     1      47.182   6.408  13.279  0.00  0.00    +0.000 A 
ATOM      7  C   UNL     1      47.485   5.137  13.790  0.00  0.00    +0.000 A 
ATOM      8  C   UNL     1      46.535   4.134  13.737  0.00  0.00    +0.000 A 
ATOM      9  N   UNL     1      45.302   4.302  13.224  0.00  0.00    +0.000 NA
BRANCH   6  10
ATOM     10  C   UNL     1      48.170   7.501  13.314  0.00  0.00    +0.000 A 
ATOM     11  C   UNL     1      49.370   7.433  14.010  0.00  0.00    +0.000 A 
ATOM     12  N   UNL     1      50.296   8.416  14.055  0.00  0.00    +0.000 NA
ATOM     13  C   UNL     1      50.003   9.524  13.361  0.00  0.00    +0.000 A 
ATOM     14  N   UNL     1      48.890   9.726  12.647  0.00  0.00    +0.000 NA
ATOM     15  C   UNL     1      48.001   8.707  12.649  0.00  0.00    +0.000 A 
ENDBRANCH   6  10
ENDBRANCH   1   4
BRANCH   1  16
ATOM     16  C   UNL     1      43.224   4.631  11.134  0.00  0.00    +0.000 C 
BRANCH  16  17
ATOM     17  N   UNL     1      43.711   4.863   9.761  0.00  0.00    +0.000 N 
ATOM     18  H   UNL     1      42.999   5.193   9.111  0.00  0.00    +0.000 HD
BRANCH  17  22
ATOM     19  C   UNL     1      46.281   2.063   7.925  0.00  0.00    +0.000 A 
ATOM     20  C   UNL     1      46.438   3.422   7.648  0.00  0.00    +0.000 A 
ATOM     21  C   UNL     1      45.605   4.363   8.263  0.00  0.00    +0.000 A 
ATOM     22  C   UNL     1      44.623   3.978   9.186  0.00  0.00    +0.000 A 
ATOM     23  C   UNL     1      44.464   2.608   9.433  0.00  0.00    +0.000 A 
ATOM     24  C   UNL     1      45.278   1.656   8.808  0.00  0.00    +0.000 A 
BRANCH  19  26
ATOM     25  N   UNL     1      46.918  -0.268   7.654  0.00  0.00    +0.000 N 
ATOM     26  C   UNL     1      47.124   1.029   7.275  0.00  0.00    +0.000 C 
ATOM     27  O   UNL     1      47.940   1.312   6.409  0.00  0.00    +0.000 OA
ATOM     28  H   UNL     1      47.415  -0.971   7.122  0.00  0.00    +0.000 HD
ATOM     29  H   UNL     1      46.095  -0.559   8.161  0.00  0.00    +0.000 HD
ENDBRANCH  19  26
ENDBRANCH  17  22
ENDBRANCH  16  17
ENDBRANCH   1  16
TORSDOF 6
ENDMDL
MODEL 6
REMARK VINA RESULT:    -8.068      2.130      2.977
REMARK INTER + INTRA:         -11.783
REMARK INTER:                 -11.002
REMARK INTRA:                  -0.780
REMARK UNBOUND:                -0.885
REMARK  Name = 
REMARK  6 active torsions:
REMARK  status: ('A' for Active; 'I' for Inactive)
REMARK    1  A    between atoms: C_2  and  C_4
REMARK    2  A    between atoms: C_7  and  N_8
REMARK    3  A    between atoms: N_8  and  C_9
REMARK    4  A    between atoms: C_9  and  C_10
REMARK    5  A    between atoms: C_10  and  C_13
REMARK    6  A    between atoms: C_15  and  C_16
REMARK                            x       y       z     vdW  Elec       q    Type
REMARK                         _______ _______ _______ _____ _____    ______ ____
ROOT
ATOM      1  C   UNL     1      44.381   5.229  12.427  0.00  0.00    +0.000 C 
ATOM      2  F   UNL     1      43.353   5.347  13.322  0.00  0.00    +0.000 F 
ATOM      3  F   UNL     1      44.942   4.007  12.692  0.00  0.00    +0.000 F 
ENDROOT
BRANCH   1   4
ATOM      4  C   UNL     1      45.395   6.359  12.591  0.00  0.00    +0.000 A 
ATOM      5  C   UNL     1      46.497   6.167  13.428  0.00  0.00    +0.000 A 
ATOM      6  C   UNL     1      47.447   7.188  13.595  0.00  0.00    +0.000 A 
ATOM      7  C   UNL     1      47.227   8.381  12.891  0.00  0.00    +0.000 A 
ATOM      8  C   UNL     1      46.110   8.504  12.086  0.00  0.00    +0.000 A 
ATOM      9  N   UNL     1      45.200   7.526  11.919  0.00  0.00    +0.000 NA
BRANCH   6  10
ATOM     10  C   UNL     1      48.624   7.021  14.466  0.00  0.00    +0.000 A 
ATOM     11  C   UNL     1      48.654   6.178  15.568  0.00  0.00    +0.000 A 
ATOM     12  N   UNL     1      49.720   6.001  16.380  0.00  0.00    +0.000 NA
ATOM     13  C   UNL     1      50.816   6.705  16.065  0.00  0.00    +0.000 A 
ATOM     14  N   UNL     1      50.929   7.550  15.034  0.00  0.00    +0.000 NA
ATOM     15  C   UNL     1      49.825   7.688  14.266  0.00  0.00    +0.000 A 
ENDBRANCH   6  10
ENDBRANCH   1   4
BRANCH   1  16
ATOM     16  C   UNL     1      43.806   5.195  10.992  0.00  0.00    +0.000 C 
BRANCH  16  17
ATOM     17  N   UNL     1      43.655   3.835  10.438  0.00  0.00    +0.000 N 
ATOM     18  H   UNL     1      43.422   3.122  11.128  0.00  0.00    +0.000 HD
BRANCH  17  22
ATOM     19  C   UNL     1      46.456   2.638   7.516  0.00  0.00    +0.000 A 
ATOM     20  C   UNL     1      45.937   1.688   8.398  0.00  0.00    +0.000 A 
ATOM     21  C   UNL     1      44.994   2.068   9.360  0.00  0.00    +0.000 A 
ATOM     22  C   UNL     1      44.526   3.386   9.446  0.00  0.00    +0.000 A 
ATOM     23  C   UNL     1      45.076   4.330   8.568  0.00  0.00    +0.000 A 
ATOM     24  C   UNL     1      46.034   3.966   7.615  0.00  0.00    +0.000 A 
BRANCH  19  26
ATOM     25  N   UNL     1      47.545   3.079   5.387  0.00  0.00    +0.000 N 
ATOM     26  C   UNL     1      47.477   2.286   6.499  0.00  0.00    +0.000 C 
ATOM     27  O   UNL     1      48.253   1.354   6.657  0.00  0.00    +0.000 OA
ATOM     28  H   UNL     1      48.318   2.899   4.759  0.00  0.00    +0.000 HD
ATOM     29  H   UNL     1      47.108   3.988   5.344  0.00  0.00    +0.000 HD
ENDBRANCH  19  26
ENDBRANCH  17  22
ENDBRANCH  16  17
ENDBRANCH   1  16
TORSDOF 6
ENDMDL
MODEL 7
REMARK VINA RESULT:    -7.924      1.546      2.453
REMARK INTER + INTRA:         -11.588
REMARK INTER:                 -10.447
REMARK INTRA:                  -1.141
REMARK UNBOUND:                -0.885
REMARK  Name = 
REMARK  6 active torsions:
REMARK  status: ('A' for Active; 'I' for Inactive)
REMARK    1  A    between atoms: C_2  and  C_4
REMARK    2  A    between atoms: C_7  and  N_8
REMARK    3  A    between atoms: N_8  and  C_9
REMARK    4  A    between atoms: C_9  and  C_10
REMARK    5  A    between atoms: C_10  and  C_13
REMARK    6  A    between atoms: C_15  and  C_16
REMARK                            x       y       z     vdW  Elec       q    Type
REMARK                         _______ _______ _______ _____ _____    ______ ____
ROOT
ATOM      1  C   UNL     1      45.228   5.224  12.466  0.00  0.00    +0.000 C 
ATOM      2  F   UNL     1      44.858   4.933  13.750  0.00  0.00    +0.000 F 
ATOM      3  F   UNL     1      46.248   4.352  12.186  0.00  0.00    +0.000 F 
ENDROOT
BRANCH   1   4
ATOM      4  C   UNL     1      45.680   6.677  12.331  0.00  0.00    +0.000 A 
ATOM      5  C   UNL     1      47.047   6.961  12.285  0.00  0.00    +0.000 A 
ATOM      6  C   UNL     1      47.491   8.288  12.159  0.00  0.00    +0.000 A 
ATOM      7  C   UNL     1      46.505   9.283  12.086  0.00  0.00    +0.000 A 
ATOM      8  C   UNL     1      45.170   8.928  12.145  0.00  0.00    +0.000 A 
ATOM      9  N   UNL     1      44.740   7.658  12.261  0.00  0.00    +0.000 NA
BRANCH   6  10
ATOM     10  C   UNL     1      48.924   8.627  12.103  0.00  0.00    +0.000 A 
ATOM     11  C   UNL     1      49.913   7.906  12.758  0.00  0.00    +0.000 A 
ATOM     12  N   UNL     1      51.234   8.191  12.720  0.00  0.00    +0.000 NA
ATOM     13  C   UNL     1      51.579   9.253  11.980  0.00  0.00    +0.000 A 
ATOM     14  N   UNL     1      50.736  10.035  11.296  0.00  0.00    +0.000 NA
ATOM     15  C   UNL     1      49.429   9.701  11.382  0.00  0.00    +0.000 A 
ENDBRANCH   6  10
ENDBRANCH   1   4
BRANCH   1  16
ATOM     16  C   UNL     1      44.051   4.911  11.513  0.00  0.00    +0.000 C 
BRANCH  16  17
ATOM     17  N   UNL     1      44.334   5.204  10.094  0.00  0.00    +0.000 N 
ATOM     18  H   UNL     1      43.593   5.711   9.612  0.00  0.00    +0.000 HD
BRANCH  17  22
ATOM     19  C   UNL     1      46.453   2.403   7.753  0.00  0.00    +0.000 A 
ATOM     20  C   UNL     1      45.552   1.948   8.718  0.00  0.00    +0.000 A 
ATOM     21  C   UNL     1      44.830   2.866   9.488  0.00  0.00    +0.000 A 
ATOM     22  C   UNL     1      44.963   4.248   9.297  0.00  0.00    +0.000 A 
ATOM     23  C   UNL     1      45.891   4.685   8.342  0.00  0.00    +0.000 A 
ATOM     24  C   UNL     1      46.634   3.777   7.579  0.00  0.00    +0.000 A 
BRANCH  19  26
ATOM     25  N   UNL     1      48.319   1.994   6.248  0.00  0.00    +0.000 N 
ATOM     26  C   UNL     1      47.260   1.466   6.932  0.00  0.00    +0.000 C 
ATOM     27  O   UNL     1      47.020   0.267   6.896  0.00  0.00    +0.000 OA
ATOM     28  H   UNL     1      48.928   1.328   5.788  0.00  0.00    +0.000 HD
ATOM     29  H   UNL     1      48.695   2.908   6.456  0.00  0.00    +0.000 HD
ENDBRANCH  19  26
ENDBRANCH  17  22
ENDBRANCH  16  17
ENDBRANCH   1  16
TORSDOF 6
ENDMDL
MODEL 8
REMARK VINA RESULT:    -7.550      3.129      7.034
REMARK INTER + INTRA:         -11.083
REMARK INTER:                 -10.343
REMARK INTRA:                  -0.741
REMARK UNBOUND:                -0.885
REMARK  Name = 
REMARK  6 active torsions:
REMARK  status: ('A' for Active; 'I' for Inactive)
REMARK    1  A    between atoms: C_2  and  C_4
REMARK    2  A    between atoms: C_7  and  N_8
REMARK    3  A    between atoms: N_8  and  C_9
REMARK    4  A    between atoms: C_9  and  C_10
REMARK    5  A    between atoms: C_10  and  C_13
REMARK    6  A    between atoms: C_15  and  C_16
REMARK                            x       y       z     vdW  Elec       q    Type
REMARK                         _______ _______ _______ _____ _____    ______ ____
ROOT
ATOM      1  C   UNL     1      45.749   7.627  11.963  0.00  0.00    +0.000 C 
ATOM      2  F   UNL     1      45.381   7.836  13.264  0.00  0.00    +0.000 F 
ATOM      3  F   UNL     1      45.502   8.817  11.329  0.00  0.00    +0.000 F 
ENDROOT
BRANCH   1   4
ATOM      4  C   UNL     1      44.956   6.483  11.336  0.00  0.00    +0.000 A 
ATOM      5  C   UNL     1      45.605   5.602  10.467  0.00  0.00    +0.000 A 
ATOM      6  C   UNL     1      44.900   4.540   9.878  0.00  0.00    +0.000 A 
ATOM      7  C   UNL     1      43.542   4.420  10.204  0.00  0.00    +0.000 A 
ATOM      8  C   UNL     1      42.963   5.333  11.066  0.00  0.00    +0.000 A 
ATOM      9  N   UNL     1      43.636   6.350  11.637  0.00  0.00    +0.000 NA
BRANCH   6  10
ATOM     10  C   UNL     1      45.551   3.588   8.960  0.00  0.00    +0.000 A 
ATOM     11  C   UNL     1      46.299   3.971   7.855  0.00  0.00    +0.000 A 
ATOM     12  N   UNL     1      46.912   3.121   7.000  0.00  0.00    +0.000 NA
ATOM     13  C   UNL     1      46.768   1.818   7.274  0.00  0.00    +0.000 A 
ATOM     14  N   UNL     1      46.080   1.307   8.301  0.00  0.00    +0.000 NA
ATOM     15  C   UNL     1      45.486   2.210   9.113  0.00  0.00    +0.000 A 
ENDBRANCH   6  10
ENDBRANCH   1   4
BRANCH   1  16
ATOM     16  C   UNL     1      47.270   7.356  11.901  0.00  0.00    +0.000 C 
BRANCH  16  17
ATOM     17  N   UNL     1      47.951   7.451  13.207  0.00  0.00    +0.000 N 
ATOM     18  H   UNL     1      48.859   7.912  13.177  0.00  0.00    +0.000 HD
BRANCH  17  22
ATOM     19  C   UNL     1      47.695   4.363  16.074  0.00  0.00    +0.000 A 
ATOM     20  C   UNL     1      47.076   4.200  14.832  0.00  0.00    +0.000 A 
ATOM     21  C   UNL     1      47.168   5.208  13.867  0.00  0.00    +0.000 A 
ATOM     22  C   UNL     1      47.899   6.381  14.100  0.00  0.00    +0.000 A 
ATOM     23  C   UNL     1      48.492   6.537  15.360  0.00  0.00    +0.000 A 
ATOM     24  C   UNL     1      48.390   5.544  16.341  0.00  0.00    +0.000 A 
BRANCH  19  26
ATOM     25  N   UNL     1      48.771   2.937  17.724  0.00  0.00    +0.000 N 
ATOM     26  C   UNL     1      47.601   3.332  17.136  0.00  0.00    +0.000 C 
ATOM     27  O   UNL     1      46.526   2.880  17.504  0.00  0.00    +0.000 OA
ATOM     28  H   UNL     1      48.682   2.323  18.523  0.00  0.00    +0.000 HD
ATOM     29  H   UNL     1      49.627   3.464  17.631  0.00  0.00    +0.000 HD
ENDBRANCH  19  26
ENDBRANCH  17  22
ENDBRANCH  16  17
ENDBRANCH   1  16
TORSDOF 6
ENDMDL
