MODEL 1
REMARK VINA RESULT:    -9.453      0.000      0.000
REMARK INTER + INTRA:         -12.457
REMARK INTER:                 -11.663
REMARK INTRA:                  -0.794
REMARK UNBOUND:                -0.794
REMARK  Name = 
REMARK  4 active torsions:
REMARK  status: ('A' for Active; 'I' for Inactive)
REMARK    1  A    between atoms: C_2  and  C_4
REMARK    2  A    between atoms: N_8  and  C_9
REMARK    3  A    between atoms: C_9  and  C_10
REMARK    4  A    between atoms: C_14  and  C_15
REMARK                            x       y       z     vdW  Elec       q    Type
REMARK                         _______ _______ _______ _____ _____    ______ ____
ROOT
ATOM      1  C   UNL     1      44.058   4.930  11.503  0.00  0.00    +0.000 C 
ATOM      2  C   UNL     1      42.857   5.092  12.431  0.00  0.00    +0.000 C 
ATOM      3  C   UNL     1      43.027   6.025  11.284  0.00  0.00    +0.000 C 
ENDROOT
BRANCH   1   8
ATOM      4  C   UNL     1      46.486   2.716   7.481  0.00  0.00    +0.000 A 
ATOM      5  C   UNL     1      46.123   4.046   7.662  0.00  0.00    +0.000 A 
ATOM      6  C   UNL     1      45.335   4.393   8.758  0.00  0.00    +0.000 A 
ATOM      7  C   UNL     1      44.916   3.413   9.652  0.00  0.00    +0.000 A 
ATOM      8  N   UNL     1      44.082   3.674  10.738  0.00  0.00    +0.000 N 
ATOM      9  N   UNL     1      45.245   2.113   9.470  0.00  0.00    +0.000 NA
ATOM     10  C   UNL     1      46.012   1.790   8.395  0.00  0.00    +0.000 A 
ATOM     11  H   UNL     1      43.999   2.806  11.260  0.00  0.00    +0.000 HD
BRANCH   4  13
ATOM     12  N   UNL     1      47.173   2.925   5.161  0.00  0.00    +0.000 N 
ATOM     13  C   UNL     1      47.320   2.264   6.350  0.00  0.00    +0.000 C 
ATOM     14  O   UNL     1      48.130   1.357   6.476  0.00  0.00    +0.000 OA
ATOM     15  H   UNL     1      47.808   2.663   4.419  0.00  0.00    +0.000 HD
ATOM     16  H   UNL     1      46.702   3.815   5.081  0.00  0.00    +0.000 HD
ENDBRANCH   4  13
ENDBRANCH   1   8
BRANCH   1  17
ATOM     17  C   UNL     1      45.423   5.394  12.015  0.00  0.00    +0.000 A 
ATOM     18  C   UNL     1      46.105   6.458  11.407  0.00  0.00    +0.000 A 
ATOM     19  C   UNL     1      47.275   6.976  11.961  0.00  0.00    +0.000 A 
ATOM     20  C   UNL     1      47.780   6.445  13.149  0.00  0.00    +0.000 A 
ATOM     21  C   UNL     1      47.141   5.375  13.795  0.00  0.00    +0.000 A 
ATOM     22  C   UNL     1      45.995   4.840  13.178  0.00  0.00    +0.000 A 
BRANCH  21  23
ATOM     23  C   UNL     1      47.582   4.892  15.120  0.00  0.00    +0.000 A 
ATOM     24  C   UNL     1      47.218   3.638  15.631  0.00  0.00    +0.000 A 
ATOM     25  C   UNL     1      47.599   3.264  16.920  0.00  0.00    +0.000 A 
ATOM     26  C   UNL     1      48.351   4.150  17.668  0.00  0.00    +0.000 A 
ATOM     27  F   UNL     1      48.715   3.794  18.907  0.00  0.00    +0.000 F 
ATOM     28  N   UNL     1      48.737   5.361  17.229  0.00  0.00    +0.000 NA
ATOM     29  C   UNL     1      48.339   5.699  15.978  0.00  0.00    +0.000 A 
ENDBRANCH  21  23
ENDBRANCH   1  17
TORSDOF 4
ENDMDL
MODEL 2
REMARK VINA RESULT:    -9.446      2.839      3.932
REMARK INTER + INTRA:         -12.449
REMARK INTER:                 -11.312
REMARK INTRA:                  -1.137
REMARK UNBOUND:                -0.794
REMARK  Name = 
REMARK  4 active torsions:
REMARK  status: ('A' for Active; 'I' for Inactive)
REMARK    1  A    between atoms: C_2  and  C_4
REMARK    2  A    between atoms: N_8  and  C_9
REMARK    3  A    between atoms: C_9  and  C_10
REMARK    4  A    between atoms: C_14  and  C_15
REMARK                            x       y       z     vdW  Elec       q    Type
REMARK                         _______ _______ _______ _____ _____    ______ ____
ROOT
ATOM      1  C   UNL     1      43.833   4.893  11.398  0.00  0.00    +0.000 C 
ATOM      2  C   UNL     1      42.480   5.180  12.046  0.00  0.00    +0.000 C 
ATOM      3  C   UNL     1      43.011   6.113  11.014  0.00  0.00    +0.000 C 
ENDROOT
BRANCH   1   8
ATOM      4  C   UNL     1      46.539   2.730   7.529  0.00  0.00    +0.000 A 
ATOM      5  C   UNL     1      46.206   4.065   7.726  0.00  0.00    +0.000 A 
ATOM      6  C   UNL     1      45.334   4.403   8.760  0.00  0.00    +0.000 A 
ATOM      7  C   UNL     1      44.804   3.409   9.576  0.00  0.00    +0.000 A 
ATOM      8  N   UNL     1      43.883   3.665  10.592  0.00  0.00    +0.000 N 
ATOM      9  N   UNL     1      45.104   2.106   9.375  0.00  0.00    +0.000 NA
ATOM     10  C   UNL     1      45.954   1.791   8.362  0.00  0.00    +0.000 A 
ATOM     11  H   UNL     1      43.725   2.783  11.071  0.00  0.00    +0.000 HD
BRANCH   4  13
ATOM     12  N   UNL     1      47.391   2.947   5.266  0.00  0.00    +0.000 N 
ATOM     13  C   UNL     1      47.457   2.286   6.461  0.00  0.00    +0.000 C 
ATOM     14  O   UNL     1      48.263   1.386   6.645  0.00  0.00    +0.000 OA
ATOM     15  H   UNL     1      48.080   2.691   4.571  0.00  0.00    +0.000 HD
ATOM     16  H   UNL     1      46.920   3.833   5.152  0.00  0.00    +0.000 HD
ENDBRANCH   4  13
ENDBRANCH   1   8
BRANCH   1  17
ATOM     17  C   UNL     1      45.091   5.171  12.221  0.00  0.00    +0.000 A 
ATOM     18  C   UNL     1      45.560   4.251  13.170  0.00  0.00    +0.000 A 
ATOM     19  C   UNL     1      46.783   4.436  13.813  0.00  0.00    +0.000 A 
ATOM     20  C   UNL     1      47.573   5.545  13.505  0.00  0.00    +0.000 A 
ATOM     21  C   UNL     1      47.150   6.500  12.568  0.00  0.00    +0.000 A 
ATOM     22  C   UNL     1      45.884   6.312  11.982  0.00  0.00    +0.000 A 
BRANCH  21  23
ATOM     23  C   UNL     1      48.030   7.604  12.132  0.00  0.00    +0.000 A 
ATOM     24  C   UNL     1      49.371   7.409  11.775  0.00  0.00    +0.000 A 
ATOM     25  C   UNL     1      50.179   8.499  11.444  0.00  0.00    +0.000 A 
ATOM     26  C   UNL     1      49.620   9.763  11.466  0.00  0.00    +0.000 A 
ATOM     27  F   UNL     1      50.394  10.811  11.153  0.00  0.00    +0.000 F 
ATOM     28  N   UNL     1      48.339  10.010  11.792  0.00  0.00    +0.000 NA
ATOM     29  C   UNL     1      47.586   8.932  12.120  0.00  0.00    +0.000 A 
ENDBRANCH  21  23
ENDBRANCH   1  17
TORSDOF 4
ENDMDL
MODEL 3
REMARK VINA RESULT:    -7.257      4.162      7.704
REMARK INTER + INTRA:          -9.748
REMARK INTER:                  -9.032
REMARK INTRA:                  -0.716
REMARK UNBOUND:                -0.794
REMARK  Name = 
REMARK  4 active torsions:
REMARK  status: ('A' for Active; 'I' for Inactive)
REMARK    1  A    between atoms: C_2  and  C_4
REMARK    2  A    between atoms: N_8  and  C_9
REMARK    3  A    between atoms: C_9  and  C_10
REMARK    4  A    between atoms: C_14  and  C_15
REMARK                            x       y       z     vdW  Elec       q    Type
REMARK                         _______ _______ _______ _____ _____    ______ ____
ROOT
ATOM      1  C   UNL     1      44.020   5.507  11.513  0.00  0.00    +0.000 C 
ATOM      2  C   UNL     1      42.597   6.058  11.472  0.00  0.00    +0.000 C 
ATOM      3  C   UNL     1      43.143   5.537  12.755  0.00  0.00    +0.000 C 
ENDROOT
BRANCH   1   8
ATOM      4  C   UNL     1      48.656   7.036  13.287  0.00  0.00    +0.000 A 
ATOM      5  C   UNL     1      47.558   6.563  13.997  0.00  0.00    +0.000 A 
ATOM      6  C   UNL     1      46.353   6.356  13.327  0.00  0.00    +0.000 A 
ATOM      7  C   UNL     1      46.258   6.627  11.966  0.00  0.00    +0.000 A 
ATOM      8  N   UNL     1      45.073   6.497  11.242  0.00  0.00    +0.000 N 
ATOM      9  N   UNL     1      47.315   7.109  11.274  0.00  0.00    +0.000 NA
ATOM     10  C   UNL     1      48.483   7.309  11.940  0.00  0.00    +0.000 A 
ATOM     11  H   UNL     1      45.303   6.682  10.270  0.00  0.00    +0.000 HD
BRANCH   4  13
ATOM     12  N   UNL     1      50.905   7.944  13.173  0.00  0.00    +0.000 N 
ATOM     13  C   UNL     1      49.969   7.280  13.917  0.00  0.00    +0.000 C 
ATOM     14  O   UNL     1      50.202   6.930  15.065  0.00  0.00    +0.000 OA
ATOM     15  H   UNL     1      51.769   8.180  13.644  0.00  0.00    +0.000 HD
ATOM     16  H   UNL     1      50.678   8.452  12.330  0.00  0.00    +0.000 HD
ENDBRANCH   4  13
ENDBRANCH   1   8
BRANCH   1  17
ATOM     17  C   UNL     1      44.268   4.126  10.907  0.00  0.00    +0.000 A 
ATOM     18  C   UNL     1      43.513   3.011  11.299  0.00  0.00    +0.000 A 
ATOM     19  C   UNL     1      43.637   1.787  10.644  0.00  0.00    +0.000 A 
ATOM     20  C   UNL     1      44.516   1.658   9.567  0.00  0.00    +0.000 A 
ATOM     21  C   UNL     1      45.301   2.738   9.137  0.00  0.00    +0.000 A 
ATOM     22  C   UNL     1      45.192   3.942   9.858  0.00  0.00    +0.000 A 
BRANCH  21  23
ATOM     23  C   UNL     1      46.133   2.659   7.919  0.00  0.00    +0.000 A 
ATOM     24  C   UNL     1      46.152   3.667   6.945  0.00  0.00    +0.000 A 
ATOM     25  C   UNL     1      46.897   3.505   5.776  0.00  0.00    +0.000 A 
ATOM     26  C   UNL     1      47.620   2.339   5.612  0.00  0.00    +0.000 A 
ATOM     27  F   UNL     1      48.333   2.179   4.489  0.00  0.00    +0.000 F 
ATOM     28  N   UNL     1      47.647   1.341   6.514  0.00  0.00    +0.000 NA
ATOM     29  C   UNL     1      46.903   1.525   7.632  0.00  0.00    +0.000 A 
ENDBRANCH  21  23
ENDBRANCH   1  17
TORSDOF 4
ENDMDL
MODEL 4
REMARK VINA RESULT:    -7.242      4.281      8.552
REMARK INTER + INTRA:          -9.730
REMARK INTER:                  -8.716
REMARK INTRA:                  -1.013
REMARK UNBOUND:                -0.794
REMARK  Name = 
REMARK  4 active torsions:
REMARK  status: ('A' for Active; 'I' for Inactive)
REMARK    1  A    between atoms: C_2  and  C_4
REMARK    2  A    between atoms: N_8  and  C_9
REMARK    3  A    between atoms: C_9  and  C_10
REMARK    4  A    between atoms: C_14  and  C_15
REMARK                            x       y       z     vdW  Elec       q    Type
REMARK                         _______ _______ _______ _____ _____    ______ ____
ROOT
ATOM      1  C   UNL     1      49.096   8.057  12.910  0.00  0.00    +0.000 C 
ATOM      2  C   UNL     1      50.023   8.377  11.740  0.00  0.00    +0.000 C 
ATOM      3  C   UNL     1      49.618   9.465  12.672  0.00  0.00    +0.000 C 
ENDROOT
BRANCH   1   8
ATOM      4  C   UNL     1      48.551   6.733  17.902  0.00  0.00    +0.000 A 
ATOM      5  C   UNL     1      48.415   7.982  17.307  0.00  0.00    +0.000 A 
ATOM      6  C   UNL     1      48.761   8.137  15.966  0.00  0.00    +0.000 A 
ATOM      7  C   UNL     1      49.242   7.051  15.241  0.00  0.00    +0.000 A 
ATOM      8  N   UNL     1      49.660   7.143  13.914  0.00  0.00    +0.000 N 
ATOM      9  N   UNL     1      49.400   5.839  15.819  0.00  0.00    +0.000 NA
ATOM     10  C   UNL     1      49.060   5.703  17.129  0.00  0.00    +0.000 A 
ATOM     11  H   UNL     1      49.887   6.199  13.613  0.00  0.00    +0.000 HD
BRANCH   4  13
ATOM     12  N   UNL     1      47.271   5.513  19.566  0.00  0.00    +0.000 N 
ATOM     13  C   UNL     1      48.205   6.480  19.315  0.00  0.00    +0.000 C 
ATOM     14  O   UNL     1      48.750   7.088  20.225  0.00  0.00    +0.000 OA
ATOM     15  H   UNL     1      47.104   5.290  20.539  0.00  0.00    +0.000 HD
ATOM     16  H   UNL     1      46.981   4.835  18.875  0.00  0.00    +0.000 HD
ENDBRANCH   4  13
ENDBRANCH   1   8
BRANCH   1  17
ATOM     17  C   UNL     1      47.613   7.838  12.605  0.00  0.00    +0.000 A 
ATOM     18  C   UNL     1      46.669   8.855  12.807  0.00  0.00    +0.000 A 
ATOM     19  C   UNL     1      45.347   8.706  12.393  0.00  0.00    +0.000 A 
ATOM     20  C   UNL     1      44.944   7.534  11.751  0.00  0.00    +0.000 A 
ATOM     21  C   UNL     1      45.846   6.481  11.529  0.00  0.00    +0.000 A 
ATOM     22  C   UNL     1      47.158   6.643  12.012  0.00  0.00    +0.000 A 
BRANCH  21  23
ATOM     23  C   UNL     1      45.473   5.293  10.734  0.00  0.00    +0.000 A 
ATOM     24  C   UNL     1      45.698   5.203   9.353  0.00  0.00    +0.000 A 
ATOM     25  C   UNL     1      45.255   4.089   8.637  0.00  0.00    +0.000 A 
ATOM     26  C   UNL     1      44.607   3.081   9.323  0.00  0.00    +0.000 A 
ATOM     27  F   UNL     1      44.178   2.012   8.638  0.00  0.00    +0.000 F 
ATOM     28  N   UNL     1      44.371   3.107  10.647  0.00  0.00    +0.000 NA
ATOM     29  C   UNL     1      44.801   4.208  11.310  0.00  0.00    +0.000 A 
ENDBRANCH  21  23
ENDBRANCH   1  17
TORSDOF 4
ENDMDL
MODEL 5
REMARK VINA RESULT:    -7.026      4.263      7.519
REMARK INTER + INTRA:          -9.463
REMARK INTER:                  -8.425
REMARK INTRA:                  -1.039
REMARK UNBOUND:                -0.794
REMARK  Name = 
REMARK  4 active torsions:
REMARK  status: ('A' for Active; 'I' for Inactive)
REMARK    1  A    between atoms: C_2  and  C_4
REMARK    2  A    between atoms: N_8  and  C_9
REMARK    3  A    between atoms: C_9  and  C_10
REMARK    4  A    between atoms: C_14  and  C_15
REMARK                            x       y       z     vdW  Elec       q    Type
REMARK                         _______ _______ _______ _____ _____    ______ ____
ROOT
ATOM      1  C   UNL     1      46.424   5.141  13.768  0.00  0.00    +0.000 C 
ATOM      2  C   UNL     1      46.457   4.232  14.994  0.00  0.00    +0.000 C 
ATOM      3  C   UNL     1      47.525   4.110  13.964  0.00  0.00    +0.000 C 
ENDROOT
BRANCH   1   8
ATOM      4  C   UNL     1      48.495   9.438  11.712  0.00  0.00    +0.000 A 
ATOM      5  C   UNL     1      48.954   8.127  11.650  0.00  0.00    +0.000 A 
ATOM      6  C   UNL     1      48.319   7.147  12.411  0.00  0.00    +0.000 A 
ATOM      7  C   UNL     1      47.243   7.486  13.225  0.00  0.00    +0.000 A 
ATOM      8  N   UNL     1      46.595   6.573  14.055  0.00  0.00    +0.000 N 
ATOM      9  N   UNL     1      46.806   8.763  13.310  0.00  0.00    +0.000 NA
ATOM     10  C   UNL     1      47.437   9.709  12.564  0.00  0.00    +0.000 A 
ATOM     11  H   UNL     1      45.809   7.064  14.473  0.00  0.00    +0.000 HD
BRANCH   4  13
ATOM     12  N   UNL     1      50.474  10.596  10.913  0.00  0.00    +0.000 N 
ATOM     13  C   UNL     1      49.107  10.535  10.938  0.00  0.00    +0.000 C 
ATOM     14  O   UNL     1      48.425  11.339  10.319  0.00  0.00    +0.000 OA
ATOM     15  H   UNL     1      50.882  11.300  10.312  0.00  0.00    +0.000 HD
ATOM     16  H   UNL     1      51.064   9.829  11.203  0.00  0.00    +0.000 HD
ENDBRANCH   4  13
ENDBRANCH   1   8
BRANCH   1  17
ATOM     17  C   UNL     1      45.405   4.825  12.672  0.00  0.00    +0.000 A 
ATOM     18  C   UNL     1      44.083   5.288  12.751  0.00  0.00    +0.000 A 
ATOM     19  C   UNL     1      43.197   5.127  11.687  0.00  0.00    +0.000 A 
ATOM     20  C   UNL     1      43.623   4.508  10.511  0.00  0.00    +0.000 A 
ATOM     21  C   UNL     1      44.932   4.020  10.380  0.00  0.00    +0.000 A 
ATOM     22  C   UNL     1      45.782   4.148  11.495  0.00  0.00    +0.000 A 
BRANCH  21  23
ATOM     23  C   UNL     1      45.439   3.487   9.099  0.00  0.00    +0.000 A 
ATOM     24  C   UNL     1      45.614   2.117   8.863  0.00  0.00    +0.000 A 
ATOM     25  C   UNL     1      46.169   1.672   7.662  0.00  0.00    +0.000 A 
ATOM     26  C   UNL     1      46.527   2.612   6.715  0.00  0.00    +0.000 A 
ATOM     27  F   UNL     1      47.064   2.189   5.562  0.00  0.00    +0.000 F 
ATOM     28  N   UNL     1      46.376   3.938   6.881  0.00  0.00    +0.000 NA
ATOM     29  C   UNL     1      45.846   4.337   8.063  0.00  0.00    +0.000 A 
ENDBRANCH  21  23
ENDBRANCH   1  17
TORSDOF 4
ENDMDL
MODEL 6
REMARK VINA RESULT:    -6.879      3.738      7.750
REMARK INTER + INTRA:          -9.282
REMARK INTER:                  -9.323
REMARK INTRA:                   0.041
REMARK UNBOUND:                -0.794
REMARK  Name = 
REMARK  4 active torsions:
REMARK  status: ('A' for Active; 'I' for Inactive)
REMARK    1  A    between atoms: C_2  and  C_4
REMARK    2  A    between atoms: N_8  and  C_9
REMARK    3  A    between atoms: C_9  and  C_10
REMARK    4  A    between atoms: C_14  and  C_15
REMARK                            x       y       z     vdW  Elec       q    Type
REMARK                         _______ _______ _______ _____ _____    ______ ____
ROOT
ATOM      1  C   UNL     1      48.593   8.021  12.739  0.00  0.00    +0.000 C 
ATOM      2  C   UNL     1      49.707   7.490  11.840  0.00  0.00    +0.000 C 
ATOM      3  C   UNL     1      49.395   8.946  11.838  0.00  0.00    +0.000 C 
ENDROOT
BRANCH   1   8
ATOM      4  C   UNL     1      48.249   4.513  16.554  0.00  0.00    +0.000 A 
ATOM      5  C   UNL     1      47.415   4.700  15.457  0.00  0.00    +0.000 A 
ATOM      6  C   UNL     1      47.610   5.810  14.637  0.00  0.00    +0.000 A 
ATOM      7  C   UNL     1      48.624   6.718  14.922  0.00  0.00    +0.000 A 
ATOM      8  N   UNL     1      48.843   7.878  14.181  0.00  0.00    +0.000 N 
ATOM      9  N   UNL     1      49.424   6.556  16.001  0.00  0.00    +0.000 NA
ATOM     10  C   UNL     1      49.222   5.470  16.794  0.00  0.00    +0.000 A 
ATOM     11  H   UNL     1      49.683   8.311  14.556  0.00  0.00    +0.000 HD
BRANCH   4  13
ATOM     12  N   UNL     1      46.870   2.814  17.606  0.00  0.00    +0.000 N 
ATOM     13  C   UNL     1      48.115   3.365  17.472  0.00  0.00    +0.000 C 
ATOM     14  O   UNL     1      49.080   2.904  18.065  0.00  0.00    +0.000 OA
ATOM     15  H   UNL     1      46.806   1.977  18.170  0.00  0.00    +0.000 HD
ATOM     16  H   UNL     1      46.112   3.004  16.965  0.00  0.00    +0.000 HD
ENDBRANCH   4  13
ENDBRANCH   1   8
BRANCH   1  17
ATOM     17  C   UNL     1      47.148   7.764  12.311  0.00  0.00    +0.000 A 
ATOM     18  C   UNL     1      46.194   8.792  12.311  0.00  0.00    +0.000 A 
ATOM     19  C   UNL     1      44.919   8.596  11.783  0.00  0.00    +0.000 A 
ATOM     20  C   UNL     1      44.576   7.362  11.228  0.00  0.00    +0.000 A 
ATOM     21  C   UNL     1      45.489   6.296  11.208  0.00  0.00    +0.000 A 
ATOM     22  C   UNL     1      46.747   6.513  11.801  0.00  0.00    +0.000 A 
BRANCH  21  23
ATOM     23  C   UNL     1      45.192   5.031  10.505  0.00  0.00    +0.000 A 
ATOM     24  C   UNL     1      45.559   4.799   9.172  0.00  0.00    +0.000 A 
ATOM     25  C   UNL     1      45.184   3.615   8.533  0.00  0.00    +0.000 A 
ATOM     26  C   UNL     1      44.459   2.682   9.249  0.00  0.00    +0.000 A 
ATOM     27  F   UNL     1      44.095   1.547   8.637  0.00  0.00    +0.000 F 
ATOM     28  N   UNL     1      44.085   2.846  10.530  0.00  0.00    +0.000 NA
ATOM     29  C   UNL     1      44.453   4.011  11.117  0.00  0.00    +0.000 A 
ENDBRANCH  21  23
ENDBRANCH   1  17
TORSDOF 4
ENDMDL
MODEL 7
REMARK VINA RESULT:    -6.712      4.147      8.520
REMARK INTER + INTRA:          -9.076
REMARK INTER:                  -8.419
REMARK INTRA:                  -0.657
REMARK UNBOUND:                -0.794
REMARK  Name = 
REMARK  4 active torsions:
REMARK  status: ('A' for Active; 'I' for Inactive)
REMARK    1  A    between atoms: C_2  and  C_4
REMARK    2  A    between atoms: N_8  and  C_9
REMARK    3  A    between atoms: C_9  and  C_10
REMARK    4  A    between atoms: C_14  and  C_15
REMARK                            x       y       z     vdW  Elec       q    Type
REMARK                         _______ _______ _______ _____ _____    ______ ____
ROOT
ATOM      1  C   UNL     1      48.309   4.915  17.260  0.00  0.00    +0.000 C 
ATOM      2  C   UNL     1      47.126   5.146  18.198  0.00  0.00    +0.000 C 
ATOM      3  C   UNL     1      47.196   3.889  17.403  0.00  0.00    +0.000 C 
ENDROOT
BRANCH   1   8
ATOM      4  C   UNL     1      52.378   1.705  17.584  0.00  0.00    +0.000 A 
ATOM      5  C   UNL     1      51.029   1.399  17.443  0.00  0.00    +0.000 A 
ATOM      6  C   UNL     1      50.087   2.422  17.534  0.00  0.00    +0.000 A 
ATOM      7  C   UNL     1      50.499   3.729  17.770  0.00  0.00    +0.000 A 
ATOM      8  N   UNL     1      49.613   4.794  17.929  0.00  0.00    +0.000 N 
ATOM      9  N   UNL     1      51.808   4.031  17.933  0.00  0.00    +0.000 NA
ATOM     10  C   UNL     1      52.716   3.023  17.844  0.00  0.00    +0.000 A 
ATOM     11  H   UNL     1      50.177   5.635  18.011  0.00  0.00    +0.000 HD
BRANCH   4  13
ATOM     12  N   UNL     1      53.302  -0.430  18.281  0.00  0.00    +0.000 N 
ATOM     13  C   UNL     1      53.441   0.684  17.499  0.00  0.00    +0.000 C 
ATOM     14  O   UNL     1      54.391   0.812  16.740  0.00  0.00    +0.000 OA
ATOM     15  H   UNL     1      53.991  -1.159  18.152  0.00  0.00    +0.000 HD
ATOM     16  H   UNL     1      52.433  -0.682  18.730  0.00  0.00    +0.000 HD
ENDBRANCH   4  13
ENDBRANCH   1   8
BRANCH   1  17
ATOM     17  C   UNL     1      48.335   5.689  15.941  0.00  0.00    +0.000 A 
ATOM     18  C   UNL     1      49.363   6.597  15.649  0.00  0.00    +0.000 A 
ATOM     19  C   UNL     1      49.468   7.190  14.392  0.00  0.00    +0.000 A 
ATOM     20  C   UNL     1      48.547   6.873  13.392  0.00  0.00    +0.000 A 
ATOM     21  C   UNL     1      47.494   5.977  13.632  0.00  0.00    +0.000 A 
ATOM     22  C   UNL     1      47.385   5.442  14.929  0.00  0.00    +0.000 A 
BRANCH  21  23
ATOM     23  C   UNL     1      46.594   5.528  12.550  0.00  0.00    +0.000 A 
ATOM     24  C   UNL     1      46.450   6.226  11.343  0.00  0.00    +0.000 A 
ATOM     25  C   UNL     1      45.527   5.799  10.387  0.00  0.00    +0.000 A 
ATOM     26  C   UNL     1      44.775   4.671  10.655  0.00  0.00    +0.000 A 
ATOM     27  F   UNL     1      43.886   4.261   9.740  0.00  0.00    +0.000 F 
ATOM     28  N   UNL     1      44.876   3.956  11.790  0.00  0.00    +0.000 NA
ATOM     29  C   UNL     1      45.771   4.405  12.702  0.00  0.00    +0.000 A 
ENDBRANCH  21  23
ENDBRANCH   1  17
TORSDOF 4
ENDMDL
MODEL 8
REMARK VINA RESULT:    -6.707      3.558      5.361
REMARK INTER + INTRA:          -9.069
REMARK INTER:                  -8.245
REMARK INTRA:                  -0.825
REMARK UNBOUND:                -0.794
REMARK  Name = 
REMARK  4 active torsions:
REMARK  status: ('A' for Active; 'I' for Inactive)
REMARK    1  A    between atoms: C_2  and  C_4
REMARK    2  A    between atoms: N_8  and  C_9
REMARK    3  A    between atoms: C_9  and  C_10
REMARK    4  A    between atoms: C_14  and  C_15
REMARK                            x       y       z     vdW  Elec       q    Type
REMARK                         _______ _______ _______ _____ _____    ______ ____
ROOT
ATOM      1  C   UNL     1      49.248   8.450  12.358  0.00  0.00    +0.000 C 
ATOM      2  C   UNL     1      50.366   9.166  11.605  0.00  0.00    +0.000 C 
ATOM      3  C   UNL     1      50.204   7.694  11.450  0.00  0.00    +0.000 C 
ENDROOT
BRANCH   1   8
ATOM      4  C   UNL     1      44.569   6.374  11.481  0.00  0.00    +0.000 A 
ATOM      5  C   UNL     1      45.827   5.840  11.226  0.00  0.00    +0.000 A 
ATOM      6  C   UNL     1      46.954   6.642  11.399  0.00  0.00    +0.000 A 
ATOM      7  C   UNL     1      46.812   7.961  11.817  0.00  0.00    +0.000 A 
ATOM      8  N   UNL     1      47.887   8.838  11.958  0.00  0.00    +0.000 N 
ATOM      9  N   UNL     1      45.591   8.495  12.045  0.00  0.00    +0.000 NA
ATOM     10  C   UNL     1      44.500   7.702  11.870  0.00  0.00    +0.000 A 
ATOM     11  H   UNL     1      47.513   9.700  12.345  0.00  0.00    +0.000 HD
BRANCH   4  13
ATOM     12  N   UNL     1      42.157   6.199  11.705  0.00  0.00    +0.000 N 
ATOM     13  C   UNL     1      43.325   5.595  11.327  0.00  0.00    +0.000 C 
ATOM     14  O   UNL     1      43.331   4.468  10.852  0.00  0.00    +0.000 OA
ATOM     15  H   UNL     1      41.305   5.690  11.516  0.00  0.00    +0.000 HD
ATOM     16  H   UNL     1      42.081   7.193  11.871  0.00  0.00    +0.000 HD
ENDBRANCH   4  13
ENDBRANCH   1   8
BRANCH   1  17
ATOM     17  C   UNL     1      49.433   8.219  13.859  0.00  0.00    +0.000 A 
ATOM     18  C   UNL     1      49.905   9.237  14.701  0.00  0.00    +0.000 A 
ATOM     19  C   UNL     1      49.934   9.074  16.085  0.00  0.00    +0.000 A 
ATOM     20  C   UNL     1      49.475   7.888  16.658  0.00  0.00    +0.000 A 
ATOM     21  C   UNL     1      48.999   6.834  15.863  0.00  0.00    +0.000 A 
ATOM     22  C   UNL     1      49.038   7.010  14.467  0.00  0.00    +0.000 A 
BRANCH  21  23
ATOM     23  C   UNL     1      48.385   5.628  16.456  0.00  0.00    +0.000 A 
ATOM     24  C   UNL     1      48.662   5.199  17.761  0.00  0.00    +0.000 A 
ATOM     25  C   UNL     1      48.114   4.009  18.244  0.00  0.00    +0.000 A 
ATOM     26  C   UNL     1      47.287   3.280  17.412  0.00  0.00    +0.000 A 
ATOM     27  F   UNL     1      46.762   2.136  17.872  0.00  0.00    +0.000 F 
ATOM     28  N   UNL     1      46.978   3.646  16.155  0.00  0.00    +0.000 NA
ATOM     29  C   UNL     1      47.537   4.798  15.712  0.00  0.00    +0.000 A 
ENDBRANCH  21  23
ENDBRANCH   1  17
TORSDOF 4
ENDMDL
MODEL 9
REMARK VINA RESULT:    -6.606      3.040      4.741
REMARK INTER + INTRA:          -8.945
REMARK INTER:                  -8.520
REMARK INTRA:                  -0.425
REMARK UNBOUND:                -0.794
REMARK  Name = 
REMARK  4 active torsions:
REMARK  status: ('A' for Active; 'I' for Inactive)
REMARK    1  A    between atoms: C_2  and  C_4
REMARK    2  A    between atoms: N_8  and  C_9
REMARK    3  A    between atoms: C_9  and  C_10
REMARK    4  A    between atoms: C_14  and  C_15
REMARK                            x       y       z     vdW  Elec       q    Type
REMARK                         _______ _______ _______ _____ _____    ______ ____
ROOT
ATOM      1  C   UNL     1      47.395   8.394  13.326  0.00  0.00    +0.000 C 
ATOM      2  C   UNL     1      47.686   9.671  12.541  0.00  0.00    +0.000 C 
ATOM      3  C   UNL     1      48.332   8.394  12.128  0.00  0.00    +0.000 C 
ENDROOT
BRANCH   1   8
ATOM      4  C   UNL     1      44.544   4.427  11.563  0.00  0.00    +0.000 A 
ATOM      5  C   UNL     1      45.681   5.003  11.009  0.00  0.00    +0.000 A 
ATOM      6  C   UNL     1      46.198   6.168  11.575  0.00  0.00    +0.000 A 
ATOM      7  C   UNL     1      45.574   6.742  12.677  0.00  0.00    +0.000 A 
ATOM      8  N   UNL     1      46.000   7.934  13.262  0.00  0.00    +0.000 N 
ATOM      9  N   UNL     1      44.454   6.200  13.208  0.00  0.00    +0.000 NA
ATOM     10  C   UNL     1      43.959   5.066  12.644  0.00  0.00    +0.000 A 
ATOM     11  H   UNL     1      45.420   8.080  14.084  0.00  0.00    +0.000 HD
BRANCH   4  13
ATOM     12  N   UNL     1      43.458   2.287  11.937  0.00  0.00    +0.000 N 
ATOM     13  C   UNL     1      43.933   3.193  11.029  0.00  0.00    +0.000 C 
ATOM     14  O   UNL     1      43.828   3.002   9.826  0.00  0.00    +0.000 OA
ATOM     15  H   UNL     1      42.967   1.488  11.559  0.00  0.00    +0.000 HD
ATOM     16  H   UNL     1      43.309   2.511  12.910  0.00  0.00    +0.000 HD
ENDBRANCH   4  13
ENDBRANCH   1   8
BRANCH   1  17
ATOM     17  C   UNL     1      48.062   8.229  14.692  0.00  0.00    +0.000 A 
ATOM     18  C   UNL     1      48.030   9.254  15.648  0.00  0.00    +0.000 A 
ATOM     19  C   UNL     1      48.507   9.051  16.942  0.00  0.00    +0.000 A 
ATOM     20  C   UNL     1      49.017   7.805  17.310  0.00  0.00    +0.000 A 
ATOM     21  C   UNL     1      49.079   6.746  16.392  0.00  0.00    +0.000 A 
ATOM     22  C   UNL     1      48.642   7.004  15.079  0.00  0.00    +0.000 A 
BRANCH  21  23
ATOM     23  C   UNL     1      49.488   5.386  16.800  0.00  0.00    +0.000 A 
ATOM     24  C   UNL     1      50.754   5.101  17.330  0.00  0.00    +0.000 A 
ATOM     25  C   UNL     1      51.114   3.785  17.627  0.00  0.00    +0.000 A 
ATOM     26  C   UNL     1      50.192   2.782  17.398  0.00  0.00    +0.000 A 
ATOM     27  F   UNL     1      50.537   1.518  17.679  0.00  0.00    +0.000 F 
ATOM     28  N   UNL     1      48.961   2.996  16.900  0.00  0.00    +0.000 NA
ATOM     29  C   UNL     1      48.648   4.282  16.610  0.00  0.00    +0.000 A 
ENDBRANCH  21  23
ENDBRANCH   1  17
TORSDOF 4
ENDMDL
