MODEL 1
REMARK VINA RESULT:    -9.143      0.000      0.000
REMARK INTER + INTRA:         -13.443
REMARK INTER:                 -12.617
REMARK INTRA:                  -0.826
REMARK UNBOUND:                -0.826
REMARK  Name = 
REMARK  8 active torsions:
REMARK  status: ('A' for Active; 'I' for Inactive)
REMARK    1  A    between atoms: C_1  and  C_2
REMARK    2  A    between atoms: C_2  and  O_3
REMARK    3  A    between atoms: C_5  and  O_6
REMARK    4  A    between atoms: O_6  and  C_7
REMARK    5  A    between atoms: C_11  and  C_12
REMARK    6  A    between atoms: C_12  and  C_13
REMARK    7  A    between atoms: C_13  and  N_14
REMARK    8  A    between atoms: C_18  and  C_19
REMARK                            x       y       z     vdW  Elec       q    Type
REMARK                         _______ _______ _______ _____ _____    ______ ____
ROOT
ATOM      1  C   UNL     1      43.202   5.342  12.267  0.00  0.00    +0.000 C 
ENDROOT
BRANCH   1   6
ATOM      2  C   UNL     1      46.834   5.608  13.526  0.00  0.00    +0.000 A 
ATOM      3  C   UNL     1      47.162   6.897  13.115  0.00  0.00    +0.000 A 
ATOM      4  C   UNL     1      46.195   7.689  12.492  0.00  0.00    +0.000 A 
ATOM      5  C   UNL     1      44.917   7.184  12.250  0.00  0.00    +0.000 A 
ATOM      6  C   UNL     1      44.585   5.871  12.613  0.00  0.00    +0.000 A 
ATOM      7  C   UNL     1      45.561   5.099  13.267  0.00  0.00    +0.000 A 
BRANCH   2   8
ATOM      8  O   UNL     1      47.692   4.760  14.183  0.00  0.00    +0.000 OA
BRANCH   8  12
ATOM      9  C   UNL     1      48.767   3.216  18.319  0.00  0.00    +0.000 C 
ATOM     10  C   UNL     1      47.649   3.322  17.297  0.00  0.00    +0.000 C 
ATOM     11  C   UNL     1      48.041   2.880  15.867  0.00  0.00    +0.000 C 
ATOM     12  C   UNL     1      47.180   4.054  15.333  0.00  0.00    +0.000 C 
ATOM     13  C   UNL     1      47.415   4.738  16.703  0.00  0.00    +0.000 C 
BRANCH  10  14
ATOM     14  O   UNL     1      46.460   2.689  17.821  0.00  0.00    +0.000 OA
ATOM     15  H   UNL     1      45.786   3.390  17.854  0.00  0.00    +0.000 HD
ENDBRANCH  10  14
ENDBRANCH   8  12
ENDBRANCH   2   8
ENDBRANCH   1   6
BRANCH   1  16
ATOM     16  C   UNL     1      43.163   4.461  11.016  0.00  0.00    +0.000 C 
BRANCH  16  17
ATOM     17  N   UNL     1      43.930   5.021   9.897  0.00  0.00    +0.000 N 
ATOM     18  C   UNL     1      44.705   4.021   9.270  0.00  0.00    +0.000 A 
ATOM     19  C   UNL     1      45.524   4.370   8.201  0.00  0.00    +0.000 A 
ATOM     20  C   UNL     1      46.286   3.380   7.571  0.00  0.00    +0.000 A 
ATOM     21  C   UNL     1      46.217   2.058   8.015  0.00  0.00    +0.000 A 
ATOM     22  C   UNL     1      45.368   1.798   9.072  0.00  0.00    +0.000 A 
ATOM     23  N   UNL     1      44.621   2.741   9.692  0.00  0.00    +0.000 NA
ATOM     24  H   UNL     1      44.553   5.768  10.195  0.00  0.00    +0.000 HD
BRANCH  21  25
ATOM     25  C   UNL     1      47.033   1.015   7.350  0.00  0.00    +0.000 C 
ATOM     26  N   UNL     1      46.784  -0.303   7.627  0.00  0.00    +0.000 N 
ATOM     27  O   UNL     1      47.925   1.314   6.565  0.00  0.00    +0.000 OA
ATOM     28  H   UNL     1      46.091  -0.659   8.267  0.00  0.00    +0.000 HD
ATOM     29  H   UNL     1      47.371  -0.981   7.158  0.00  0.00    +0.000 HD
ENDBRANCH  21  25
ENDBRANCH  16  17
ENDBRANCH   1  16
TORSDOF 7
ENDMDL
MODEL 2
REMARK VINA RESULT:    -8.844      1.322      1.591
REMARK INTER + INTRA:         -13.030
REMARK INTER:                 -12.074
REMARK INTRA:                  -0.956
REMARK UNBOUND:                -0.826
REMARK  Name = 
REMARK  8 active torsions:
REMARK  status: ('A' for Active; 'I' for Inactive)
REMARK    1  A    between atoms: C_1  and  C_2
REMARK    2  A    between atoms: C_2  and  O_3
REMARK    3  A    between atoms: C_5  and  O_6
REMARK    4  A    between atoms: O_6  and  C_7
REMARK    5  A    between atoms: C_11  and  C_12
REMARK    6  A    between atoms: C_12  and  C_13
REMARK    7  A    between atoms: C_13  and  N_14
REMARK    8  A    between atoms: C_18  and  C_19
REMARK                            x       y       z     vdW  Elec       q    Type
REMARK                         _______ _______ _______ _____ _____    ______ ____
ROOT
ATOM      1  C   UNL     1      43.658   5.759  12.010  0.00  0.00    +0.000 C 
ENDROOT
BRANCH   1   6
ATOM      2  C   UNL     1      47.102   5.089  13.602  0.00  0.00    +0.000 A 
ATOM      3  C   UNL     1      47.890   6.015  12.924  0.00  0.00    +0.000 A 
ATOM      4  C   UNL     1      47.298   6.887  12.008  0.00  0.00    +0.000 A 
ATOM      5  C   UNL     1      45.929   6.810  11.744  0.00  0.00    +0.000 A 
ATOM      6  C   UNL     1      45.130   5.850  12.381  0.00  0.00    +0.000 A 
ATOM      7  C   UNL     1      45.738   5.002  13.322  0.00  0.00    +0.000 A 
BRANCH   2   8
ATOM      8  O   UNL     1      47.573   4.214  14.551  0.00  0.00    +0.000 OA
BRANCH   8  12
ATOM      9  C   UNL     1      49.037   4.095  18.851  0.00  0.00    +0.000 C 
ATOM     10  C   UNL     1      47.846   4.414  17.964  0.00  0.00    +0.000 C 
ATOM     11  C   UNL     1      47.499   3.314  16.934  0.00  0.00    +0.000 C 
ATOM     12  C   UNL     1      47.184   4.446  15.921  0.00  0.00    +0.000 C 
ATOM     13  C   UNL     1      48.141   5.339  16.751  0.00  0.00    +0.000 C 
BRANCH  10  14
ATOM     14  O   UNL     1      46.738   4.843  18.788  0.00  0.00    +0.000 OA
ATOM     15  H   UNL     1      46.436   4.044  19.252  0.00  0.00    +0.000 HD
ENDBRANCH  10  14
ENDBRANCH   8  12
ENDBRANCH   2   8
ENDBRANCH   1   6
BRANCH   1  16
ATOM     16  C   UNL     1      43.395   5.138  10.636  0.00  0.00    +0.000 C 
BRANCH  16  17
ATOM     17  N   UNL     1      43.657   3.694  10.600  0.00  0.00    +0.000 N 
ATOM     18  C   UNL     1      44.581   3.378   9.581  0.00  0.00    +0.000 A 
ATOM     19  C   UNL     1      44.933   2.047   9.375  0.00  0.00    +0.000 A 
ATOM     20  C   UNL     1      45.856   1.731   8.372  0.00  0.00    +0.000 A 
ATOM     21  C   UNL     1      46.415   2.746   7.593  0.00  0.00    +0.000 A 
ATOM     22  C   UNL     1      46.020   4.039   7.874  0.00  0.00    +0.000 A 
ATOM     23  N   UNL     1      45.133   4.364   8.841  0.00  0.00    +0.000 NA
ATOM     24  H   UNL     1      42.810   3.155  10.441  0.00  0.00    +0.000 HD
BRANCH  21  25
ATOM     25  C   UNL     1      47.386   2.404   6.525  0.00  0.00    +0.000 C 
ATOM     26  N   UNL     1      47.343   3.092   5.341  0.00  0.00    +0.000 N 
ATOM     27  O   UNL     1      48.215   1.517   6.685  0.00  0.00    +0.000 OA
ATOM     28  H   UNL     1      46.694   3.823   5.098  0.00  0.00    +0.000 HD
ATOM     29  H   UNL     1      48.018   2.819   4.638  0.00  0.00    +0.000 HD
ENDBRANCH  21  25
ENDBRANCH  16  17
ENDBRANCH   1  16
TORSDOF 7
ENDMDL
MODEL 3
REMARK VINA RESULT:    -7.755      2.380      4.174
REMARK INTER + INTRA:         -11.528
REMARK INTER:                 -10.899
REMARK INTRA:                  -0.629
REMARK UNBOUND:                -0.826
REMARK  Name = 
REMARK  8 active torsions:
REMARK  status: ('A' for Active; 'I' for Inactive)
REMARK    1  A    between atoms: C_1  and  C_2
REMARK    2  A    between atoms: C_2  and  O_3
REMARK    3  A    between atoms: C_5  and  O_6
REMARK    4  A    between atoms: O_6  and  C_7
REMARK    5  A    between atoms: C_11  and  C_12
REMARK    6  A    between atoms: C_12  and  C_13
REMARK    7  A    between atoms: C_13  and  N_14
REMARK    8  A    between atoms: C_18  and  C_19
REMARK                            x       y       z     vdW  Elec       q    Type
REMARK                         _______ _______ _______ _____ _____    ______ ____
ROOT
ATOM      1  C   UNL     1      43.352   5.053  12.350  0.00  0.00    +0.000 C 
ENDROOT
BRANCH   1   6
ATOM      2  C   UNL     1      46.908   6.537  12.379  0.00  0.00    +0.000 A 
ATOM      3  C   UNL     1      47.540   5.688  13.284  0.00  0.00    +0.000 A 
ATOM      4  C   UNL     1      46.836   4.612  13.829  0.00  0.00    +0.000 A 
ATOM      5  C   UNL     1      45.496   4.405  13.498  0.00  0.00    +0.000 A 
ATOM      6  C   UNL     1      44.830   5.279  12.626  0.00  0.00    +0.000 A 
ATOM      7  C   UNL     1      45.563   6.338  12.064  0.00  0.00    +0.000 A 
BRANCH   2   8
ATOM      8  O   UNL     1      47.516   7.597  11.753  0.00  0.00    +0.000 OA
BRANCH   8  12
ATOM      9  C   UNL     1      51.192  10.119  10.873  0.00  0.00    +0.000 C 
ATOM     10  C   UNL     1      50.509   9.263  11.926  0.00  0.00    +0.000 C 
ATOM     11  C   UNL     1      50.026   7.884  11.419  0.00  0.00    +0.000 C 
ATOM     12  C   UNL     1      48.764   8.069  12.302  0.00  0.00    +0.000 C 
ATOM     13  C   UNL     1      49.016   9.594  12.194  0.00  0.00    +0.000 C 
BRANCH  10  14
ATOM     14  O   UNL     1      51.334   9.216  13.113  0.00  0.00    +0.000 OA
ATOM     15  H   UNL     1      51.008   9.934  13.683  0.00  0.00    +0.000 HD
ENDBRANCH  10  14
ENDBRANCH   8  12
ENDBRANCH   2   8
ENDBRANCH   1   6
BRANCH   1  16
ATOM     16  C   UNL     1      43.061   4.391  11.001  0.00  0.00    +0.000 C 
BRANCH  16  17
ATOM     17  N   UNL     1      43.843   4.964   9.900  0.00  0.00    +0.000 N 
ATOM     18  C   UNL     1      44.639   3.976   9.282  0.00  0.00    +0.000 A 
ATOM     19  C   UNL     1      45.475   4.339   8.230  0.00  0.00    +0.000 A 
ATOM     20  C   UNL     1      46.258   3.360   7.609  0.00  0.00    +0.000 A 
ATOM     21  C   UNL     1      46.194   2.035   8.044  0.00  0.00    +0.000 A 
ATOM     22  C   UNL     1      45.328   1.761   9.084  0.00  0.00    +0.000 A 
ATOM     23  N   UNL     1      44.560   2.692   9.694  0.00  0.00    +0.000 NA
ATOM     24  H   UNL     1      44.453   5.715  10.214  0.00  0.00    +0.000 HD
BRANCH  21  25
ATOM     25  C   UNL     1      47.033   1.004   7.388  0.00  0.00    +0.000 C 
ATOM     26  N   UNL     1      46.787  -0.318   7.648  0.00  0.00    +0.000 N 
ATOM     27  O   UNL     1      47.940   1.317   6.627  0.00  0.00    +0.000 OA
ATOM     28  H   UNL     1      46.082  -0.685   8.268  0.00  0.00    +0.000 HD
ATOM     29  H   UNL     1      47.390  -0.988   7.186  0.00  0.00    +0.000 HD
ENDBRANCH  21  25
ENDBRANCH  16  17
ENDBRANCH   1  16
TORSDOF 7
ENDMDL
MODEL 4
REMARK VINA RESULT:    -7.408      1.929      2.281
REMARK INTER + INTRA:         -11.049
REMARK INTER:                 -10.311
REMARK INTRA:                  -0.738
REMARK UNBOUND:                -0.826
REMARK  Name = 
REMARK  8 active torsions:
REMARK  status: ('A' for Active; 'I' for Inactive)
REMARK    1  A    between atoms: C_1  and  C_2
REMARK    2  A    between atoms: C_2  and  O_3
REMARK    3  A    between atoms: C_5  and  O_6
REMARK    4  A    between atoms: O_6  and  C_7
REMARK    5  A    between atoms: C_11  and  C_12
REMARK    6  A    between atoms: C_12  and  C_13
REMARK    7  A    between atoms: C_13  and  N_14
REMARK    8  A    between atoms: C_18  and  C_19
REMARK                            x       y       z     vdW  Elec       q    Type
REMARK                         _______ _______ _______ _____ _____    ______ ____
ROOT
ATOM      1  C   UNL     1      43.916   5.280  12.347  0.00  0.00    +0.000 C 
ENDROOT
BRANCH   1   6
ATOM      2  C   UNL     1      47.376   6.757  13.177  0.00  0.00    +0.000 A 
ATOM      3  C   UNL     1      47.272   8.016  12.592  0.00  0.00    +0.000 A 
ATOM      4  C   UNL     1      46.073   8.400  11.990  0.00  0.00    +0.000 A 
ATOM      5  C   UNL     1      44.992   7.518  11.942  0.00  0.00    +0.000 A 
ATOM      6  C   UNL     1      45.096   6.229  12.483  0.00  0.00    +0.000 A 
ATOM      7  C   UNL     1      46.300   5.870  13.112  0.00  0.00    +0.000 A 
BRANCH   2   8
ATOM      8  O   UNL     1      48.492   6.293  13.830  0.00  0.00    +0.000 OA
BRANCH   8  12
ATOM      9  C   UNL     1      50.496   5.083  17.725  0.00  0.00    +0.000 C 
ATOM     10  C   UNL     1      49.586   6.112  17.076  0.00  0.00    +0.000 C 
ATOM     11  C   UNL     1      48.421   5.512  16.255  0.00  0.00    +0.000 C 
ATOM     12  C   UNL     1      48.645   6.646  15.221  0.00  0.00    +0.000 C 
ATOM     13  C   UNL     1      50.103   6.717  15.742  0.00  0.00    +0.000 C 
BRANCH  10  14
ATOM     14  O   UNL     1      49.190   7.090  18.064  0.00  0.00    +0.000 OA
ATOM     15  H   UNL     1      48.232   7.209  17.941  0.00  0.00    +0.000 HD
ENDBRANCH  10  14
ENDBRANCH   8  12
ENDBRANCH   2   8
ENDBRANCH   1   6
BRANCH   1  16
ATOM     16  C   UNL     1      43.611   4.861  10.906  0.00  0.00    +0.000 C 
BRANCH  16  17
ATOM     17  N   UNL     1      43.781   3.421  10.679  0.00  0.00    +0.000 N 
ATOM     18  C   UNL     1      44.681   3.183   9.619  0.00  0.00    +0.000 A 
ATOM     19  C   UNL     1      44.947   1.871   9.238  0.00  0.00    +0.000 A 
ATOM     20  C   UNL     1      45.847   1.631   8.193  0.00  0.00    +0.000 A 
ATOM     21  C   UNL     1      46.468   2.702   7.547  0.00  0.00    +0.000 A 
ATOM     22  C   UNL     1      46.157   3.969   7.999  0.00  0.00    +0.000 A 
ATOM     23  N   UNL     1      45.293   4.221   9.009  0.00  0.00    +0.000 NA
ATOM     24  H   UNL     1      42.900   2.962  10.460  0.00  0.00    +0.000 HD
BRANCH  21  25
ATOM     25  C   UNL     1      47.413   2.441   6.435  0.00  0.00    +0.000 C 
ATOM     26  N   UNL     1      47.335   3.208   5.302  0.00  0.00    +0.000 N 
ATOM     27  O   UNL     1      48.252   1.553   6.513  0.00  0.00    +0.000 OA
ATOM     28  H   UNL     1      46.675   3.948   5.125  0.00  0.00    +0.000 HD
ATOM     29  H   UNL     1      47.993   2.989   4.565  0.00  0.00    +0.000 HD
ENDBRANCH  21  25
ENDBRANCH  16  17
ENDBRANCH   1  16
TORSDOF 7
ENDMDL
MODEL 5
REMARK VINA RESULT:    -7.288      2.771      5.234
REMARK INTER + INTRA:         -10.884
REMARK INTER:                 -10.714
REMARK INTRA:                  -0.170
REMARK UNBOUND:                -0.826
REMARK  Name = 
REMARK  8 active torsions:
REMARK  status: ('A' for Active; 'I' for Inactive)
REMARK    1  A    between atoms: C_1  and  C_2
REMARK    2  A    between atoms: C_2  and  O_3
REMARK    3  A    between atoms: C_5  and  O_6
REMARK    4  A    between atoms: O_6  and  C_7
REMARK    5  A    between atoms: C_11  and  C_12
REMARK    6  A    between atoms: C_12  and  C_13
REMARK    7  A    between atoms: C_13  and  N_14
REMARK    8  A    between atoms: C_18  and  C_19
REMARK                            x       y       z     vdW  Elec       q    Type
REMARK                         _______ _______ _______ _____ _____    ______ ____
ROOT
ATOM      1  C   UNL     1      43.512   4.469  12.718  0.00  0.00    +0.000 C 
ENDROOT
BRANCH   1   6
ATOM      2  C   UNL     1      45.705   7.635  12.804  0.00  0.00    +0.000 A 
ATOM      3  C   UNL     1      46.956   7.082  13.068  0.00  0.00    +0.000 A 
ATOM      4  C   UNL     1      47.092   5.696  13.156  0.00  0.00    +0.000 A 
ATOM      5  C   UNL     1      45.979   4.866  13.015  0.00  0.00    +0.000 A 
ATOM      6  C   UNL     1      44.704   5.408  12.797  0.00  0.00    +0.000 A 
ATOM      7  C   UNL     1      44.591   6.804  12.681  0.00  0.00    +0.000 A 
BRANCH   2   8
ATOM      8  O   UNL     1      45.465   8.979  12.656  0.00  0.00    +0.000 OA
BRANCH   8  12
ATOM      9  C   UNL     1      41.954  10.771  10.395  0.00  0.00    +0.000 C 
ATOM     10  C   UNL     1      43.391  10.298  10.263  0.00  0.00    +0.000 C 
ATOM     11  C   UNL     1      43.663   8.895  10.855  0.00  0.00    +0.000 C 
ATOM     12  C   UNL     1      45.025   9.439  11.361  0.00  0.00    +0.000 C 
ATOM     13  C   UNL     1      44.378  10.847  11.329  0.00  0.00    +0.000 C 
BRANCH  10  14
ATOM     14  O   UNL     1      43.828  10.472   8.896  0.00  0.00    +0.000 OA
ATOM     15  H   UNL     1      43.084  10.902   8.439  0.00  0.00    +0.000 HD
ENDBRANCH  10  14
ENDBRANCH   8  12
ENDBRANCH   2   8
ENDBRANCH   1   6
BRANCH   1  16
ATOM     16  C   UNL     1      42.985   4.242  11.299  0.00  0.00    +0.000 C 
BRANCH  16  17
ATOM     17  N   UNL     1      43.798   4.905  10.273  0.00  0.00    +0.000 N 
ATOM     18  C   UNL     1      44.569   3.964   9.558  0.00  0.00    +0.000 A 
ATOM     19  C   UNL     1      45.428   4.411   8.559  0.00  0.00    +0.000 A 
ATOM     20  C   UNL     1      46.187   3.480   7.841  0.00  0.00    +0.000 A 
ATOM     21  C   UNL     1      46.075   2.119   8.129  0.00  0.00    +0.000 A 
ATOM     22  C   UNL     1      45.189   1.762   9.126  0.00  0.00    +0.000 A 
ATOM     23  N   UNL     1      44.444   2.646   9.828  0.00  0.00    +0.000 NA
ATOM     24  H   UNL     1      44.428   5.597  10.672  0.00  0.00    +0.000 HD
BRANCH  21  25
ATOM     25  C   UNL     1      46.888   1.137   7.371  0.00  0.00    +0.000 C 
ATOM     26  N   UNL     1      46.804  -0.191   7.698  0.00  0.00    +0.000 N 
ATOM     27  O   UNL     1      47.633   1.496   6.468  0.00  0.00    +0.000 OA
ATOM     28  H   UNL     1      46.241  -0.591   8.432  0.00  0.00    +0.000 HD
ATOM     29  H   UNL     1      47.383  -0.824   7.162  0.00  0.00    +0.000 HD
ENDBRANCH  21  25
ENDBRANCH  16  17
ENDBRANCH   1  16
TORSDOF 7
ENDMDL
MODEL 6
REMARK VINA RESULT:    -7.205      3.019      7.923
REMARK INTER + INTRA:         -10.768
REMARK INTER:                 -10.065
REMARK INTRA:                  -0.704
REMARK UNBOUND:                -0.826
REMARK  Name = 
REMARK  8 active torsions:
REMARK  status: ('A' for Active; 'I' for Inactive)
REMARK    1  A    between atoms: C_1  and  C_2
REMARK    2  A    between atoms: C_2  and  O_3
REMARK    3  A    between atoms: C_5  and  O_6
REMARK    4  A    between atoms: O_6  and  C_7
REMARK    5  A    between atoms: C_11  and  C_12
REMARK    6  A    between atoms: C_12  and  C_13
REMARK    7  A    between atoms: C_13  and  N_14
REMARK    8  A    between atoms: C_18  and  C_19
REMARK                            x       y       z     vdW  Elec       q    Type
REMARK                         _______ _______ _______ _____ _____    ______ ____
ROOT
ATOM      1  C   UNL     1      46.418   7.279  12.251  0.00  0.00    +0.000 C 
ENDROOT
BRANCH   1   6
ATOM      2  C   UNL     1      44.338   4.768  10.199  0.00  0.00    +0.000 A 
ATOM      3  C   UNL     1      43.442   4.317  11.165  0.00  0.00    +0.000 A 
ATOM      4  C   UNL     1      43.476   4.868  12.447  0.00  0.00    +0.000 A 
ATOM      5  C   UNL     1      44.422   5.839  12.775  0.00  0.00    +0.000 A 
ATOM      6  C   UNL     1      45.364   6.270  11.828  0.00  0.00    +0.000 A 
ATOM      7  C   UNL     1      45.296   5.727  10.534  0.00  0.00    +0.000 A 
BRANCH   2   8
ATOM      8  O   UNL     1      44.367   4.326   8.899  0.00  0.00    +0.000 OA
BRANCH   8  12
ATOM      9  C   UNL     1      46.801   2.893   5.339  0.00  0.00    +0.000 C 
ATOM     10  C   UNL     1      46.651   2.797   6.847  0.00  0.00    +0.000 C 
ATOM     11  C   UNL     1      45.213   2.502   7.334  0.00  0.00    +0.000 C 
ATOM     12  C   UNL     1      45.472   3.486   8.505  0.00  0.00    +0.000 C 
ATOM     13  C   UNL     1      46.537   4.153   7.597  0.00  0.00    +0.000 C 
BRANCH  10  14
ATOM     14  O   UNL     1      47.663   1.907   7.372  0.00  0.00    +0.000 OA
ATOM     15  H   UNL     1      47.201   1.342   8.016  0.00  0.00    +0.000 HD
ENDBRANCH  10  14
ENDBRANCH   8  12
ENDBRANCH   2   8
ENDBRANCH   1   6
BRANCH   1  16
ATOM     16  C   UNL     1      47.806   6.676  12.485  0.00  0.00    +0.000 C 
BRANCH  16  17
ATOM     17  N   UNL     1      48.401   7.088  13.762  0.00  0.00    +0.000 N 
ATOM     18  C   UNL     1      48.162   6.121  14.762  0.00  0.00    +0.000 A 
ATOM     19  C   UNL     1      48.628   6.351  16.053  0.00  0.00    +0.000 A 
ATOM     20  C   UNL     1      48.401   5.390  17.044  0.00  0.00    +0.000 A 
ATOM     21  C   UNL     1      47.716   4.215  16.732  0.00  0.00    +0.000 A 
ATOM     22  C   UNL     1      47.301   4.061  15.424  0.00  0.00    +0.000 A 
ATOM     23  N   UNL     1      47.514   4.977  14.452  0.00  0.00    +0.000 NA
ATOM     24  H   UNL     1      48.034   7.980  14.086  0.00  0.00    +0.000 HD
BRANCH  21  25
ATOM     25  C   UNL     1      47.470   3.204  17.789  0.00  0.00    +0.000 C 
ATOM     26  N   UNL     1      48.353   3.103  18.832  0.00  0.00    +0.000 N 
ATOM     27  O   UNL     1      46.499   2.459  17.738  0.00  0.00    +0.000 OA
ATOM     28  H   UNL     1      49.190   3.649  18.962  0.00  0.00    +0.000 HD
ATOM     29  H   UNL     1      48.152   2.393  19.525  0.00  0.00    +0.000 HD
ENDBRANCH  21  25
ENDBRANCH  16  17
ENDBRANCH   1  16
TORSDOF 7
ENDMDL
MODEL 7
REMARK VINA RESULT:    -6.941      3.425      8.525
REMARK INTER + INTRA:         -10.404
REMARK INTER:                 -10.155
REMARK INTRA:                  -0.249
REMARK UNBOUND:                -0.826
REMARK  Name = 
REMARK  8 active torsions:
REMARK  status: ('A' for Active; 'I' for Inactive)
REMARK    1  A    between atoms: C_1  and  C_2
REMARK    2  A    between atoms: C_2  and  O_3
REMARK    3  A    between atoms: C_5  and  O_6
REMARK    4  A    between atoms: O_6  and  C_7
REMARK    5  A    between atoms: C_11  and  C_12
REMARK    6  A    between atoms: C_12  and  C_13
REMARK    7  A    between atoms: C_13  and  N_14
REMARK    8  A    between atoms: C_18  and  C_19
REMARK                            x       y       z     vdW  Elec       q    Type
REMARK                         _______ _______ _______ _____ _____    ______ ____
ROOT
ATOM      1  C   UNL     1      46.227   6.101  12.321  0.00  0.00    +0.000 C 
ENDROOT
BRANCH   1   6
ATOM      2  C   UNL     1      44.497   3.174  10.509  0.00  0.00    +0.000 A 
ATOM      3  C   UNL     1      43.472   2.879  11.404  0.00  0.00    +0.000 A 
ATOM      4  C   UNL     1      43.310   3.661  12.550  0.00  0.00    +0.000 A 
ATOM      5  C   UNL     1      44.189   4.711  12.818  0.00  0.00    +0.000 A 
ATOM      6  C   UNL     1      45.256   4.991  11.952  0.00  0.00    +0.000 A 
ATOM      7  C   UNL     1      45.385   4.214  10.789  0.00  0.00    +0.000 A 
BRANCH   2   8
ATOM      8  O   UNL     1      44.722   2.498   9.334  0.00  0.00    +0.000 OA
BRANCH   8  12
ATOM      9  C   UNL     1      46.725   2.355   5.258  0.00  0.00    +0.000 C 
ATOM     10  C   UNL     1      46.922   2.740   6.714  0.00  0.00    +0.000 C 
ATOM     11  C   UNL     1      46.510   1.648   7.729  0.00  0.00    +0.000 C 
ATOM     12  C   UNL     1      45.948   2.781   8.628  0.00  0.00    +0.000 C 
ATOM     13  C   UNL     1      45.802   3.620   7.333  0.00  0.00    +0.000 C 
BRANCH  10  14
ATOM     14  O   UNL     1      48.259   3.260   6.894  0.00  0.00    +0.000 OA
ATOM     15  H   UNL     1      48.295   4.072   6.360  0.00  0.00    +0.000 HD
ENDBRANCH  10  14
ENDBRANCH   8  12
ENDBRANCH   2   8
ENDBRANCH   1   6
BRANCH   1  16
ATOM     16  C   UNL     1      47.211   5.729  13.433  0.00  0.00    +0.000 C 
BRANCH  16  17
ATOM     17  N   UNL     1      46.785   4.557  14.207  0.00  0.00    +0.000 N 
ATOM     18  C   UNL     1      47.419   4.532  15.468  0.00  0.00    +0.000 A 
ATOM     19  C   UNL     1      47.160   3.474  16.335  0.00  0.00    +0.000 A 
ATOM     20  C   UNL     1      47.778   3.451  17.590  0.00  0.00    +0.000 A 
ATOM     21  C   UNL     1      48.643   4.482  17.961  0.00  0.00    +0.000 A 
ATOM     22  C   UNL     1      48.832   5.498  17.046  0.00  0.00    +0.000 A 
ATOM     23  N   UNL     1      48.240   5.541  15.830  0.00  0.00    +0.000 NA
ATOM     24  H   UNL     1      46.994   3.685  13.727  0.00  0.00    +0.000 HD
BRANCH  21  25
ATOM     25  C   UNL     1      49.303   4.448  19.288  0.00  0.00    +0.000 C 
ATOM     26  N   UNL     1      48.610   3.956  20.363  0.00  0.00    +0.000 N 
ATOM     27  O   UNL     1      50.448   4.855  19.436  0.00  0.00    +0.000 OA
ATOM     28  H   UNL     1      47.663   3.614  20.358  0.00  0.00    +0.000 HD
ATOM     29  H   UNL     1      49.096   3.960  21.251  0.00  0.00    +0.000 HD
ENDBRANCH  21  25
ENDBRANCH  16  17
ENDBRANCH   1  16
TORSDOF 7
ENDMDL
MODEL 8
REMARK VINA RESULT:    -6.699      1.819      2.859
REMARK INTER + INTRA:         -10.070
REMARK INTER:                  -9.263
REMARK INTRA:                  -0.807
REMARK UNBOUND:                -0.826
REMARK  Name = 
REMARK  8 active torsions:
REMARK  status: ('A' for Active; 'I' for Inactive)
REMARK    1  A    between atoms: C_1  and  C_2
REMARK    2  A    between atoms: C_2  and  O_3
REMARK    3  A    between atoms: C_5  and  O_6
REMARK    4  A    between atoms: O_6  and  C_7
REMARK    5  A    between atoms: C_11  and  C_12
REMARK    6  A    between atoms: C_12  and  C_13
REMARK    7  A    between atoms: C_13  and  N_14
REMARK    8  A    between atoms: C_18  and  C_19
REMARK                            x       y       z     vdW  Elec       q    Type
REMARK                         _______ _______ _______ _____ _____    ______ ____
ROOT
ATOM      1  C   UNL     1      45.591   8.574  12.875  0.00  0.00    +0.000 C 
ENDROOT
BRANCH   1   6
ATOM      2  C   UNL     1      48.940   6.993  13.937  0.00  0.00    +0.000 A 
ATOM      3  C   UNL     1      49.752   7.350  12.864  0.00  0.00    +0.000 A 
ATOM      4  C   UNL     1      49.232   8.145  11.840  0.00  0.00    +0.000 A 
ATOM      5  C   UNL     1      47.898   8.553  11.871  0.00  0.00    +0.000 A 
ATOM      6  C   UNL     1      47.053   8.162  12.920  0.00  0.00    +0.000 A 
ATOM      7  C   UNL     1      47.601   7.388  13.957  0.00  0.00    +0.000 A 
BRANCH   2   8
ATOM      8  O   UNL     1      49.358   6.251  15.015  0.00  0.00    +0.000 OA
BRANCH   8  12
ATOM      9  C   UNL     1      47.838   2.912  17.696  0.00  0.00    +0.000 C 
ATOM     10  C   UNL     1      47.636   4.366  17.306  0.00  0.00    +0.000 C 
ATOM     11  C   UNL     1      47.558   4.618  15.782  0.00  0.00    +0.000 C 
ATOM     12  C   UNL     1      48.373   5.917  16.015  0.00  0.00    +0.000 C 
ATOM     13  C   UNL     1      48.918   5.243  17.300  0.00  0.00    +0.000 C 
BRANCH  10  14
ATOM     14  O   UNL     1      46.538   4.917  18.067  0.00  0.00    +0.000 OA
ATOM     15  H   UNL     1      46.919   5.172  18.925  0.00  0.00    +0.000 HD
ENDBRANCH  10  14
ENDBRANCH   8  12
ENDBRANCH   2   8
ENDBRANCH   1   6
BRANCH   1  16
ATOM     16  C   UNL     1      44.769   7.854  11.802  0.00  0.00    +0.000 C 
BRANCH  16  17
ATOM     17  N   UNL     1      44.264   6.549  12.246  0.00  0.00    +0.000 N 
ATOM     18  C   UNL     1      44.585   5.543  11.310  0.00  0.00    +0.000 A 
ATOM     19  C   UNL     1      44.162   4.238  11.546  0.00  0.00    +0.000 A 
ATOM     20  C   UNL     1      44.486   3.236  10.625  0.00  0.00    +0.000 A 
ATOM     21  C   UNL     1      45.228   3.550   9.485  0.00  0.00    +0.000 A 
ATOM     22  C   UNL     1      45.619   4.866   9.336  0.00  0.00    +0.000 A 
ATOM     23  N   UNL     1      45.318   5.848  10.217  0.00  0.00    +0.000 NA
ATOM     24  H   UNL     1      43.256   6.554  12.378  0.00  0.00    +0.000 HD
BRANCH  21  25
ATOM     25  C   UNL     1      45.562   2.486   8.507  0.00  0.00    +0.000 C 
ATOM     26  N   UNL     1      45.989   2.842   7.256  0.00  0.00    +0.000 N 
ATOM     27  O   UNL     1      45.454   1.302   8.801  0.00  0.00    +0.000 OA
ATOM     28  H   UNL     1      46.095   3.780   6.904  0.00  0.00    +0.000 HD
ATOM     29  H   UNL     1      46.196   2.083   6.618  0.00  0.00    +0.000 HD
ENDBRANCH  21  25
ENDBRANCH  16  17
ENDBRANCH   1  16
TORSDOF 7
ENDMDL
MODEL 9
REMARK VINA RESULT:    -6.688      3.336      7.747
REMARK INTER + INTRA:         -10.055
REMARK INTER:                  -9.121
REMARK INTRA:                  -0.934
REMARK UNBOUND:                -0.826
REMARK  Name = 
REMARK  8 active torsions:
REMARK  status: ('A' for Active; 'I' for Inactive)
REMARK    1  A    between atoms: C_1  and  C_2
REMARK    2  A    between atoms: C_2  and  O_3
REMARK    3  A    between atoms: C_5  and  O_6
REMARK    4  A    between atoms: O_6  and  C_7
REMARK    5  A    between atoms: C_11  and  C_12
REMARK    6  A    between atoms: C_12  and  C_13
REMARK    7  A    between atoms: C_13  and  N_14
REMARK    8  A    between atoms: C_18  and  C_19
REMARK                            x       y       z     vdW  Elec       q    Type
REMARK                         _______ _______ _______ _____ _____    ______ ____
ROOT
ATOM      1  C   UNL     1      48.182   8.763  12.634  0.00  0.00    +0.000 C 
ENDROOT
BRANCH   1   6
ATOM      2  C   UNL     1      45.316   6.417  11.572  0.00  0.00    +0.000 A 
ATOM      3  C   UNL     1      44.282   7.331  11.389  0.00  0.00    +0.000 A 
ATOM      4  C   UNL     1      44.530   8.695  11.550  0.00  0.00    +0.000 A 
ATOM      5  C   UNL     1      45.797   9.143  11.925  0.00  0.00    +0.000 A 
ATOM      6  C   UNL     1      46.838   8.233  12.161  0.00  0.00    +0.000 A 
ATOM      7  C   UNL     1      46.578   6.866  11.964  0.00  0.00    +0.000 A 
BRANCH   2   8
ATOM      8  O   UNL     1      45.194   5.059  11.400  0.00  0.00    +0.000 OA
BRANCH   8  12
ATOM      9  C   UNL     1      46.299   2.476   7.829  0.00  0.00    +0.000 C 
ATOM     10  C   UNL     1      45.218   3.366   8.418  0.00  0.00    +0.000 C 
ATOM     11  C   UNL     1      45.721   4.737   8.928  0.00  0.00    +0.000 C 
ATOM     12  C   UNL     1      44.735   4.589  10.116  0.00  0.00    +0.000 C 
ATOM     13  C   UNL     1      44.823   3.058   9.888  0.00  0.00    +0.000 C 
BRANCH  10  14
ATOM     14  O   UNL     1      44.103   3.435   7.500  0.00  0.00    +0.000 OA
ATOM     15  H   UNL     1      43.412   2.872   7.890  0.00  0.00    +0.000 HD
ENDBRANCH  10  14
ENDBRANCH   8  12
ENDBRANCH   2   8
ENDBRANCH   1   6
BRANCH   1  16
ATOM     16  C   UNL     1      49.138   7.682  13.143  0.00  0.00    +0.000 C 
BRANCH  16  17
ATOM     17  N   UNL     1      49.494   7.851  14.557  0.00  0.00    +0.000 N 
ATOM     18  C   UNL     1      48.970   6.797  15.336  0.00  0.00    +0.000 A 
ATOM     19  C   UNL     1      49.181   6.801  16.711  0.00  0.00    +0.000 A 
ATOM     20  C   UNL     1      48.672   5.753  17.485  0.00  0.00    +0.000 A 
ATOM     21  C   UNL     1      47.963   4.716  16.875  0.00  0.00    +0.000 A 
ATOM     22  C   UNL     1      47.812   4.784  15.505  0.00  0.00    +0.000 A 
ATOM     23  N   UNL     1      48.300   5.787  14.739  0.00  0.00    +0.000 NA
ATOM     24  H   UNL     1      49.149   8.730  14.936  0.00  0.00    +0.000 HD
BRANCH  21  25
ATOM     25  C   UNL     1      47.417   3.612  17.701  0.00  0.00    +0.000 C 
ATOM     26  N   UNL     1      48.070   3.257  18.852  0.00  0.00    +0.000 N 
ATOM     27  O   UNL     1      46.402   3.015  17.367  0.00  0.00    +0.000 OA
ATOM     28  H   UNL     1      48.918   3.667  19.210  0.00  0.00    +0.000 HD
ATOM     29  H   UNL     1      47.668   2.492  19.380  0.00  0.00    +0.000 HD
ENDBRANCH  21  25
ENDBRANCH  16  17
ENDBRANCH   1  16
TORSDOF 7
ENDMDL
