MODEL 1
REMARK VINA RESULT:    -9.862      0.000      0.000
REMARK INTER + INTRA:         -13.541
REMARK INTER:                 -12.745
REMARK INTRA:                  -0.797
REMARK UNBOUND:                -0.797
REMARK  Name = 
REMARK  5 active torsions:
REMARK  status: ('A' for Active; 'I' for Inactive)
REMARK    1  A    between atoms: C_2  and  C_4
REMARK    2  A    between atoms: N_8  and  C_9
REMARK    3  A    between atoms: C_9  and  C_10
REMARK    4  A    between atoms: C_10  and  C_13
REMARK    5  A    between atoms: C_17  and  C_18
REMARK                            x       y       z     vdW  Elec       q    Type
REMARK                         _______ _______ _______ _____ _____    ______ ____
ROOT
ATOM      1  C   UNL     1      43.246   5.513  12.114  0.00  0.00    +0.000 C 
ATOM      2  F   UNL     1      42.447   6.504  11.612  0.00  0.00    +0.000 F 
ATOM      3  F   UNL     1      42.670   5.147  13.297  0.00  0.00    +0.000 F 
ENDROOT
BRANCH   1   4
ATOM      4  C   UNL     1      44.680   5.973  12.299  0.00  0.00    +0.000 A 
ATOM      5  C   UNL     1      45.228   6.963  11.474  0.00  0.00    +0.000 A 
ATOM      6  C   UNL     1      46.522   7.426  11.697  0.00  0.00    +0.000 A 
ATOM      7  C   UNL     1      47.271   6.921  12.760  0.00  0.00    +0.000 A 
ATOM      8  C   UNL     1      46.747   5.944  13.625  0.00  0.00    +0.000 A 
ATOM      9  C   UNL     1      45.454   5.461  13.353  0.00  0.00    +0.000 A 
BRANCH   8  10
ATOM     10  C   UNL     1      47.500   5.481  14.805  0.00  0.00    +0.000 A 
ATOM     11  C   UNL     1      48.637   6.157  15.262  0.00  0.00    +0.000 A 
ATOM     12  N   UNL     1      49.368   5.810  16.349  0.00  0.00    +0.000 NA
ATOM     13  C   UNL     1      48.942   4.727  17.035  0.00  0.00    +0.000 A 
ATOM     14  C   UNL     1      47.828   3.985  16.685  0.00  0.00    +0.000 A 
ATOM     15 CL   UNL     1      47.340   2.630  17.618  0.00  0.00    +0.000 Cl
ATOM     16  C   UNL     1      47.103   4.366  15.559  0.00  0.00    +0.000 A 
ENDBRANCH   8  10
ENDBRANCH   1   4
BRANCH   1  17
ATOM     17  C   UNL     1      43.204   4.311  11.133  0.00  0.00    +0.000 C 
BRANCH  17  22
ATOM     18  C   UNL     1      46.508   2.489   7.698  0.00  0.00    +0.000 A 
ATOM     19  C   UNL     1      45.691   1.806   8.592  0.00  0.00    +0.000 A 
ATOM     20  C   UNL     1      44.749   2.521   9.328  0.00  0.00    +0.000 A 
ATOM     21  C   UNL     1      44.637   3.900   9.166  0.00  0.00    +0.000 A 
ATOM     22  N   UNL     1      43.652   4.651   9.777  0.00  0.00    +0.000 N 
ATOM     23  N   UNL     1      45.447   4.574   8.327  0.00  0.00    +0.000 NA
ATOM     24  C   UNL     1      46.369   3.865   7.620  0.00  0.00    +0.000 A 
ATOM     25  H   UNL     1      43.830   5.638   9.603  0.00  0.00    +0.000 HD
BRANCH  18  27
ATOM     26  N   UNL     1      48.554   2.541   6.396  0.00  0.00    +0.000 N 
ATOM     27  C   UNL     1      47.495   1.801   6.845  0.00  0.00    +0.000 C 
ATOM     28  O   UNL     1      47.393   0.608   6.577  0.00  0.00    +0.000 OA
ATOM     29  H   UNL     1      49.282   2.038   5.902  0.00  0.00    +0.000 HD
ATOM     30  H   UNL     1      48.801   3.433   6.802  0.00  0.00    +0.000 HD
ENDBRANCH  18  27
ENDBRANCH  17  22
ENDBRANCH   1  17
TORSDOF 5
ENDMDL
MODEL 2
REMARK VINA RESULT:    -9.809      2.598      3.564
REMARK INTER + INTRA:         -13.473
REMARK INTER:                 -12.437
REMARK INTRA:                  -1.036
REMARK UNBOUND:                -0.797
REMARK  Name = 
REMARK  5 active torsions:
REMARK  status: ('A' for Active; 'I' for Inactive)
REMARK    1  A    between atoms: C_2  and  C_4
REMARK    2  A    between atoms: N_8  and  C_9
REMARK    3  A    between atoms: C_9  and  C_10
REMARK    4  A    between atoms: C_10  and  C_13
REMARK    5  A    between atoms: C_17  and  C_18
REMARK                            x       y       z     vdW  Elec       q    Type
REMARK                         _______ _______ _______ _____ _____    ______ ____
ROOT
ATOM      1  C   UNL     1      43.376   5.558  12.114  0.00  0.00    +0.000 C 
ATOM      2  F   UNL     1      42.987   6.734  11.535  0.00  0.00    +0.000 F 
ATOM      3  F   UNL     1      42.495   5.347  13.137  0.00  0.00    +0.000 F 
ENDROOT
BRANCH   1   4
ATOM      4  C   UNL     1      44.812   5.607  12.603  0.00  0.00    +0.000 A 
ATOM      5  C   UNL     1      45.369   4.526  13.298  0.00  0.00    +0.000 A 
ATOM      6  C   UNL     1      46.707   4.554  13.682  0.00  0.00    +0.000 A 
ATOM      7  C   UNL     1      47.506   5.650  13.353  0.00  0.00    +0.000 A 
ATOM      8  C   UNL     1      46.989   6.742  12.635  0.00  0.00    +0.000 A 
ATOM      9  C   UNL     1      45.624   6.711  12.296  0.00  0.00    +0.000 A 
BRANCH   8  10
ATOM     10  C   UNL     1      47.855   7.855  12.203  0.00  0.00    +0.000 A 
ATOM     11  C   UNL     1      47.396   9.177  12.186  0.00  0.00    +0.000 A 
ATOM     12  N   UNL     1      48.135  10.256  11.826  0.00  0.00    +0.000 NA
ATOM     13  C   UNL     1      49.414  10.012  11.467  0.00  0.00    +0.000 A 
ATOM     14  C   UNL     1      49.980   8.749  11.453  0.00  0.00    +0.000 A 
ATOM     15 CL   UNL     1      51.620   8.522  11.000  0.00  0.00    +0.000 Cl
ATOM     16  C   UNL     1      49.192   7.662  11.823  0.00  0.00    +0.000 A 
ENDBRANCH   8  10
ENDBRANCH   1   4
BRANCH   1  17
ATOM     17  C   UNL     1      43.218   4.423  11.065  0.00  0.00    +0.000 C 
BRANCH  17  22
ATOM     18  C   UNL     1      46.537   2.531   7.682  0.00  0.00    +0.000 A 
ATOM     19  C   UNL     1      45.651   1.868   8.522  0.00  0.00    +0.000 A 
ATOM     20  C   UNL     1      44.724   2.610   9.251  0.00  0.00    +0.000 A 
ATOM     21  C   UNL     1      44.697   3.998   9.135  0.00  0.00    +0.000 A 
ATOM     22  N   UNL     1      43.734   4.783   9.739  0.00  0.00    +0.000 N 
ATOM     23  N   UNL     1      45.574   4.651   8.350  0.00  0.00    +0.000 NA
ATOM     24  C   UNL     1      46.479   3.915   7.649  0.00  0.00    +0.000 A 
ATOM     25  H   UNL     1      43.974   5.764   9.607  0.00  0.00    +0.000 HD
BRANCH  18  27
ATOM     26  N   UNL     1      48.596   2.529   6.400  0.00  0.00    +0.000 N 
ATOM     27  C   UNL     1      47.514   1.817   6.840  0.00  0.00    +0.000 C 
ATOM     28  O   UNL     1      47.384   0.627   6.572  0.00  0.00    +0.000 OA
ATOM     29  H   UNL     1      49.315   2.007   5.913  0.00  0.00    +0.000 HD
ATOM     30  H   UNL     1      48.863   3.414   6.807  0.00  0.00    +0.000 HD
ENDBRANCH  18  27
ENDBRANCH  17  22
ENDBRANCH   1  17
TORSDOF 5
ENDMDL
MODEL 3
REMARK VINA RESULT:    -9.336      3.000      4.085
REMARK INTER + INTRA:         -12.861
REMARK INTER:                 -11.895
REMARK INTRA:                  -0.967
REMARK UNBOUND:                -0.797
REMARK  Name = 
REMARK  5 active torsions:
REMARK  status: ('A' for Active; 'I' for Inactive)
REMARK    1  A    between atoms: C_2  and  C_4
REMARK    2  A    between atoms: N_8  and  C_9
REMARK    3  A    between atoms: C_9  and  C_10
REMARK    4  A    between atoms: C_10  and  C_13
REMARK    5  A    between atoms: C_17  and  C_18
REMARK                            x       y       z     vdW  Elec       q    Type
REMARK                         _______ _______ _______ _____ _____    ______ ____
ROOT
ATOM      1  C   UNL     1      43.306   4.546  12.751  0.00  0.00    +0.000 C 
ATOM      2  F   UNL     1      42.299   5.440  12.517  0.00  0.00    +0.000 F 
ATOM      3  F   UNL     1      42.945   3.883  13.890  0.00  0.00    +0.000 F 
ENDROOT
BRANCH   1   4
ATOM      4  C   UNL     1      44.655   5.226  12.895  0.00  0.00    +0.000 A 
ATOM      5  C   UNL     1      45.805   4.482  13.190  0.00  0.00    +0.000 A 
ATOM      6  C   UNL     1      47.047   5.106  13.251  0.00  0.00    +0.000 A 
ATOM      7  C   UNL     1      47.156   6.473  12.993  0.00  0.00    +0.000 A 
ATOM      8  C   UNL     1      46.030   7.248  12.669  0.00  0.00    +0.000 A 
ATOM      9  C   UNL     1      44.779   6.604  12.656  0.00  0.00    +0.000 A 
BRANCH   8  10
ATOM     10  C   UNL     1      46.157   8.671  12.301  0.00  0.00    +0.000 A 
ATOM     11  C   UNL     1      45.036   9.458  12.016  0.00  0.00    +0.000 A 
ATOM     12  N   UNL     1      45.066  10.774  11.695  0.00  0.00    +0.000 NA
ATOM     13  C   UNL     1      46.286  11.353  11.661  0.00  0.00    +0.000 A 
ATOM     14  C   UNL     1      47.464  10.679  11.934  0.00  0.00    +0.000 A 
ATOM     15 CL   UNL     1      48.976  11.490  11.888  0.00  0.00    +0.000 Cl
ATOM     16  C   UNL     1      47.397   9.326  12.255  0.00  0.00    +0.000 A 
ENDBRANCH   8  10
ENDBRANCH   1   4
BRANCH   1  17
ATOM     17  C   UNL     1      43.349   3.540  11.569  0.00  0.00    +0.000 C 
BRANCH  17  22
ATOM     18  C   UNL     1      46.492   2.776   7.622  0.00  0.00    +0.000 A 
ATOM     19  C   UNL     1      45.830   1.851   8.422  0.00  0.00    +0.000 A 
ATOM     20  C   UNL     1      44.893   2.305   9.347  0.00  0.00    +0.000 A 
ATOM     21  C   UNL     1      44.632   3.667   9.464  0.00  0.00    +0.000 A 
ATOM     22  N   UNL     1      43.637   4.175  10.277  0.00  0.00    +0.000 N 
ATOM     23  N   UNL     1      45.293   4.573   8.718  0.00  0.00    +0.000 NA
ATOM     24  C   UNL     1      46.212   4.117   7.823  0.00  0.00    +0.000 A 
ATOM     25  H   UNL     1      43.701   5.191  10.286  0.00  0.00    +0.000 HD
BRANCH  18  27
ATOM     26  N   UNL     1      47.382   3.015   5.378  0.00  0.00    +0.000 N 
ATOM     27  C   UNL     1      47.460   2.375   6.585  0.00  0.00    +0.000 C 
ATOM     28  O   UNL     1      48.322   1.529   6.802  0.00  0.00    +0.000 OA
ATOM     29  H   UNL     1      48.116   2.813   4.709  0.00  0.00    +0.000 HD
ATOM     30  H   UNL     1      46.869   3.877   5.256  0.00  0.00    +0.000 HD
ENDBRANCH  18  27
ENDBRANCH  17  22
ENDBRANCH   1  17
TORSDOF 5
ENDMDL
MODEL 4
REMARK VINA RESULT:    -8.898      2.744      3.210
REMARK INTER + INTRA:         -12.295
REMARK INTER:                 -11.550
REMARK INTRA:                  -0.745
REMARK UNBOUND:                -0.797
REMARK  Name = 
REMARK  5 active torsions:
REMARK  status: ('A' for Active; 'I' for Inactive)
REMARK    1  A    between atoms: C_2  and  C_4
REMARK    2  A    between atoms: N_8  and  C_9
REMARK    3  A    between atoms: C_9  and  C_10
REMARK    4  A    between atoms: C_10  and  C_13
REMARK    5  A    between atoms: C_17  and  C_18
REMARK                            x       y       z     vdW  Elec       q    Type
REMARK                         _______ _______ _______ _____ _____    ______ ____
ROOT
ATOM      1  C   UNL     1      44.276   4.726  12.265  0.00  0.00    +0.000 C 
ATOM      2  F   UNL     1      43.620   4.651  13.462  0.00  0.00    +0.000 F 
ATOM      3  F   UNL     1      45.223   3.743  12.308  0.00  0.00    +0.000 F 
ENDROOT
BRANCH   1   4
ATOM      4  C   UNL     1      44.889   6.095  12.032  0.00  0.00    +0.000 A 
ATOM      5  C   UNL     1      44.084   7.194  11.708  0.00  0.00    +0.000 A 
ATOM      6  C   UNL     1      44.648   8.458  11.564  0.00  0.00    +0.000 A 
ATOM      7  C   UNL     1      46.017   8.640  11.767  0.00  0.00    +0.000 A 
ATOM      8  C   UNL     1      46.853   7.566  12.117  0.00  0.00    +0.000 A 
ATOM      9  C   UNL     1      46.268   6.291  12.214  0.00  0.00    +0.000 A 
BRANCH   8  10
ATOM     10  C   UNL     1      48.280   7.774  12.427  0.00  0.00    +0.000 A 
ATOM     11  C   UNL     1      48.738   7.875  13.745  0.00  0.00    +0.000 A 
ATOM     12  N   UNL     1      50.032   8.042  14.112  0.00  0.00    +0.000 NA
ATOM     13  C   UNL     1      50.934   8.104  13.110  0.00  0.00    +0.000 A 
ATOM     14  C   UNL     1      50.602   8.007  11.769  0.00  0.00    +0.000 A 
ATOM     15 CL   UNL     1      51.810   8.079  10.553  0.00  0.00    +0.000 Cl
ATOM     16  C   UNL     1      49.262   7.842  11.427  0.00  0.00    +0.000 A 
ENDBRANCH   8  10
ENDBRANCH   1   4
BRANCH   1  17
ATOM     17  C   UNL     1      43.262   4.407  11.133  0.00  0.00    +0.000 C 
BRANCH  17  22
ATOM     18  C   UNL     1      46.502   2.487   7.690  0.00  0.00    +0.000 A 
ATOM     19  C   UNL     1      45.629   1.831   8.550  0.00  0.00    +0.000 A 
ATOM     20  C   UNL     1      44.721   2.581   9.295  0.00  0.00    +0.000 A 
ATOM     21  C   UNL     1      44.700   3.968   9.176  0.00  0.00    +0.000 A 
ATOM     22  N   UNL     1      43.753   4.760   9.796  0.00  0.00    +0.000 N 
ATOM     23  N   UNL     1      45.565   4.615   8.371  0.00  0.00    +0.000 NA
ATOM     24  C   UNL     1      46.452   3.871   7.655  0.00  0.00    +0.000 A 
ATOM     25  H   UNL     1      43.996   5.739   9.657  0.00  0.00    +0.000 HD
BRANCH  18  27
ATOM     26  N   UNL     1      48.555   2.459   6.399  0.00  0.00    +0.000 N 
ATOM     27  C   UNL     1      47.458   1.765   6.831  0.00  0.00    +0.000 C 
ATOM     28  O   UNL     1      47.298   0.584   6.542  0.00  0.00    +0.000 OA
ATOM     29  H   UNL     1      49.260   1.928   5.900  0.00  0.00    +0.000 HD
ATOM     30  H   UNL     1      48.845   3.330   6.821  0.00  0.00    +0.000 HD
ENDBRANCH  18  27
ENDBRANCH  17  22
ENDBRANCH   1  17
TORSDOF 5
ENDMDL
MODEL 5
REMARK VINA RESULT:    -8.772      3.468      4.779
REMARK INTER + INTRA:         -12.133
REMARK INTER:                 -11.541
REMARK INTRA:                  -0.592
REMARK UNBOUND:                -0.797
REMARK  Name = 
REMARK  5 active torsions:
REMARK  status: ('A' for Active; 'I' for Inactive)
REMARK    1  A    between atoms: C_2  and  C_4
REMARK    2  A    between atoms: N_8  and  C_9
REMARK    3  A    between atoms: C_9  and  C_10
REMARK    4  A    between atoms: C_10  and  C_13
REMARK    5  A    between atoms: C_17  and  C_18
REMARK                            x       y       z     vdW  Elec       q    Type
REMARK                         _______ _______ _______ _____ _____    ______ ____
ROOT
ATOM      1  C   UNL     1      44.203   4.099  12.413  0.00  0.00    +0.000 C 
ATOM      2  F   UNL     1      43.477   3.999  13.568  0.00  0.00    +0.000 F 
ATOM      3  F   UNL     1      44.927   2.944  12.337  0.00  0.00    +0.000 F 
ENDROOT
BRANCH   1   4
ATOM      4  C   UNL     1      45.093   5.328  12.401  0.00  0.00    +0.000 A 
ATOM      5  C   UNL     1      46.479   5.211  12.565  0.00  0.00    +0.000 A 
ATOM      6  C   UNL     1      47.292   6.338  12.483  0.00  0.00    +0.000 A 
ATOM      7  C   UNL     1      46.732   7.586  12.212  0.00  0.00    +0.000 A 
ATOM      8  C   UNL     1      45.349   7.740  12.016  0.00  0.00    +0.000 A 
ATOM      9  C   UNL     1      44.542   6.595  12.147  0.00  0.00    +0.000 A 
BRANCH   8  10
ATOM     10  C   UNL     1      44.768   9.041  11.634  0.00  0.00    +0.000 A 
ATOM     11  C   UNL     1      45.470  10.239  11.811  0.00  0.00    +0.000 A 
ATOM     12  N   UNL     1      45.016  11.468  11.465  0.00  0.00    +0.000 NA
ATOM     13  C   UNL     1      43.792  11.516  10.898  0.00  0.00    +0.000 A 
ATOM     14  C   UNL     1      43.009  10.398  10.664  0.00  0.00    +0.000 A 
ATOM     15 CL   UNL     1      41.468  10.539   9.922  0.00  0.00    +0.000 Cl
ATOM     16  C   UNL     1      43.503   9.151  11.037  0.00  0.00    +0.000 A 
ENDBRANCH   8  10
ENDBRANCH   1   4
BRANCH   1  17
ATOM     17  C   UNL     1      43.211   4.159  11.219  0.00  0.00    +0.000 C 
BRANCH  17  22
ATOM     18  C   UNL     1      46.558   2.799   7.616  0.00  0.00    +0.000 A 
ATOM     19  C   UNL     1      45.608   2.032   8.279  0.00  0.00    +0.000 A 
ATOM     20  C   UNL     1      44.693   2.664   9.118  0.00  0.00    +0.000 A 
ATOM     21  C   UNL     1      44.740   4.046   9.285  0.00  0.00    +0.000 A 
ATOM     22  N   UNL     1      43.795   4.747  10.008  0.00  0.00    +0.000 N 
ATOM     23  N   UNL     1      45.678   4.793   8.673  0.00  0.00    +0.000 NA
ATOM     24  C   UNL     1      46.571   4.162   7.863  0.00  0.00    +0.000 A 
ATOM     25  H   UNL     1      44.089   5.719  10.084  0.00  0.00    +0.000 HD
BRANCH  18  27
ATOM     26  N   UNL     1      47.853   2.957   5.571  0.00  0.00    +0.000 N 
ATOM     27  C   UNL     1      47.530   2.214   6.673  0.00  0.00    +0.000 C 
ATOM     28  O   UNL     1      48.053   1.125   6.883  0.00  0.00    +0.000 OA
ATOM     29  H   UNL     1      48.599   2.599   4.985  0.00  0.00    +0.000 HD
ATOM     30  H   UNL     1      47.646   3.943   5.503  0.00  0.00    +0.000 HD
ENDBRANCH  18  27
ENDBRANCH  17  22
ENDBRANCH   1  17
TORSDOF 5
ENDMDL
MODEL 6
REMARK VINA RESULT:    -8.718      2.154      2.557
REMARK INTER + INTRA:         -12.063
REMARK INTER:                 -11.551
REMARK INTRA:                  -0.512
REMARK UNBOUND:                -0.797
REMARK  Name = 
REMARK  5 active torsions:
REMARK  status: ('A' for Active; 'I' for Inactive)
REMARK    1  A    between atoms: C_2  and  C_4
REMARK    2  A    between atoms: N_8  and  C_9
REMARK    3  A    between atoms: C_9  and  C_10
REMARK    4  A    between atoms: C_10  and  C_13
REMARK    5  A    between atoms: C_17  and  C_18
REMARK                            x       y       z     vdW  Elec       q    Type
REMARK                         _______ _______ _______ _____ _____    ______ ____
ROOT
ATOM      1  C   UNL     1      44.450   4.684  12.315  0.00  0.00    +0.000 C 
ATOM      2  F   UNL     1      43.855   4.525  13.536  0.00  0.00    +0.000 F 
ATOM      3  F   UNL     1      45.366   3.675  12.223  0.00  0.00    +0.000 F 
ENDROOT
BRANCH   1   4
ATOM      4  C   UNL     1      45.094   6.050  12.165  0.00  0.00    +0.000 A 
ATOM      5  C   UNL     1      44.343   7.154  11.743  0.00  0.00    +0.000 A 
ATOM      6  C   UNL     1      44.927   8.416  11.675  0.00  0.00    +0.000 A 
ATOM      7  C   UNL     1      46.259   8.590  12.051  0.00  0.00    +0.000 A 
ATOM      8  C   UNL     1      47.039   7.512  12.503  0.00  0.00    +0.000 A 
ATOM      9  C   UNL     1      46.440   6.239  12.522  0.00  0.00    +0.000 A 
BRANCH   8  10
ATOM     10  C   UNL     1      48.415   7.712  12.993  0.00  0.00    +0.000 A 
ATOM     11  C   UNL     1      49.340   8.489  12.286  0.00  0.00    +0.000 A 
ATOM     12  N   UNL     1      50.613   8.739  12.679  0.00  0.00    +0.000 NA
ATOM     13  C   UNL     1      50.994   8.193  13.854  0.00  0.00    +0.000 A 
ATOM     14  C   UNL     1      50.165   7.415  14.644  0.00  0.00    +0.000 A 
ATOM     15 CL   UNL     1      50.719   6.769  16.135  0.00  0.00    +0.000 Cl
ATOM     16  C   UNL     1      48.866   7.172  14.208  0.00  0.00    +0.000 A 
ENDBRANCH   8  10
ENDBRANCH   1   4
BRANCH   1  17
ATOM     17  C   UNL     1      43.369   4.492  11.218  0.00  0.00    +0.000 C 
BRANCH  17  22
ATOM     18  C   UNL     1      46.444   2.487   7.674  0.00  0.00    +0.000 A 
ATOM     19  C   UNL     1      45.569   1.855   8.550  0.00  0.00    +0.000 A 
ATOM     20  C   UNL     1      44.710   2.631   9.326  0.00  0.00    +0.000 A 
ATOM     21  C   UNL     1      44.738   4.019   9.220  0.00  0.00    +0.000 A 
ATOM     22  N   UNL     1      43.838   4.840   9.872  0.00  0.00    +0.000 N 
ATOM     23  N   UNL     1      45.605   4.641   8.399  0.00  0.00    +0.000 NA
ATOM     24  C   UNL     1      46.445   3.872   7.653  0.00  0.00    +0.000 A 
ATOM     25  H   UNL     1      44.114   5.811   9.735  0.00  0.00    +0.000 HD
BRANCH  18  27
ATOM     26  N   UNL     1      48.366   2.440   6.194  0.00  0.00    +0.000 N 
ATOM     27  C   UNL     1      47.349   1.738   6.783  0.00  0.00    +0.000 C 
ATOM     28  O   UNL     1      47.221   0.532   6.602  0.00  0.00    +0.000 OA
ATOM     29  H   UNL     1      49.046   1.901   5.671  0.00  0.00    +0.000 HD
ATOM     30  H   UNL     1      48.650   3.354   6.518  0.00  0.00    +0.000 HD
ENDBRANCH  18  27
ENDBRANCH  17  22
ENDBRANCH   1  17
TORSDOF 5
ENDMDL
MODEL 7
REMARK VINA RESULT:    -8.023      3.720      7.981
REMARK INTER + INTRA:         -11.164
REMARK INTER:                 -10.423
REMARK INTRA:                  -0.741
REMARK UNBOUND:                -0.797
REMARK  Name = 
REMARK  5 active torsions:
REMARK  status: ('A' for Active; 'I' for Inactive)
REMARK    1  A    between atoms: C_2  and  C_4
REMARK    2  A    between atoms: N_8  and  C_9
REMARK    3  A    between atoms: C_9  and  C_10
REMARK    4  A    between atoms: C_10  and  C_13
REMARK    5  A    between atoms: C_17  and  C_18
REMARK                            x       y       z     vdW  Elec       q    Type
REMARK                         _______ _______ _______ _____ _____    ______ ____
ROOT
ATOM      1  C   UNL     1      45.946   7.128  12.293  0.00  0.00    +0.000 C 
ATOM      2  F   UNL     1      45.174   7.879  13.137  0.00  0.00    +0.000 F 
ATOM      3  F   UNL     1      46.515   8.021  11.430  0.00  0.00    +0.000 F 
ENDROOT
BRANCH   1   4
ATOM      4  C   UNL     1      45.137   6.071  11.564  0.00  0.00    +0.000 A 
ATOM      5  C   UNL     1      43.766   5.922  11.811  0.00  0.00    +0.000 A 
ATOM      6  C   UNL     1      43.020   4.996  11.087  0.00  0.00    +0.000 A 
ATOM      7  C   UNL     1      43.631   4.229  10.094  0.00  0.00    +0.000 A 
ATOM      8  C   UNL     1      44.999   4.368   9.800  0.00  0.00    +0.000 A 
ATOM      9  C   UNL     1      45.741   5.279  10.574  0.00  0.00    +0.000 A 
BRANCH   8  10
ATOM     10  C   UNL     1      45.623   3.630   8.687  0.00  0.00    +0.000 A 
ATOM     11  C   UNL     1      46.118   4.289   7.556  0.00  0.00    +0.000 A 
ATOM     12  N   UNL     1      46.726   3.687   6.504  0.00  0.00    +0.000 NA
ATOM     13  C   UNL     1      46.861   2.345   6.580  0.00  0.00    +0.000 A 
ATOM     14  C   UNL     1      46.419   1.588   7.651  0.00  0.00    +0.000 A 
ATOM     15 CL   UNL     1      46.643  -0.114   7.681  0.00  0.00    +0.000 Cl
ATOM     16  C   UNL     1      45.794   2.237   8.712  0.00  0.00    +0.000 A 
ENDBRANCH   8  10
ENDBRANCH   1   4
BRANCH   1  17
ATOM     17  C   UNL     1      47.062   6.447  13.132  0.00  0.00    +0.000 C 
BRANCH  17  22
ATOM     18  C   UNL     1      48.680   4.328  17.482  0.00  0.00    +0.000 A 
ATOM     19  C   UNL     1      48.894   5.608  16.986  0.00  0.00    +0.000 A 
ATOM     20  C   UNL     1      48.213   6.012  15.839  0.00  0.00    +0.000 A 
ATOM     21  C   UNL     1      47.335   5.137  15.205  0.00  0.00    +0.000 A 
ATOM     22  N   UNL     1      46.545   5.510  14.135  0.00  0.00    +0.000 N 
ATOM     23  N   UNL     1      47.147   3.883  15.659  0.00  0.00    +0.000 NA
ATOM     24  C   UNL     1      47.825   3.498  16.775  0.00  0.00    +0.000 A 
ATOM     25  H   UNL     1      46.069   4.686  13.770  0.00  0.00    +0.000 HD
BRANCH  18  27
ATOM     26  N   UNL     1      48.520   3.210  19.629  0.00  0.00    +0.000 N 
ATOM     27  C   UNL     1      49.322   3.841  18.717  0.00  0.00    +0.000 C 
ATOM     28  O   UNL     1      50.527   3.963  18.906  0.00  0.00    +0.000 OA
ATOM     29  H   UNL     1      48.985   2.784  20.422  0.00  0.00    +0.000 HD
ATOM     30  H   UNL     1      47.599   2.868  19.394  0.00  0.00    +0.000 HD
ENDBRANCH  18  27
ENDBRANCH  17  22
ENDBRANCH   1  17
TORSDOF 5
ENDMDL
MODEL 8
REMARK VINA RESULT:    -7.985      4.013      7.763
REMARK INTER + INTRA:         -11.115
REMARK INTER:                  -9.984
REMARK INTRA:                  -1.131
REMARK UNBOUND:                -0.797
REMARK  Name = 
REMARK  5 active torsions:
REMARK  status: ('A' for Active; 'I' for Inactive)
REMARK    1  A    between atoms: C_2  and  C_4
REMARK    2  A    between atoms: N_8  and  C_9
REMARK    3  A    between atoms: C_9  and  C_10
REMARK    4  A    between atoms: C_10  and  C_13
REMARK    5  A    between atoms: C_17  and  C_18
REMARK                            x       y       z     vdW  Elec       q    Type
REMARK                         _______ _______ _______ _____ _____    ______ ____
ROOT
ATOM      1  C   UNL     1      48.723   8.122  12.201  0.00  0.00    +0.000 C 
ATOM      2  F   UNL     1      49.134   9.183  11.441  0.00  0.00    +0.000 F 
ATOM      3  F   UNL     1      49.549   7.089  11.859  0.00  0.00    +0.000 F 
ENDROOT
BRANCH   1   4
ATOM      4  C   UNL     1      47.263   7.782  11.968  0.00  0.00    +0.000 A 
ATOM      5  C   UNL     1      46.254   8.700  12.288  0.00  0.00    +0.000 A 
ATOM      6  C   UNL     1      44.923   8.405  12.007  0.00  0.00    +0.000 A 
ATOM      7  C   UNL     1      44.590   7.203  11.382  0.00  0.00    +0.000 A 
ATOM      8  C   UNL     1      45.576   6.268  11.024  0.00  0.00    +0.000 A 
ATOM      9  C   UNL     1      46.910   6.568  11.357  0.00  0.00    +0.000 A 
BRANCH   8  10
ATOM     10  C   UNL     1      45.236   5.042  10.277  0.00  0.00    +0.000 A 
ATOM     11  C   UNL     1      44.336   4.099  10.785  0.00  0.00    +0.000 A 
ATOM     12  N   UNL     1      43.955   2.962  10.152  0.00  0.00    +0.000 NA
ATOM     13  C   UNL     1      44.493   2.749   8.932  0.00  0.00    +0.000 A 
ATOM     14  C   UNL     1      45.386   3.614   8.323  0.00  0.00    +0.000 A 
ATOM     15 CL   UNL     1      46.013   3.281   6.761  0.00  0.00    +0.000 Cl
ATOM     16  C   UNL     1      45.761   4.769   9.004  0.00  0.00    +0.000 A 
ENDBRANCH   8  10
ENDBRANCH   1   4
BRANCH   1  17
ATOM     17  C   UNL     1      48.946   8.480  13.695  0.00  0.00    +0.000 C 
BRANCH  17  22
ATOM     18  C   UNL     1      48.065   4.502  16.768  0.00  0.00    +0.000 A 
ATOM     19  C   UNL     1      47.350   4.943  15.660  0.00  0.00    +0.000 A 
ATOM     20  C   UNL     1      47.878   5.969  14.878  0.00  0.00    +0.000 A 
ATOM     21  C   UNL     1      49.103   6.540  15.213  0.00  0.00    +0.000 A 
ATOM     22  N   UNL     1      49.736   7.478  14.420  0.00  0.00    +0.000 N 
ATOM     23  N   UNL     1      49.786   6.142  16.304  0.00  0.00    +0.000 NA
ATOM     24  C   UNL     1      49.255   5.145  17.063  0.00  0.00    +0.000 A 
ATOM     25  H   UNL     1      50.556   7.829  14.912  0.00  0.00    +0.000 HD
BRANCH  18  27
ATOM     26  N   UNL     1      48.409   3.020  18.656  0.00  0.00    +0.000 N 
ATOM     27  C   UNL     1      47.600   3.389  17.616  0.00  0.00    +0.000 C 
ATOM     28  O   UNL     1      46.521   2.840  17.423  0.00  0.00    +0.000 OA
ATOM     29  H   UNL     1      48.035   2.329  19.298  0.00  0.00    +0.000 HD
ATOM     30  H   UNL     1      49.158   3.607  18.994  0.00  0.00    +0.000 HD
ENDBRANCH  18  27
ENDBRANCH  17  22
ENDBRANCH   1  17
TORSDOF 5
ENDMDL
MODEL 9
REMARK VINA RESULT:    -7.672      3.708      7.399
REMARK INTER + INTRA:         -10.711
REMARK INTER:                 -10.033
REMARK INTRA:                  -0.678
REMARK UNBOUND:                -0.797
REMARK  Name = 
REMARK  5 active torsions:
REMARK  status: ('A' for Active; 'I' for Inactive)
REMARK    1  A    between atoms: C_2  and  C_4
REMARK    2  A    between atoms: N_8  and  C_9
REMARK    3  A    between atoms: C_9  and  C_10
REMARK    4  A    between atoms: C_10  and  C_13
REMARK    5  A    between atoms: C_17  and  C_18
REMARK                            x       y       z     vdW  Elec       q    Type
REMARK                         _______ _______ _______ _____ _____    ______ ____
ROOT
ATOM      1  C   UNL     1      45.894   7.577  12.022  0.00  0.00    +0.000 C 
ATOM      2  F   UNL     1      45.768   7.793  13.367  0.00  0.00    +0.000 F 
ATOM      3  F   UNL     1      45.553   8.760  11.431  0.00  0.00    +0.000 F 
ENDROOT
BRANCH   1   4
ATOM      4  C   UNL     1      45.024   6.431  11.541  0.00  0.00    +0.000 A 
ATOM      5  C   UNL     1      43.663   6.378  11.868  0.00  0.00    +0.000 A 
ATOM      6  C   UNL     1      42.860   5.358  11.365  0.00  0.00    +0.000 A 
ATOM      7  C   UNL     1      43.403   4.398  10.511  0.00  0.00    +0.000 A 
ATOM      8  C   UNL     1      44.758   4.432  10.140  0.00  0.00    +0.000 A 
ATOM      9  C   UNL     1      45.560   5.446  10.696  0.00  0.00    +0.000 A 
BRANCH   8  10
ATOM     10  C   UNL     1      45.310   3.476   9.162  0.00  0.00    +0.000 A 
ATOM     11  C   UNL     1      45.265   2.095   9.380  0.00  0.00    +0.000 A 
ATOM     12  N   UNL     1      45.728   1.152   8.523  0.00  0.00    +0.000 NA
ATOM     13  C   UNL     1      46.262   1.606   7.368  0.00  0.00    +0.000 A 
ATOM     14  C   UNL     1      46.352   2.947   7.038  0.00  0.00    +0.000 A 
ATOM     15 CL   UNL     1      47.030   3.444   5.541  0.00  0.00    +0.000 Cl
ATOM     16  C   UNL     1      45.873   3.889   7.944  0.00  0.00    +0.000 A 
ENDBRANCH   8  10
ENDBRANCH   1   4
BRANCH   1  17
ATOM     17  C   UNL     1      47.385   7.267  11.718  0.00  0.00    +0.000 C 
BRANCH  17  22
ATOM     18  C   UNL     1      47.594   4.341  15.893  0.00  0.00    +0.000 A 
ATOM     19  C   UNL     1      47.270   3.999  14.585  0.00  0.00    +0.000 A 
ATOM     20  C   UNL     1      47.437   4.947  13.576  0.00  0.00    +0.000 A 
ATOM     21  C   UNL     1      47.918   6.216  13.886  0.00  0.00    +0.000 A 
ATOM     22  N   UNL     1      48.215   7.162  12.923  0.00  0.00    +0.000 N 
ATOM     23  N   UNL     1      48.203   6.566  15.155  0.00  0.00    +0.000 NA
ATOM     24  C   UNL     1      48.028   5.635  16.131  0.00  0.00    +0.000 A 
ATOM     25  H   UNL     1      48.446   8.041  13.382  0.00  0.00    +0.000 HD
BRANCH  18  27
ATOM     26  N   UNL     1      48.666   2.971  17.583  0.00  0.00    +0.000 N 
ATOM     27  C   UNL     1      47.494   3.382  17.008  0.00  0.00    +0.000 C 
ATOM     28  O   UNL     1      46.409   2.994  17.428  0.00  0.00    +0.000 OA
ATOM     29  H   UNL     1      48.586   2.398  18.415  0.00  0.00    +0.000 HD
ATOM     30  H   UNL     1      49.539   3.458  17.439  0.00  0.00    +0.000 HD
ENDBRANCH  18  27
ENDBRANCH  17  22
ENDBRANCH   1  17
TORSDOF 5
ENDMDL
