MODEL 1
REMARK VINA RESULT:    -9.749      0.000      0.000
REMARK INTER + INTRA:         -12.810
REMARK INTER:                 -12.028
REMARK INTRA:                  -0.782
REMARK UNBOUND:                -0.782
REMARK  Name = 
REMARK  4 active torsions:
REMARK  status: ('A' for Active; 'I' for Inactive)
REMARK    1  A    between atoms: C_2  and  C_4
REMARK    2  A    between atoms: N_8  and  C_9
REMARK    3  A    between atoms: C_9  and  C_10
REMARK    4  A    between atoms: C_10  and  C_13
REMARK                            x       y       z     vdW  Elec       q    Type
REMARK                         _______ _______ _______ _____ _____    ______ ____
ROOT
ATOM      1  C   UNL     1      43.627   5.532  12.162  0.00  0.00    +0.000 C 
ATOM      2  F   UNL     1      43.486   6.761  11.579  0.00  0.00    +0.000 F 
ATOM      3  F   UNL     1      42.693   5.506  13.163  0.00  0.00    +0.000 F 
ENDROOT
BRANCH   1   4
ATOM      4  C   UNL     1      45.020   5.329  12.713  0.00  0.00    +0.000 A 
ATOM      5  C   UNL     1      45.479   4.095  13.162  0.00  0.00    +0.000 A 
ATOM      6  C   UNL     1      46.785   4.014  13.627  0.00  0.00    +0.000 A 
ATOM      7  N   UNL     1      47.652   5.055  13.659  0.00  0.00    +0.000 NA
ATOM      8  C   UNL     1      47.222   6.243  13.190  0.00  0.00    +0.000 A 
ATOM      9  N   UNL     1      48.065   7.355  13.134  0.00  0.00    +0.000 N 
ATOM     10  C   UNL     1      49.311   7.288  13.917  0.00  0.00    +0.000 C 
ATOM     11  C   UNL     1      49.933   8.702  13.924  0.00  0.00    +0.000 C 
ATOM     12  O   UNL     1      50.177   9.191  12.590  0.00  0.00    +0.000 OA
ATOM     13  C   UNL     1      48.962   9.201  11.820  0.00  0.00    +0.000 C 
ATOM     14  C   UNL     1      48.341   7.799  11.752  0.00  0.00    +0.000 C 
ATOM     15  C   UNL     1      45.906   6.407  12.751  0.00  0.00    +0.000 A 
ENDBRANCH   1   4
BRANCH   1  16
ATOM     16  C   UNL     1      43.257   4.451  11.113  0.00  0.00    +0.000 C 
BRANCH  16  21
ATOM     17  C   UNL     1      46.517   2.509   7.688  0.00  0.00    +0.000 A 
ATOM     18  C   UNL     1      45.643   1.847   8.543  0.00  0.00    +0.000 A 
ATOM     19  C   UNL     1      44.720   2.594   9.278  0.00  0.00    +0.000 A 
ATOM     20  C   UNL     1      44.702   3.979   9.158  0.00  0.00    +0.000 A 
ATOM     21  N   UNL     1      43.759   4.777   9.773  0.00  0.00    +0.000 N 
ATOM     22  N   UNL     1      45.570   4.629   8.362  0.00  0.00    +0.000 NA
ATOM     23  C   UNL     1      46.463   3.890   7.650  0.00  0.00    +0.000 A 
ATOM     24  H   UNL     1      44.017   5.753   9.625  0.00  0.00    +0.000 HD
BRANCH  17  26
ATOM     25  N   UNL     1      48.582   2.500   6.409  0.00  0.00    +0.000 N 
ATOM     26  C   UNL     1      47.487   1.795   6.828  0.00  0.00    +0.000 C 
ATOM     27  O   UNL     1      47.340   0.618   6.541  0.00  0.00    +0.000 OA
ATOM     28  H   UNL     1      49.296   1.968   5.924  0.00  0.00    +0.000 HD
ATOM     29  H   UNL     1      48.863   3.371   6.833  0.00  0.00    +0.000 HD
ENDBRANCH  17  26
ENDBRANCH  16  21
ENDBRANCH   1  16
TORSDOF 4
ENDMDL
MODEL 2
REMARK VINA RESULT:    -8.742      2.031      2.417
REMARK INTER + INTRA:         -11.568
REMARK INTER:                 -10.920
REMARK INTRA:                  -0.648
REMARK UNBOUND:                -0.782
REMARK  Name = 
REMARK  4 active torsions:
REMARK  status: ('A' for Active; 'I' for Inactive)
REMARK    1  A    between atoms: C_2  and  C_4
REMARK    2  A    between atoms: N_8  and  C_9
REMARK    3  A    between atoms: C_9  and  C_10
REMARK    4  A    between atoms: C_10  and  C_13
REMARK                            x       y       z     vdW  Elec       q    Type
REMARK                         _______ _______ _______ _____ _____    ______ ____
ROOT
ATOM      1  C   UNL     1      44.707   5.848  11.866  0.00  0.00    +0.000 C 
ATOM      2  F   UNL     1      45.467   6.632  11.043  0.00  0.00    +0.000 F 
ATOM      3  F   UNL     1      43.976   6.729  12.617  0.00  0.00    +0.000 F 
ENDROOT
BRANCH   1   4
ATOM      4  C   UNL     1      45.561   4.964  12.745  0.00  0.00    +0.000 A 
ATOM      5  C   UNL     1      45.780   3.617  12.473  0.00  0.00    +0.000 A 
ATOM      6  C   UNL     1      46.602   2.903  13.333  0.00  0.00    +0.000 A 
ATOM      7  N   UNL     1      47.222   3.431  14.416  0.00  0.00    +0.000 NA
ATOM      8  C   UNL     1      47.042   4.744  14.661  0.00  0.00    +0.000 A 
ATOM      9  N   UNL     1      47.686   5.384  15.722  0.00  0.00    +0.000 N 
ATOM     10  C   UNL     1      48.279   4.523  16.760  0.00  0.00    +0.000 C 
ATOM     11  C   UNL     1      48.684   5.431  17.942  0.00  0.00    +0.000 C 
ATOM     12  O   UNL     1      49.597   6.471  17.538  0.00  0.00    +0.000 OA
ATOM     13  C   UNL     1      49.026   7.270  16.488  0.00  0.00    +0.000 C 
ATOM     14  C   UNL     1      48.656   6.406  15.275  0.00  0.00    +0.000 C 
ATOM     15  C   UNL     1      46.191   5.513  13.864  0.00  0.00    +0.000 A 
ENDBRANCH   1   4
BRANCH   1  16
ATOM     16  C   UNL     1      43.732   5.022  10.988  0.00  0.00    +0.000 C 
BRANCH  16  21
ATOM     17  C   UNL     1      46.467   2.337   7.605  0.00  0.00    +0.000 A 
ATOM     18  C   UNL     1      45.683   1.883   8.659  0.00  0.00    +0.000 A 
ATOM     19  C   UNL     1      44.886   2.797   9.353  0.00  0.00    +0.000 A 
ATOM     20  C   UNL     1      44.904   4.140   8.993  0.00  0.00    +0.000 A 
ATOM     21  N   UNL     1      44.075   5.084   9.562  0.00  0.00    +0.000 N 
ATOM     22  N   UNL     1      45.690   4.592   7.998  0.00  0.00    +0.000 NA
ATOM     23  C   UNL     1      46.459   3.692   7.330  0.00  0.00    +0.000 A 
ATOM     24  H   UNL     1      44.348   6.004   9.214  0.00  0.00    +0.000 HD
BRANCH  17  26
ATOM     25  N   UNL     1      48.342   1.994   6.098  0.00  0.00    +0.000 N 
ATOM     26  C   UNL     1      47.296   1.432   6.778  0.00  0.00    +0.000 C 
ATOM     27  O   UNL     1      47.083   0.231   6.739  0.00  0.00    +0.000 OA
ATOM     28  H   UNL     1      48.971   1.349   5.636  0.00  0.00    +0.000 HD
ATOM     29  H   UNL     1      48.698   2.914   6.312  0.00  0.00    +0.000 HD
ENDBRANCH  17  26
ENDBRANCH  16  21
ENDBRANCH   1  16
TORSDOF 4
ENDMDL
MODEL 3
REMARK VINA RESULT:    -8.672      1.278      2.085
REMARK INTER + INTRA:         -11.482
REMARK INTER:                 -11.175
REMARK INTRA:                  -0.307
REMARK UNBOUND:                -0.782
REMARK  Name = 
REMARK  4 active torsions:
REMARK  status: ('A' for Active; 'I' for Inactive)
REMARK    1  A    between atoms: C_2  and  C_4
REMARK    2  A    between atoms: N_8  and  C_9
REMARK    3  A    between atoms: C_9  and  C_10
REMARK    4  A    between atoms: C_10  and  C_13
REMARK                            x       y       z     vdW  Elec       q    Type
REMARK                         _______ _______ _______ _____ _____    ______ ____
ROOT
ATOM      1  C   UNL     1      44.438   4.766  12.265  0.00  0.00    +0.000 C 
ATOM      2  F   UNL     1      43.881   4.575  13.499  0.00  0.00    +0.000 F 
ATOM      3  F   UNL     1      45.395   3.792  12.154  0.00  0.00    +0.000 F 
ENDROOT
BRANCH   1   4
ATOM      4  C   UNL     1      45.046   6.143  12.129  0.00  0.00    +0.000 A 
ATOM      5  C   UNL     1      44.326   7.243  11.676  0.00  0.00    +0.000 A 
ATOM      6  C   UNL     1      44.976   8.468  11.613  0.00  0.00    +0.000 A 
ATOM      7  N   UNL     1      46.265   8.671  11.980  0.00  0.00    +0.000 NA
ATOM      8  C   UNL     1      46.954   7.615  12.456  0.00  0.00    +0.000 A 
ATOM      9  N   UNL     1      48.269   7.745  12.908  0.00  0.00    +0.000 N 
ATOM     10  C   UNL     1      48.987   8.973  12.528  0.00  0.00    +0.000 C 
ATOM     11  C   UNL     1      50.474   8.775  12.896  0.00  0.00    +0.000 C 
ATOM     12  O   UNL     1      50.649   8.476  14.296  0.00  0.00    +0.000 OA
ATOM     13  C   UNL     1      49.900   7.305  14.664  0.00  0.00    +0.000 C 
ATOM     14  C   UNL     1      48.408   7.486  14.356  0.00  0.00    +0.000 C 
ATOM     15  C   UNL     1      46.377   6.344  12.502  0.00  0.00    +0.000 A 
ENDBRANCH   1   4
BRANCH   1  16
ATOM     16  C   UNL     1      43.347   4.508  11.193  0.00  0.00    +0.000 C 
BRANCH  16  21
ATOM     17  C   UNL     1      46.466   2.501   7.676  0.00  0.00    +0.000 A 
ATOM     18  C   UNL     1      45.610   1.856   8.561  0.00  0.00    +0.000 A 
ATOM     19  C   UNL     1      44.722   2.621   9.322  0.00  0.00    +0.000 A 
ATOM     20  C   UNL     1      44.722   4.005   9.196  0.00  0.00    +0.000 A 
ATOM     21  N   UNL     1      43.811   4.820   9.837  0.00  0.00    +0.000 N 
ATOM     22  N   UNL     1      45.574   4.638   8.369  0.00  0.00    +0.000 NA
ATOM     23  C   UNL     1      46.432   3.883   7.633  0.00  0.00    +0.000 A 
ATOM     24  H   UNL     1      44.079   5.791   9.675  0.00  0.00    +0.000 HD
BRANCH  17  26
ATOM     25  N   UNL     1      48.514   2.440   6.370  0.00  0.00    +0.000 N 
ATOM     26  C   UNL     1      47.398   1.769   6.789  0.00  0.00    +0.000 C 
ATOM     27  O   UNL     1      47.202   0.604   6.481  0.00  0.00    +0.000 OA
ATOM     28  H   UNL     1      49.200   1.891   5.865  0.00  0.00    +0.000 HD
ATOM     29  H   UNL     1      48.833   3.291   6.807  0.00  0.00    +0.000 HD
ENDBRANCH  17  26
ENDBRANCH  16  21
ENDBRANCH   1  16
TORSDOF 4
ENDMDL
MODEL 4
REMARK VINA RESULT:    -8.320      2.709      3.280
REMARK INTER + INTRA:         -11.048
REMARK INTER:                 -10.538
REMARK INTRA:                  -0.509
REMARK UNBOUND:                -0.782
REMARK  Name = 
REMARK  4 active torsions:
REMARK  status: ('A' for Active; 'I' for Inactive)
REMARK    1  A    between atoms: C_2  and  C_4
REMARK    2  A    between atoms: N_8  and  C_9
REMARK    3  A    between atoms: C_9  and  C_10
REMARK    4  A    between atoms: C_10  and  C_13
REMARK                            x       y       z     vdW  Elec       q    Type
REMARK                         _______ _______ _______ _____ _____    ______ ____
ROOT
ATOM      1  C   UNL     1      44.287   4.267  12.385  0.00  0.00    +0.000 C 
ATOM      2  F   UNL     1      43.606   4.257  13.570  0.00  0.00    +0.000 F 
ATOM      3  F   UNL     1      45.072   3.146  12.419  0.00  0.00    +0.000 F 
ENDROOT
BRANCH   1   4
ATOM      4  C   UNL     1      45.127   5.514  12.229  0.00  0.00    +0.000 A 
ATOM      5  C   UNL     1      46.517   5.486  12.200  0.00  0.00    +0.000 A 
ATOM      6  C   UNL     1      47.191   6.687  12.028  0.00  0.00    +0.000 A 
ATOM      7  N   UNL     1      46.585   7.889  11.871  0.00  0.00    +0.000 NA
ATOM      8  C   UNL     1      45.237   7.915  11.861  0.00  0.00    +0.000 A 
ATOM      9  N   UNL     1      44.531   9.100  11.649  0.00  0.00    +0.000 N 
ATOM     10  C   UNL     1      45.282  10.360  11.787  0.00  0.00    +0.000 C 
ATOM     11  C   UNL     1      44.258  11.516  11.782  0.00  0.00    +0.000 C 
ATOM     12  O   UNL     1      43.449  11.516  10.589  0.00  0.00    +0.000 OA
ATOM     13  C   UNL     1      42.762  10.261  10.439  0.00  0.00    +0.000 C 
ATOM     14  C   UNL     1      43.754   9.092  10.392  0.00  0.00    +0.000 C 
ATOM     15  C   UNL     1      44.497   6.750  12.075  0.00  0.00    +0.000 A 
ENDBRANCH   1   4
BRANCH   1  16
ATOM     16  C   UNL     1      43.260   4.114  11.232  0.00  0.00    +0.000 C 
BRANCH  16  21
ATOM     17  C   UNL     1      46.525   2.822   7.518  0.00  0.00    +0.000 A 
ATOM     18  C   UNL     1      45.661   2.014   8.249  0.00  0.00    +0.000 A 
ATOM     19  C   UNL     1      44.734   2.614   9.103  0.00  0.00    +0.000 A 
ATOM     20  C   UNL     1      44.702   3.999   9.223  0.00  0.00    +0.000 A 
ATOM     21  N   UNL     1      43.753   4.670   9.967  0.00  0.00    +0.000 N 
ATOM     22  N   UNL     1      45.560   4.785   8.547  0.00  0.00    +0.000 NA
ATOM     23  C   UNL     1      46.457   4.189   7.718  0.00  0.00    +0.000 A 
ATOM     24  H   UNL     1      44.001   5.660   9.987  0.00  0.00    +0.000 HD
BRANCH  17  26
ATOM     25  N   UNL     1      47.555   2.874   5.318  0.00  0.00    +0.000 N 
ATOM     26  C   UNL     1      47.500   2.276   6.547  0.00  0.00    +0.000 C 
ATOM     27  O   UNL     1      48.250   1.360   6.843  0.00  0.00    +0.000 OA
ATOM     28  H   UNL     1      48.305   2.572   4.708  0.00  0.00    +0.000 HD
ATOM     29  H   UNL     1      47.146   3.779   5.135  0.00  0.00    +0.000 HD
ENDBRANCH  17  26
ENDBRANCH  16  21
ENDBRANCH   1  16
TORSDOF 4
ENDMDL
MODEL 5
REMARK VINA RESULT:    -7.656      2.930      7.540
REMARK INTER + INTRA:         -10.229
REMARK INTER:                  -9.746
REMARK INTRA:                  -0.483
REMARK UNBOUND:                -0.782
REMARK  Name = 
REMARK  4 active torsions:
REMARK  status: ('A' for Active; 'I' for Inactive)
REMARK    1  A    between atoms: C_2  and  C_4
REMARK    2  A    between atoms: N_8  and  C_9
REMARK    3  A    between atoms: C_9  and  C_10
REMARK    4  A    between atoms: C_10  and  C_13
REMARK                            x       y       z     vdW  Elec       q    Type
REMARK                         _______ _______ _______ _____ _____    ______ ____
ROOT
ATOM      1  C   UNL     1      44.878   5.949  12.449  0.00  0.00    +0.000 C 
ATOM      2  F   UNL     1      43.879   6.361  13.288  0.00  0.00    +0.000 F 
ATOM      3  F   UNL     1      45.012   6.962  11.537  0.00  0.00    +0.000 F 
ENDROOT
BRANCH   1   4
ATOM      4  C   UNL     1      44.537   4.645  11.766  0.00  0.00    +0.000 A 
ATOM      5  C   UNL     1      43.441   3.869  12.129  0.00  0.00    +0.000 A 
ATOM      6  C   UNL     1      43.205   2.700  11.419  0.00  0.00    +0.000 A 
ATOM      7  N   UNL     1      43.963   2.268  10.382  0.00  0.00    +0.000 NA
ATOM      8  C   UNL     1      45.003   3.037  10.003  0.00  0.00    +0.000 A 
ATOM      9  N   UNL     1      45.803   2.696   8.910  0.00  0.00    +0.000 N 
ATOM     10  C   UNL     1      45.697   1.315   8.409  0.00  0.00    +0.000 C 
ATOM     11  C   UNL     1      46.846   1.097   7.401  0.00  0.00    +0.000 C 
ATOM     12  O   UNL     1      46.808   2.051   6.321  0.00  0.00    +0.000 OA
ATOM     13  C   UNL     1      46.858   3.396   6.828  0.00  0.00    +0.000 C 
ATOM     14  C   UNL     1      45.700   3.664   7.798  0.00  0.00    +0.000 C 
ATOM     15  C   UNL     1      45.326   4.201  10.703  0.00  0.00    +0.000 A 
ENDBRANCH   1   4
BRANCH   1  16
ATOM     16  C   UNL     1      46.190   5.848  13.270  0.00  0.00    +0.000 C 
BRANCH  16  21
ATOM     17  C   UNL     1      49.065   4.095  17.116  0.00  0.00    +0.000 A 
ATOM     18  C   UNL     1      48.853   5.406  16.704  0.00  0.00    +0.000 A 
ATOM     19  C   UNL     1      47.888   5.660  15.727  0.00  0.00    +0.000 A 
ATOM     20  C   UNL     1      47.172   4.605  15.173  0.00  0.00    +0.000 A 
ATOM     21  N   UNL     1      46.137   4.783  14.279  0.00  0.00    +0.000 N 
ATOM     22  N   UNL     1      47.399   3.330  15.540  0.00  0.00    +0.000 NA
ATOM     23  C   UNL     1      48.340   3.096  16.493  0.00  0.00    +0.000 A 
ATOM     24  H   UNL     1      45.845   3.867  13.937  0.00  0.00    +0.000 HD
BRANCH  17  26
ATOM     25  N   UNL     1      50.755   2.595  18.010  0.00  0.00    +0.000 N 
ATOM     26  C   UNL     1      50.025   3.739  18.185  0.00  0.00    +0.000 C 
ATOM     27  O   UNL     1      50.189   4.456  19.160  0.00  0.00    +0.000 OA
ATOM     28  H   UNL     1      51.490   2.428  18.686  0.00  0.00    +0.000 HD
ATOM     29  H   UNL     1      50.833   2.133  17.117  0.00  0.00    +0.000 HD
ENDBRANCH  17  26
ENDBRANCH  16  21
ENDBRANCH   1  16
TORSDOF 4
ENDMDL
MODEL 6
REMARK VINA RESULT:    -7.392      2.564      3.627
REMARK INTER + INTRA:          -9.903
REMARK INTER:                  -9.247
REMARK INTRA:                  -0.656
REMARK UNBOUND:                -0.782
REMARK  Name = 
REMARK  4 active torsions:
REMARK  status: ('A' for Active; 'I' for Inactive)
REMARK    1  A    between atoms: C_2  and  C_4
REMARK    2  A    between atoms: N_8  and  C_9
REMARK    3  A    between atoms: C_9  and  C_10
REMARK    4  A    between atoms: C_10  and  C_13
REMARK                            x       y       z     vdW  Elec       q    Type
REMARK                         _______ _______ _______ _____ _____    ______ ____
ROOT
ATOM      1  C   UNL     1      43.730   4.710  12.714  0.00  0.00    +0.000 C 
ATOM      2  F   UNL     1      42.892   5.771  12.917  0.00  0.00    +0.000 F 
ATOM      3  F   UNL     1      43.207   3.696  13.472  0.00  0.00    +0.000 F 
ENDROOT
BRANCH   1   4
ATOM      4  C   UNL     1      45.148   5.025  13.133  0.00  0.00    +0.000 A 
ATOM      5  C   UNL     1      45.893   6.050  12.558  0.00  0.00    +0.000 A 
ATOM      6  C   UNL     1      47.177   6.270  13.035  0.00  0.00    +0.000 A 
ATOM      7  N   UNL     1      47.753   5.563  14.038  0.00  0.00    +0.000 NA
ATOM      8  C   UNL     1      47.021   4.595  14.622  0.00  0.00    +0.000 A 
ATOM      9  N   UNL     1      47.515   3.855  15.699  0.00  0.00    +0.000 N 
ATOM     10  C   UNL     1      48.966   3.920  15.944  0.00  0.00    +0.000 C 
ATOM     11  C   UNL     1      49.311   2.832  16.985  0.00  0.00    +0.000 C 
ATOM     12  O   UNL     1      48.564   2.997  18.208  0.00  0.00    +0.000 OA
ATOM     13  C   UNL     1      47.150   2.985  17.946  0.00  0.00    +0.000 C 
ATOM     14  C   UNL     1      46.763   4.086  16.950  0.00  0.00    +0.000 C 
ATOM     15  C   UNL     1      45.739   4.289  14.162  0.00  0.00    +0.000 A 
ENDBRANCH   1   4
BRANCH   1  16
ATOM     16  C   UNL     1      43.646   4.302  11.220  0.00  0.00    +0.000 C 
BRANCH  16  21
ATOM     17  C   UNL     1      46.587   2.946   7.265  0.00  0.00    +0.000 A 
ATOM     18  C   UNL     1      46.289   4.217   7.744  0.00  0.00    +0.000 A 
ATOM     19  C   UNL     1      45.593   4.340   8.949  0.00  0.00    +0.000 A 
ATOM     20  C   UNL     1      45.196   3.198   9.636  0.00  0.00    +0.000 A 
ATOM     21  N   UNL     1      44.596   3.237  10.877  0.00  0.00    +0.000 N 
ATOM     22  N   UNL     1      45.448   1.966   9.159  0.00  0.00    +0.000 NA
ATOM     23  C   UNL     1      46.127   1.859   7.986  0.00  0.00    +0.000 A 
ATOM     24  H   UNL     1      44.304   2.290  11.123  0.00  0.00    +0.000 HD
BRANCH  17  26
ATOM     25  N   UNL     1      48.660   2.293   6.178  0.00  0.00    +0.000 N 
ATOM     26  C   UNL     1      47.368   2.721   6.029  0.00  0.00    +0.000 C 
ATOM     27  O   UNL     1      46.871   2.869   4.924  0.00  0.00    +0.000 OA
ATOM     28  H   UNL     1      49.142   2.028   5.328  0.00  0.00    +0.000 HD
ATOM     29  H   UNL     1      49.010   1.917   7.046  0.00  0.00    +0.000 HD
ENDBRANCH  17  26
ENDBRANCH  16  21
ENDBRANCH   1  16
TORSDOF 4
ENDMDL
MODEL 7
REMARK VINA RESULT:    -7.354      2.648      7.026
REMARK INTER + INTRA:          -9.856
REMARK INTER:                  -9.021
REMARK INTRA:                  -0.835
REMARK UNBOUND:                -0.782
REMARK  Name = 
REMARK  4 active torsions:
REMARK  status: ('A' for Active; 'I' for Inactive)
REMARK    1  A    between atoms: C_2  and  C_4
REMARK    2  A    between atoms: N_8  and  C_9
REMARK    3  A    between atoms: C_9  and  C_10
REMARK    4  A    between atoms: C_10  and  C_13
REMARK                            x       y       z     vdW  Elec       q    Type
REMARK                         _______ _______ _______ _____ _____    ______ ____
ROOT
ATOM      1  C   UNL     1      45.364   6.742  11.514  0.00  0.00    +0.000 C 
ATOM      2  F   UNL     1      44.585   7.743  11.002  0.00  0.00    +0.000 F 
ATOM      3  F   UNL     1      46.617   6.979  11.014  0.00  0.00    +0.000 F 
ENDROOT
BRANCH   1   4
ATOM      4  C   UNL     1      44.865   5.376  11.102  0.00  0.00    +0.000 A 
ATOM      5  C   UNL     1      43.688   4.824  11.596  0.00  0.00    +0.000 A 
ATOM      6  C   UNL     1      43.309   3.572  11.133  0.00  0.00    +0.000 A 
ATOM      7  N   UNL     1      44.002   2.852  10.217  0.00  0.00    +0.000 NA
ATOM      8  C   UNL     1      45.123   3.401   9.708  0.00  0.00    +0.000 A 
ATOM      9  N   UNL     1      45.869   2.754   8.719  0.00  0.00    +0.000 N 
ATOM     10  C   UNL     1      45.595   1.323   8.505  0.00  0.00    +0.000 C 
ATOM     11  C   UNL     1      46.703   0.771   7.581  0.00  0.00    +0.000 C 
ATOM     12  O   UNL     1      46.769   1.485   6.330  0.00  0.00    +0.000 OA
ATOM     13  C   UNL     1      46.983   2.889   6.556  0.00  0.00    +0.000 C 
ATOM     14  C   UNL     1      45.873   3.483   7.433  0.00  0.00    +0.000 C 
ATOM     15  C   UNL     1      45.588   4.636  10.163  0.00  0.00    +0.000 A 
ENDBRANCH   1   4
BRANCH   1  16
ATOM     16  C   UNL     1      45.410   6.901  13.056  0.00  0.00    +0.000 C 
BRANCH  16  21
ATOM     17  C   UNL     1      48.202   3.714  15.915  0.00  0.00    +0.000 A 
ATOM     18  C   UNL     1      47.237   3.420  14.958  0.00  0.00    +0.000 A 
ATOM     19  C   UNL     1      46.721   4.456  14.177  0.00  0.00    +0.000 A 
ATOM     20  C   UNL     1      47.163   5.759  14.380  0.00  0.00    +0.000 A 
ATOM     21  N   UNL     1      46.776   6.818  13.586  0.00  0.00    +0.000 N 
ATOM     22  N   UNL     1      48.068   6.056  15.331  0.00  0.00    +0.000 NA
ATOM     23  C   UNL     1      48.563   5.038  16.083  0.00  0.00    +0.000 A 
ATOM     24  H   UNL     1      47.143   7.678  13.995  0.00  0.00    +0.000 HD
BRANCH  17  26
ATOM     25  N   UNL     1      48.863   2.880  18.099  0.00  0.00    +0.000 N 
ATOM     26  C   UNL     1      48.845   2.672  16.747  0.00  0.00    +0.000 C 
ATOM     27  O   UNL     1      49.302   1.654  16.253  0.00  0.00    +0.000 OA
ATOM     28  H   UNL     1      49.196   2.107  18.664  0.00  0.00    +0.000 HD
ATOM     29  H   UNL     1      48.276   3.564  18.552  0.00  0.00    +0.000 HD
ENDBRANCH  17  26
ENDBRANCH  16  21
ENDBRANCH   1  16
TORSDOF 4
ENDMDL
MODEL 8
REMARK VINA RESULT:    -7.151      1.867      6.932
REMARK INTER + INTRA:          -9.605
REMARK INTER:                  -8.956
REMARK INTRA:                  -0.649
REMARK UNBOUND:                -0.782
REMARK  Name = 
REMARK  4 active torsions:
REMARK  status: ('A' for Active; 'I' for Inactive)
REMARK    1  A    between atoms: C_2  and  C_4
REMARK    2  A    between atoms: N_8  and  C_9
REMARK    3  A    between atoms: C_9  and  C_10
REMARK    4  A    between atoms: C_10  and  C_13
REMARK                            x       y       z     vdW  Elec       q    Type
REMARK                         _______ _______ _______ _____ _____    ______ ____
ROOT
ATOM      1  C   UNL     1      44.100   6.331  11.467  0.00  0.00    +0.000 C 
ATOM      2  F   UNL     1      42.845   6.863  11.357  0.00  0.00    +0.000 F 
ATOM      3  F   UNL     1      44.876   7.082  10.624  0.00  0.00    +0.000 F 
ENDROOT
BRANCH   1   4
ATOM      4  C   UNL     1      44.128   4.871  11.075  0.00  0.00    +0.000 A 
ATOM      5  C   UNL     1      43.304   3.918  11.663  0.00  0.00    +0.000 A 
ATOM      6  C   UNL     1      43.394   2.609  11.211  0.00  0.00    +0.000 A 
ATOM      7  N   UNL     1      44.221   2.196  10.220  0.00  0.00    +0.000 NA
ATOM      8  C   UNL     1      44.994   3.124   9.622  0.00  0.00    +0.000 A 
ATOM      9  N   UNL     1      45.835   2.798   8.556  0.00  0.00    +0.000 N 
ATOM     10  C   UNL     1      46.113   1.368   8.339  0.00  0.00    +0.000 C 
ATOM     11  C   UNL     1      47.257   1.269   7.305  0.00  0.00    +0.000 C 
ATOM     12  O   UNL     1      46.928   1.934   6.069  0.00  0.00    +0.000 OA
ATOM     13  C   UNL     1      46.607   3.316   6.303  0.00  0.00    +0.000 C 
ATOM     14  C   UNL     1      45.440   3.451   7.291  0.00  0.00    +0.000 C 
ATOM     15  C   UNL     1      44.988   4.451  10.059  0.00  0.00    +0.000 A 
ENDBRANCH   1   4
BRANCH   1  16
ATOM     16  C   UNL     1      44.596   6.550  12.920  0.00  0.00    +0.000 C 
BRANCH  16  21
ATOM     17  C   UNL     1      49.469   7.963  13.543  0.00  0.00    +0.000 A 
ATOM     18  C   UNL     1      48.945   6.928  12.776  0.00  0.00    +0.000 A 
ATOM     19  C   UNL     1      47.560   6.833  12.623  0.00  0.00    +0.000 A 
ATOM     20  C   UNL     1      46.732   7.758  13.250  0.00  0.00    +0.000 A 
ATOM     21  N   UNL     1      45.365   7.791  13.067  0.00  0.00    +0.000 N 
ATOM     22  N   UNL     1      47.230   8.739  14.024  0.00  0.00    +0.000 NA
ATOM     23  C   UNL     1      48.580   8.821  14.164  0.00  0.00    +0.000 A 
ATOM     24  H   UNL     1      44.971   8.480  13.709  0.00  0.00    +0.000 HD
BRANCH  17  26
ATOM     25  N   UNL     1      51.703   8.068  12.592  0.00  0.00    +0.000 N 
ATOM     26  C   UNL     1      50.924   8.175  13.712  0.00  0.00    +0.000 C 
ATOM     27  O   UNL     1      51.403   8.472  14.794  0.00  0.00    +0.000 OA
ATOM     28  H   UNL     1      52.675   8.333  12.699  0.00  0.00    +0.000 HD
ATOM     29  H   UNL     1      51.318   8.084  11.660  0.00  0.00    +0.000 HD
ENDBRANCH  17  26
ENDBRANCH  16  21
ENDBRANCH   1  16
TORSDOF 4
ENDMDL
MODEL 9
REMARK VINA RESULT:    -7.071      5.632      7.215
REMARK INTER + INTRA:          -9.506
REMARK INTER:                  -9.142
REMARK INTRA:                  -0.364
REMARK UNBOUND:                -0.782
REMARK  Name = 
REMARK  4 active torsions:
REMARK  status: ('A' for Active; 'I' for Inactive)
REMARK    1  A    between atoms: C_2  and  C_4
REMARK    2  A    between atoms: N_8  and  C_9
REMARK    3  A    between atoms: C_9  and  C_10
REMARK    4  A    between atoms: C_10  and  C_13
REMARK                            x       y       z     vdW  Elec       q    Type
REMARK                         _______ _______ _______ _____ _____    ______ ____
ROOT
ATOM      1  C   UNL     1      48.181   2.912  16.920  0.00  0.00    +0.000 C 
ATOM      2  F   UNL     1      47.180   2.412  17.705  0.00  0.00    +0.000 F 
ATOM      3  F   UNL     1      48.646   1.835  16.212  0.00  0.00    +0.000 F 
ENDROOT
BRANCH   1   4
ATOM      4  C   UNL     1      49.284   3.535  17.745  0.00  0.00    +0.000 A 
ATOM      5  C   UNL     1      49.033   4.369  18.830  0.00  0.00    +0.000 A 
ATOM      6  C   UNL     1      50.119   4.868  19.535  0.00  0.00    +0.000 A 
ATOM      7  N   UNL     1      51.414   4.586  19.247  0.00  0.00    +0.000 NA
ATOM      8  C   UNL     1      51.659   3.749  18.221  0.00  0.00    +0.000 A 
ATOM      9  N   UNL     1      52.959   3.360  17.889  0.00  0.00    +0.000 N 
ATOM     10  C   UNL     1      54.059   4.155  18.461  0.00  0.00    +0.000 C 
ATOM     11  C   UNL     1      55.362   3.723  17.752  0.00  0.00    +0.000 C 
ATOM     12  O   UNL     1      55.609   2.309  17.891  0.00  0.00    +0.000 OA
ATOM     13  C   UNL     1      54.503   1.546  17.378  0.00  0.00    +0.000 C 
ATOM     14  C   UNL     1      53.198   1.916  18.094  0.00  0.00    +0.000 C 
ATOM     15  C   UNL     1      50.616   3.247  17.440  0.00  0.00    +0.000 A 
ENDBRANCH   1   4
BRANCH   1  16
ATOM     16  C   UNL     1      47.560   3.926  15.925  0.00  0.00    +0.000 C 
BRANCH  16  21
ATOM     17  C   UNL     1      44.626   4.736  11.817  0.00  0.00    +0.000 A 
ATOM     18  C   UNL     1      45.203   5.660  12.681  0.00  0.00    +0.000 A 
ATOM     19  C   UNL     1      46.110   5.212  13.644  0.00  0.00    +0.000 A 
ATOM     20  C   UNL     1      46.406   3.856  13.735  0.00  0.00    +0.000 A 
ATOM     21  N   UNL     1      47.362   3.349  14.590  0.00  0.00    +0.000 N 
ATOM     22  N   UNL     1      45.822   2.952  12.927  0.00  0.00    +0.000 NA
ATOM     23  C   UNL     1      44.942   3.401  11.993  0.00  0.00    +0.000 A 
ATOM     24  H   UNL     1      47.319   2.329  14.552  0.00  0.00    +0.000 HD
BRANCH  17  26
ATOM     25  N   UNL     1      44.047   4.768   9.458  0.00  0.00    +0.000 N 
ATOM     26  C   UNL     1      43.700   5.128  10.731  0.00  0.00    +0.000 C 
ATOM     27  O   UNL     1      42.653   5.709  10.965  0.00  0.00    +0.000 OA
ATOM     28  H   UNL     1      43.350   4.935   8.742  0.00  0.00    +0.000 HD
ATOM     29  H   UNL     1      44.754   4.075   9.263  0.00  0.00    +0.000 HD
ENDBRANCH  17  26
ENDBRANCH  16  21
ENDBRANCH   1  16
TORSDOF 4
ENDMDL
