MODEL 1
REMARK VINA RESULT:    -9.162      0.000      0.000
REMARK INTER + INTRA:         -12.760
REMARK INTER:                 -12.375
REMARK INTRA:                  -0.385
REMARK UNBOUND:                -0.385
REMARK  Name = 
REMARK  6 active torsions:
REMARK  status: ('A' for Active; 'I' for Inactive)
REMARK    1  A    between atoms: C_2  and  C_3
REMARK    2  A    between atoms: C_6  and  C_7
REMARK    3  A    between atoms: C_11  and  C_12
REMARK    4  A    between atoms: C_12  and  N_13
REMARK    5  A    between atoms: N_13  and  C_14
REMARK    6  A    between atoms: C_17  and  C_18
REMARK                            x       y       z     vdW  Elec       q    Type
REMARK                         _______ _______ _______ _____ _____    ______ ____
ROOT
ATOM      1  C   UNL     1      43.749   5.135  11.117  0.00  0.00    +0.000 C 
ATOM      2  C   UNL     1      42.507   5.624  11.832  0.00  0.00    +0.000 C 
ATOM      3  C   UNL     1      42.911   4.200  11.996  0.00  0.00    +0.000 C 
ENDROOT
BRANCH   1   8
ATOM      4  C   UNL     1      46.870   5.551  13.387  0.00  0.00    +0.000 A 
ATOM      5  C   UNL     1      47.619   6.440  12.595  0.00  0.00    +0.000 A 
ATOM      6  C   UNL     1      47.123   6.939  11.399  0.00  0.00    +0.000 A 
ATOM      7  C   UNL     1      45.867   6.539  10.955  0.00  0.00    +0.000 A 
ATOM      8  C   UNL     1      45.109   5.584  11.652  0.00  0.00    +0.000 A 
ATOM      9  C   UNL     1      45.640   5.099  12.869  0.00  0.00    +0.000 A 
BRANCH   4  13
ATOM     10  C   UNL     1      48.132   4.469  17.222  0.00  0.00    +0.000 A 
ATOM     11  C   UNL     1      48.699   5.543  16.554  0.00  0.00    +0.000 A 
ATOM     12  N   UNL     1      48.329   5.910  15.296  0.00  0.00    +0.000 NA
ATOM     13  C   UNL     1      47.354   5.158  14.722  0.00  0.00    +0.000 A 
ATOM     14  C   UNL     1      46.828   4.051  15.397  0.00  0.00    +0.000 A 
ATOM     15  N   UNL     1      47.187   3.686  16.652  0.00  0.00    +0.000 NA
BRANCH  10  17
ATOM     16  N   UNL     1      48.787   3.940  19.670  0.00  0.00    +0.000 NA
ATOM     17  C   UNL     1      48.498   4.156  18.572  0.00  0.00    +0.000 C 
ENDBRANCH  10  17
ENDBRANCH   4  13
ENDBRANCH   1   8
BRANCH   1  18
ATOM     18  N   UNL     1      43.776   4.771   9.691  0.00  0.00    +0.000 N 
ATOM     19  H   UNL     1      43.379   5.446   9.044  0.00  0.00    +0.000 HD
BRANCH  18  20
ATOM     20  C   UNL     1      44.678   3.886   9.081  0.00  0.00    +0.000 A 
ATOM     21  C   UNL     1      45.644   4.266   8.151  0.00  0.00    +0.000 A 
ATOM     22  C   UNL     1      46.472   3.307   7.564  0.00  0.00    +0.000 A 
ATOM     23  C   UNL     1      46.333   1.984   7.959  0.00  0.00    +0.000 A 
ATOM     24  N   UNL     1      45.476   1.573   8.931  0.00  0.00    +0.000 NA
ATOM     25  C   UNL     1      44.693   2.539   9.469  0.00  0.00    +0.000 A 
BRANCH  23  26
ATOM     26  C   UNL     1      47.101   0.909   7.256  0.00  0.00    +0.000 C 
ATOM     27  N   UNL     1      46.776  -0.371   7.616  0.00  0.00    +0.000 N 
ATOM     28  O   UNL     1      47.937   1.147   6.393  0.00  0.00    +0.000 OA
ATOM     29  H   UNL     1      46.028  -0.520   8.285  0.00  0.00    +0.000 HD
ATOM     30  H   UNL     1      47.175  -1.147   7.109  0.00  0.00    +0.000 HD
ENDBRANCH  23  26
ENDBRANCH  18  20
ENDBRANCH   1  18
TORSDOF 6
ENDMDL
MODEL 2
REMARK VINA RESULT:    -8.648      2.491      3.999
REMARK INTER + INTRA:         -12.067
REMARK INTER:                 -11.018
REMARK INTRA:                  -1.048
REMARK UNBOUND:                -0.385
REMARK  Name = 
REMARK  6 active torsions:
REMARK  status: ('A' for Active; 'I' for Inactive)
REMARK    1  A    between atoms: C_2  and  C_3
REMARK    2  A    between atoms: C_6  and  C_7
REMARK    3  A    between atoms: C_11  and  C_12
REMARK    4  A    between atoms: C_12  and  N_13
REMARK    5  A    between atoms: N_13  and  C_14
REMARK    6  A    between atoms: C_17  and  C_18
REMARK                            x       y       z     vdW  Elec       q    Type
REMARK                         _______ _______ _______ _____ _____    ______ ____
ROOT
ATOM      1  C   UNL     1      43.848   4.975  11.330  0.00  0.00    +0.000 C 
ATOM      2  C   UNL     1      43.240   6.340  11.082  0.00  0.00    +0.000 C 
ATOM      3  C   UNL     1      42.577   5.428  12.055  0.00  0.00    +0.000 C 
ENDROOT
BRANCH   1   8
ATOM      4  C   UNL     1      47.291   5.880  12.879  0.00  0.00    +0.000 A 
ATOM      5  C   UNL     1      47.511   4.726  13.652  0.00  0.00    +0.000 A 
ATOM      6  C   UNL     1      46.617   3.663  13.639  0.00  0.00    +0.000 A 
ATOM      7  C   UNL     1      45.466   3.743  12.863  0.00  0.00    +0.000 A 
ATOM      8  C   UNL     1      45.142   4.903  12.142  0.00  0.00    +0.000 A 
ATOM      9  C   UNL     1      46.075   5.966  12.172  0.00  0.00    +0.000 A 
BRANCH   4  13
ATOM     10  C   UNL     1      50.274   8.786  12.533  0.00  0.00    +0.000 A 
ATOM     11  C   UNL     1      50.260   7.892  13.592  0.00  0.00    +0.000 A 
ATOM     12  N   UNL     1      49.291   6.948  13.750  0.00  0.00    +0.000 NA
ATOM     13  C   UNL     1      48.326   6.924  12.794  0.00  0.00    +0.000 A 
ATOM     14  C   UNL     1      48.337   7.865  11.757  0.00  0.00    +0.000 A 
ATOM     15  N   UNL     1      49.302   8.801  11.592  0.00  0.00    +0.000 NA
BRANCH  10  17
ATOM     16  N   UNL     1      52.190  10.500  12.226  0.00  0.00    +0.000 NA
ATOM     17  C   UNL     1      51.349   9.719  12.364  0.00  0.00    +0.000 C 
ENDBRANCH  10  17
ENDBRANCH   4  13
ENDBRANCH   1   8
BRANCH   1  18
ATOM     18  N   UNL     1      43.662   3.826  10.430  0.00  0.00    +0.000 N 
ATOM     19  H   UNL     1      42.703   3.557  10.230  0.00  0.00    +0.000 HD
BRANCH  18  20
ATOM     20  C   UNL     1      44.574   3.379   9.461  0.00  0.00    +0.000 A 
ATOM     21  C   UNL     1      44.994   2.057   9.330  0.00  0.00    +0.000 A 
ATOM     22  C   UNL     1      45.940   1.711   8.361  0.00  0.00    +0.000 A 
ATOM     23  C   UNL     1      46.412   2.705   7.517  0.00  0.00    +0.000 A 
ATOM     24  N   UNL     1      45.964   3.989   7.537  0.00  0.00    +0.000 NA
ATOM     25  C   UNL     1      45.051   4.276   8.495  0.00  0.00    +0.000 A 
BRANCH  23  26
ATOM     26  C   UNL     1      47.525   2.407   6.561  0.00  0.00    +0.000 C 
ATOM     27  N   UNL     1      47.513   3.142   5.405  0.00  0.00    +0.000 N 
ATOM     28  O   UNL     1      48.406   1.591   6.801  0.00  0.00    +0.000 OA
ATOM     29  H   UNL     1      46.803   3.855   5.282  0.00  0.00    +0.000 HD
ATOM     30  H   UNL     1      48.289   3.072   4.764  0.00  0.00    +0.000 HD
ENDBRANCH  23  26
ENDBRANCH  18  20
ENDBRANCH   1  18
TORSDOF 6
ENDMDL
MODEL 3
REMARK VINA RESULT:    -7.781      2.252      2.849
REMARK INTER + INTRA:         -10.895
REMARK INTER:                 -10.713
REMARK INTRA:                  -0.183
REMARK UNBOUND:                -0.385
REMARK  Name = 
REMARK  6 active torsions:
REMARK  status: ('A' for Active; 'I' for Inactive)
REMARK    1  A    between atoms: C_2  and  C_3
REMARK    2  A    between atoms: C_6  and  C_7
REMARK    3  A    between atoms: C_11  and  C_12
REMARK    4  A    between atoms: C_12  and  N_13
REMARK    5  A    between atoms: N_13  and  C_14
REMARK    6  A    between atoms: C_17  and  C_18
REMARK                            x       y       z     vdW  Elec       q    Type
REMARK                         _______ _______ _______ _____ _____    ______ ____
ROOT
ATOM      1  C   UNL     1      44.285   4.830  11.705  0.00  0.00    +0.000 C 
ATOM      2  C   UNL     1      43.438   4.316  12.850  0.00  0.00    +0.000 C 
ATOM      3  C   UNL     1      44.690   3.587  12.504  0.00  0.00    +0.000 C 
ENDROOT
BRANCH   1   8
ATOM      4  C   UNL     1      47.081   7.293  12.795  0.00  0.00    +0.000 A 
ATOM      5  C   UNL     1      46.536   8.495  12.310  0.00  0.00    +0.000 A 
ATOM      6  C   UNL     1      45.288   8.533  11.704  0.00  0.00    +0.000 A 
ATOM      7  C   UNL     1      44.563   7.357  11.548  0.00  0.00    +0.000 A 
ATOM      8  C   UNL     1      45.090   6.111  11.926  0.00  0.00    +0.000 A 
ATOM      9  C   UNL     1      46.361   6.107  12.545  0.00  0.00    +0.000 A 
BRANCH   4  13
ATOM     10  C   UNL     1      50.578   7.389  15.081  0.00  0.00    +0.000 A 
ATOM     11  C   UNL     1      50.474   8.098  13.895  0.00  0.00    +0.000 A 
ATOM     12  N   UNL     1      49.360   8.072  13.113  0.00  0.00    +0.000 NA
ATOM     13  C   UNL     1      48.335   7.305  13.568  0.00  0.00    +0.000 A 
ATOM     14  C   UNL     1      48.478   6.562  14.746  0.00  0.00    +0.000 A 
ATOM     15  N   UNL     1      49.582   6.591  15.531  0.00  0.00    +0.000 NA
BRANCH  10  17
ATOM     16  N   UNL     1      52.691   7.552  16.569  0.00  0.00    +0.000 NA
ATOM     17  C   UNL     1      51.741   7.497  15.912  0.00  0.00    +0.000 C 
ENDBRANCH  10  17
ENDBRANCH   4  13
ENDBRANCH   1   8
BRANCH   1  18
ATOM     18  N   UNL     1      43.980   4.573  10.288  0.00  0.00    +0.000 N 
ATOM     19  H   UNL     1      43.288   5.178   9.856  0.00  0.00    +0.000 HD
BRANCH  18  20
ATOM     20  C   UNL     1      44.831   3.956   9.357  0.00  0.00    +0.000 A 
ATOM     21  C   UNL     1      44.872   2.584   9.120  0.00  0.00    +0.000 A 
ATOM     22  C   UNL     1      45.784   2.055   8.203  0.00  0.00    +0.000 A 
ATOM     23  C   UNL     1      46.610   2.930   7.515  0.00  0.00    +0.000 A 
ATOM     24  N   UNL     1      46.545   4.283   7.636  0.00  0.00    +0.000 NA
ATOM     25  C   UNL     1      45.648   4.748   8.538  0.00  0.00    +0.000 A 
BRANCH  23  26
ATOM     26  C   UNL     1      47.693   2.396   6.630  0.00  0.00    +0.000 C 
ATOM     27  N   UNL     1      47.850   3.054   5.439  0.00  0.00    +0.000 N 
ATOM     28  O   UNL     1      48.414   1.461   6.953  0.00  0.00    +0.000 OA
ATOM     29  H   UNL     1      47.276   3.867   5.246  0.00  0.00    +0.000 HD
ATOM     30  H   UNL     1      48.628   2.819   4.840  0.00  0.00    +0.000 HD
ENDBRANCH  23  26
ENDBRANCH  18  20
ENDBRANCH   1  18
TORSDOF 6
ENDMDL
MODEL 4
REMARK VINA RESULT:    -7.345      1.962      2.864
REMARK INTER + INTRA:         -10.307
REMARK INTER:                  -9.755
REMARK INTRA:                  -0.552
REMARK UNBOUND:                -0.385
REMARK  Name = 
REMARK  6 active torsions:
REMARK  status: ('A' for Active; 'I' for Inactive)
REMARK    1  A    between atoms: C_2  and  C_3
REMARK    2  A    between atoms: C_6  and  C_7
REMARK    3  A    between atoms: C_11  and  C_12
REMARK    4  A    between atoms: C_12  and  N_13
REMARK    5  A    between atoms: N_13  and  C_14
REMARK    6  A    between atoms: C_17  and  C_18
REMARK                            x       y       z     vdW  Elec       q    Type
REMARK                         _______ _______ _______ _____ _____    ______ ____
ROOT
ATOM      1  C   UNL     1      44.663   5.888  11.121  0.00  0.00    +0.000 C 
ATOM      2  C   UNL     1      44.879   7.370  10.895  0.00  0.00    +0.000 C 
ATOM      3  C   UNL     1      43.635   6.925  11.583  0.00  0.00    +0.000 C 
ENDROOT
BRANCH   1   8
ATOM      4  C   UNL     1      47.161   5.273  14.028  0.00  0.00    +0.000 A 
ATOM      5  C   UNL     1      47.039   3.877  14.151  0.00  0.00    +0.000 A 
ATOM      6  C   UNL     1      46.227   3.143  13.297  0.00  0.00    +0.000 A 
ATOM      7  C   UNL     1      45.499   3.796  12.309  0.00  0.00    +0.000 A 
ATOM      8  C   UNL     1      45.506   5.196  12.192  0.00  0.00    +0.000 A 
ATOM      9  C   UNL     1      46.346   5.914  13.074  0.00  0.00    +0.000 A 
BRANCH   4  13
ATOM     10  C   UNL     1      50.034   7.332  16.258  0.00  0.00    +0.000 A 
ATOM     11  C   UNL     1      49.497   6.136  16.706  0.00  0.00    +0.000 A 
ATOM     12  N   UNL     1      48.543   5.450  16.018  0.00  0.00    +0.000 NA
ATOM     13  C   UNL     1      48.143   6.007  14.845  0.00  0.00    +0.000 A 
ATOM     14  C   UNL     1      48.667   7.238  14.435  0.00  0.00    +0.000 A 
ATOM     15  N   UNL     1      49.621   7.920  15.112  0.00  0.00    +0.000 NA
BRANCH  10  17
ATOM     16  N   UNL     1      51.959   8.494  17.541  0.00  0.00    +0.000 NA
ATOM     17  C   UNL     1      51.086   7.989  16.976  0.00  0.00    +0.000 C 
ENDBRANCH  10  17
ENDBRANCH   4  13
ENDBRANCH   1   8
BRANCH   1  18
ATOM     18  N   UNL     1      44.177   4.968  10.080  0.00  0.00    +0.000 N 
ATOM     19  H   UNL     1      43.235   5.130   9.736  0.00  0.00    +0.000 HD
BRANCH  18  20
ATOM     20  C   UNL     1      44.975   4.239   9.184  0.00  0.00    +0.000 A 
ATOM     21  C   UNL     1      44.821   2.879   8.924  0.00  0.00    +0.000 A 
ATOM     22  C   UNL     1      45.690   2.227   8.047  0.00  0.00    +0.000 A 
ATOM     23  C   UNL     1      46.675   2.974   7.417  0.00  0.00    +0.000 A 
ATOM     24  N   UNL     1      46.807   4.320   7.558  0.00  0.00    +0.000 NA
ATOM     25  C   UNL     1      45.944   4.906   8.421  0.00  0.00    +0.000 A 
BRANCH  23  26
ATOM     26  C   UNL     1      47.710   2.291   6.580  0.00  0.00    +0.000 C 
ATOM     27  N   UNL     1      47.855   2.787   5.312  0.00  0.00    +0.000 N 
ATOM     28  O   UNL     1      48.408   1.376   7.001  0.00  0.00    +0.000 OA
ATOM     29  H   UNL     1      47.304   3.591   5.031  0.00  0.00    +0.000 HD
ATOM     30  H   UNL     1      48.605   2.448   4.728  0.00  0.00    +0.000 HD
ENDBRANCH  23  26
ENDBRANCH  18  20
ENDBRANCH   1  18
TORSDOF 6
ENDMDL
MODEL 5
REMARK VINA RESULT:    -7.342      3.218      4.046
REMARK INTER + INTRA:         -10.303
REMARK INTER:                 -10.056
REMARK INTRA:                  -0.247
REMARK UNBOUND:                -0.385
REMARK  Name = 
REMARK  6 active torsions:
REMARK  status: ('A' for Active; 'I' for Inactive)
REMARK    1  A    between atoms: C_2  and  C_3
REMARK    2  A    between atoms: C_6  and  C_7
REMARK    3  A    between atoms: C_11  and  C_12
REMARK    4  A    between atoms: C_12  and  N_13
REMARK    5  A    between atoms: N_13  and  C_14
REMARK    6  A    between atoms: C_17  and  C_18
REMARK                            x       y       z     vdW  Elec       q    Type
REMARK                         _______ _______ _______ _____ _____    ______ ____
ROOT
ATOM      1  C   UNL     1      44.755   4.940  11.839  0.00  0.00    +0.000 C 
ATOM      2  C   UNL     1      44.226   4.371  13.139  0.00  0.00    +0.000 C 
ATOM      3  C   UNL     1      45.510   3.844  12.597  0.00  0.00    +0.000 C 
ENDROOT
BRANCH   1   8
ATOM      4  C   UNL     1      47.268   7.892  12.041  0.00  0.00    +0.000 A 
ATOM      5  C   UNL     1      46.377   8.970  11.894  0.00  0.00    +0.000 A 
ATOM      6  C   UNL     1      45.007   8.768  11.790  0.00  0.00    +0.000 A 
ATOM      7  C   UNL     1      44.499   7.474  11.809  0.00  0.00    +0.000 A 
ATOM      8  C   UNL     1      45.342   6.352  11.860  0.00  0.00    +0.000 A 
ATOM      9  C   UNL     1      46.731   6.591  11.970  0.00  0.00    +0.000 A 
BRANCH   4  13
ATOM     10  C   UNL     1      51.338   8.474  12.793  0.00  0.00    +0.000 A 
ATOM     11  C   UNL     1      50.372   8.908  13.686  0.00  0.00    +0.000 A 
ATOM     12  N   UNL     1      49.037   8.757  13.464  0.00  0.00    +0.000 NA
ATOM     13  C   UNL     1      48.696   8.141  12.301  0.00  0.00    +0.000 A 
ATOM     14  C   UNL     1      49.688   7.751  11.393  0.00  0.00    +0.000 A 
ATOM     15  N   UNL     1      51.017   7.893  11.614  0.00  0.00    +0.000 NA
BRANCH  10  17
ATOM     16  N   UNL     1      53.852   8.685  13.374  0.00  0.00    +0.000 NA
ATOM     17  C   UNL     1      52.734   8.589  13.094  0.00  0.00    +0.000 C 
ENDBRANCH  10  17
ENDBRANCH   4  13
ENDBRANCH   1   8
BRANCH   1  18
ATOM     18  N   UNL     1      44.260   4.537  10.513  0.00  0.00    +0.000 N 
ATOM     19  H   UNL     1      43.453   5.041  10.158  0.00  0.00    +0.000 HD
BRANCH  18  20
ATOM     20  C   UNL     1      45.013   3.918   9.502  0.00  0.00    +0.000 A 
ATOM     21  C   UNL     1      45.076   2.541   9.303  0.00  0.00    +0.000 A 
ATOM     22  C   UNL     1      45.887   2.012   8.296  0.00  0.00    +0.000 A 
ATOM     23  C   UNL     1      46.588   2.891   7.484  0.00  0.00    +0.000 A 
ATOM     24  N   UNL     1      46.486   4.244   7.571  0.00  0.00    +0.000 NA
ATOM     25  C   UNL     1      45.691   4.709   8.564  0.00  0.00    +0.000 A 
BRANCH  23  26
ATOM     26  C   UNL     1      47.572   2.364   6.487  0.00  0.00    +0.000 C 
ATOM     27  N   UNL     1      47.554   2.983   5.266  0.00  0.00    +0.000 N 
ATOM     28  O   UNL     1      48.366   1.468   6.747  0.00  0.00    +0.000 OA
ATOM     29  H   UNL     1      46.927   3.767   5.120  0.00  0.00    +0.000 HD
ATOM     30  H   UNL     1      48.259   2.755   4.581  0.00  0.00    +0.000 HD
ENDBRANCH  23  26
ENDBRANCH  18  20
ENDBRANCH   1  18
TORSDOF 6
ENDMDL
MODEL 6
REMARK VINA RESULT:    -7.043      2.806      7.888
REMARK INTER + INTRA:          -9.899
REMARK INTER:                  -9.172
REMARK INTRA:                  -0.727
REMARK UNBOUND:                -0.385
REMARK  Name = 
REMARK  6 active torsions:
REMARK  status: ('A' for Active; 'I' for Inactive)
REMARK    1  A    between atoms: C_2  and  C_3
REMARK    2  A    between atoms: C_6  and  C_7
REMARK    3  A    between atoms: C_11  and  C_12
REMARK    4  A    between atoms: C_12  and  N_13
REMARK    5  A    between atoms: N_13  and  C_14
REMARK    6  A    between atoms: C_17  and  C_18
REMARK                            x       y       z     vdW  Elec       q    Type
REMARK                         _______ _______ _______ _____ _____    ______ ____
ROOT
ATOM      1  C   UNL     1      46.151   7.759  12.695  0.00  0.00    +0.000 C 
ATOM      2  C   UNL     1      45.406   8.942  13.280  0.00  0.00    +0.000 C 
ATOM      3  C   UNL     1      46.253   9.155  12.073  0.00  0.00    +0.000 C 
ENDROOT
BRANCH   1   8
ATOM      4  C   UNL     1      45.156   4.952  10.206  0.00  0.00    +0.000 A 
ATOM      5  C   UNL     1      43.814   4.767  10.584  0.00  0.00    +0.000 A 
ATOM      6  C   UNL     1      43.223   5.552  11.565  0.00  0.00    +0.000 A 
ATOM      7  C   UNL     1      43.974   6.530  12.208  0.00  0.00    +0.000 A 
ATOM      8  C   UNL     1      45.342   6.703  11.943  0.00  0.00    +0.000 A 
ATOM      9  C   UNL     1      45.913   5.891  10.935  0.00  0.00    +0.000 A 
BRANCH   4  13
ATOM     10  C   UNL     1      46.823   2.802   7.033  0.00  0.00    +0.000 A 
ATOM     11  C   UNL     1      46.870   4.187   7.067  0.00  0.00    +0.000 A 
ATOM     12  N   UNL     1      46.318   4.921   8.073  0.00  0.00    +0.000 NA
ATOM     13  C   UNL     1      45.712   4.211   9.060  0.00  0.00    +0.000 A 
ATOM     14  C   UNL     1      45.637   2.816   8.982  0.00  0.00    +0.000 A 
ATOM     15  N   UNL     1      46.192   2.081   7.987  0.00  0.00    +0.000 NA
BRANCH  10  17
ATOM     16  N   UNL     1      48.032   1.460   5.178  0.00  0.00    +0.000 NA
ATOM     17  C   UNL     1      47.476   2.063   5.994  0.00  0.00    +0.000 C 
ENDBRANCH  10  17
ENDBRANCH   4  13
ENDBRANCH   1   8
BRANCH   1  18
ATOM     18  N   UNL     1      47.414   7.242  13.245  0.00  0.00    +0.000 N 
ATOM     19  H   UNL     1      48.208   7.874  13.229  0.00  0.00    +0.000 HD
BRANCH  18  20
ATOM     20  C   UNL     1      47.543   6.217  14.196  0.00  0.00    +0.000 A 
ATOM     21  C   UNL     1      46.887   4.990  14.121  0.00  0.00    +0.000 A 
ATOM     22  C   UNL     1      47.044   4.045  15.138  0.00  0.00    +0.000 A 
ATOM     23  C   UNL     1      47.894   4.345  16.192  0.00  0.00    +0.000 A 
ATOM     24  N   UNL     1      48.633   5.484  16.265  0.00  0.00    +0.000 NA
ATOM     25  C   UNL     1      48.445   6.370  15.258  0.00  0.00    +0.000 A 
BRANCH  23  26
ATOM     26  C   UNL     1      47.982   3.421  17.367  0.00  0.00    +0.000 C 
ATOM     27  N   UNL     1      46.813   2.792  17.703  0.00  0.00    +0.000 N 
ATOM     28  O   UNL     1      49.028   3.210  17.968  0.00  0.00    +0.000 OA
ATOM     29  H   UNL     1      45.990   2.946  17.132  0.00  0.00    +0.000 HD
ATOM     30  H   UNL     1      46.820   2.077  18.414  0.00  0.00    +0.000 HD
ENDBRANCH  23  26
ENDBRANCH  18  20
ENDBRANCH   1  18
TORSDOF 6
ENDMDL
MODEL 7
REMARK VINA RESULT:    -6.925      3.048      5.048
REMARK INTER + INTRA:          -9.739
REMARK INTER:                  -9.055
REMARK INTRA:                  -0.684
REMARK UNBOUND:                -0.385
REMARK  Name = 
REMARK  6 active torsions:
REMARK  status: ('A' for Active; 'I' for Inactive)
REMARK    1  A    between atoms: C_2  and  C_3
REMARK    2  A    between atoms: C_6  and  C_7
REMARK    3  A    between atoms: C_11  and  C_12
REMARK    4  A    between atoms: C_12  and  N_13
REMARK    5  A    between atoms: N_13  and  C_14
REMARK    6  A    between atoms: C_17  and  C_18
REMARK                            x       y       z     vdW  Elec       q    Type
REMARK                         _______ _______ _______ _____ _____    ______ ____
ROOT
ATOM      1  C   UNL     1      47.815   7.853  13.324  0.00  0.00    +0.000 C 
ATOM      2  C   UNL     1      48.750   7.692  12.143  0.00  0.00    +0.000 C 
ATOM      3  C   UNL     1      48.184   9.040  12.429  0.00  0.00    +0.000 C 
ENDROOT
BRANCH   1   8
ATOM      4  C   UNL     1      49.748   6.666  16.474  0.00  0.00    +0.000 A 
ATOM      5  C   UNL     1      49.510   7.762  17.322  0.00  0.00    +0.000 A 
ATOM      6  C   UNL     1      48.709   8.825  16.926  0.00  0.00    +0.000 A 
ATOM      7  C   UNL     1      48.145   8.824  15.655  0.00  0.00    +0.000 A 
ATOM      8  C   UNL     1      48.419   7.805  14.728  0.00  0.00    +0.000 A 
ATOM      9  C   UNL     1      49.233   6.735  15.164  0.00  0.00    +0.000 A 
BRANCH   4  13
ATOM     10  C   UNL     1      51.877   3.319  17.789  0.00  0.00    +0.000 A 
ATOM     11  C   UNL     1      50.542   3.226  17.430  0.00  0.00    +0.000 A 
ATOM     12  N   UNL     1      49.811   4.299  17.019  0.00  0.00    +0.000 NA
ATOM     13  C   UNL     1      50.473   5.485  16.974  0.00  0.00    +0.000 A 
ATOM     14  C   UNL     1      51.809   5.563  17.384  0.00  0.00    +0.000 A 
ATOM     15  N   UNL     1      52.542   4.496  17.786  0.00  0.00    +0.000 NA
BRANCH  10  17
ATOM     16  N   UNL     1      53.258   1.235  18.465  0.00  0.00    +0.000 NA
ATOM     17  C   UNL     1      52.632   2.154  18.148  0.00  0.00    +0.000 C 
ENDBRANCH  10  17
ENDBRANCH   4  13
ENDBRANCH   1   8
BRANCH   1  18
ATOM     18  N   UNL     1      46.391   7.481  13.291  0.00  0.00    +0.000 N 
ATOM     19  H   UNL     1      45.723   8.238  13.403  0.00  0.00    +0.000 HD
BRANCH  18  20
ATOM     20  C   UNL     1      45.846   6.352  12.661  0.00  0.00    +0.000 A 
ATOM     21  C   UNL     1      45.538   6.282  11.304  0.00  0.00    +0.000 A 
ATOM     22  C   UNL     1      44.957   5.128  10.772  0.00  0.00    +0.000 A 
ATOM     23  C   UNL     1      44.736   4.051  11.618  0.00  0.00    +0.000 A 
ATOM     24  N   UNL     1      45.107   4.030  12.926  0.00  0.00    +0.000 NA
ATOM     25  C   UNL     1      45.663   5.172  13.396  0.00  0.00    +0.000 A 
BRANCH  23  26
ATOM     26  C   UNL     1      43.991   2.852  11.121  0.00  0.00    +0.000 C 
ATOM     27  N   UNL     1      44.538   2.239  10.025  0.00  0.00    +0.000 N 
ATOM     28  O   UNL     1      42.985   2.420  11.669  0.00  0.00    +0.000 OA
ATOM     29  H   UNL     1      45.411   2.591   9.648  0.00  0.00    +0.000 HD
ATOM     30  H   UNL     1      44.153   1.365   9.700  0.00  0.00    +0.000 HD
ENDBRANCH  23  26
ENDBRANCH  18  20
ENDBRANCH   1  18
TORSDOF 6
ENDMDL
MODEL 8
REMARK VINA RESULT:    -6.746      3.405      7.914
REMARK INTER + INTRA:          -9.498
REMARK INTER:                  -9.042
REMARK INTRA:                  -0.456
REMARK UNBOUND:                -0.385
REMARK  Name = 
REMARK  6 active torsions:
REMARK  status: ('A' for Active; 'I' for Inactive)
REMARK    1  A    between atoms: C_2  and  C_3
REMARK    2  A    between atoms: C_6  and  C_7
REMARK    3  A    between atoms: C_11  and  C_12
REMARK    4  A    between atoms: C_12  and  N_13
REMARK    5  A    between atoms: N_13  and  C_14
REMARK    6  A    between atoms: C_17  and  C_18
REMARK                            x       y       z     vdW  Elec       q    Type
REMARK                         _______ _______ _______ _____ _____    ______ ____
ROOT
ATOM      1  C   UNL     1      49.394   8.581  16.280  0.00  0.00    +0.000 C 
ATOM      2  C   UNL     1      48.269   9.393  16.888  0.00  0.00    +0.000 C 
ATOM      3  C   UNL     1      49.508  10.098  16.456  0.00  0.00    +0.000 C 
ENDROOT
BRANCH   1   8
ATOM      4  C   UNL     1      47.910   6.758  13.191  0.00  0.00    +0.000 A 
ATOM      5  C   UNL     1      48.897   7.069  12.238  0.00  0.00    +0.000 A 
ATOM      6  C   UNL     1      50.032   7.791  12.580  0.00  0.00    +0.000 A 
ATOM      7  C   UNL     1      50.195   8.238  13.886  0.00  0.00    +0.000 A 
ATOM      8  C   UNL     1      49.204   8.041  14.862  0.00  0.00    +0.000 A 
ATOM      9  C   UNL     1      48.062   7.299  14.483  0.00  0.00    +0.000 A 
BRANCH   4  13
ATOM     10  C   UNL     1      44.824   4.123  12.188  0.00  0.00    +0.000 A 
ATOM     11  C   UNL     1      45.249   5.103  11.304  0.00  0.00    +0.000 A 
ATOM     12  N   UNL     1      46.235   5.993  11.606  0.00  0.00    +0.000 NA
ATOM     13  C   UNL     1      46.794   5.864  12.838  0.00  0.00    +0.000 A 
ATOM     14  C   UNL     1      46.317   4.896  13.730  0.00  0.00    +0.000 A 
ATOM     15  N   UNL     1      45.342   4.004  13.432  0.00  0.00    +0.000 NA
BRANCH  10  17
ATOM     16  N   UNL     1      43.056   2.370  11.478  0.00  0.00    +0.000 NA
ATOM     17  C   UNL     1      43.832   3.161  11.808  0.00  0.00    +0.000 C 
ENDBRANCH  10  17
ENDBRANCH   4  13
ENDBRANCH   1   8
BRANCH   1  18
ATOM     18  N   UNL     1      50.355   7.799  17.075  0.00  0.00    +0.000 N 
ATOM     19  H   UNL     1      50.743   8.257  17.894  0.00  0.00    +0.000 HD
BRANCH  18  20
ATOM     20  C   UNL     1      50.432   6.399  17.135  0.00  0.00    +0.000 A 
ATOM     21  C   UNL     1      51.594   5.690  17.433  0.00  0.00    +0.000 A 
ATOM     22  C   UNL     1      51.586   4.293  17.429  0.00  0.00    +0.000 A 
ATOM     23  C   UNL     1      50.391   3.641  17.163  0.00  0.00    +0.000 A 
ATOM     24  N   UNL     1      49.209   4.283  16.963  0.00  0.00    +0.000 NA
ATOM     25  C   UNL     1      49.268   5.635  16.973  0.00  0.00    +0.000 A 
BRANCH  23  26
ATOM     26  C   UNL     1      50.370   2.152  17.012  0.00  0.00    +0.000 C 
ATOM     27  N   UNL     1      51.201   1.468  17.859  0.00  0.00    +0.000 N 
ATOM     28  O   UNL     1      49.639   1.575  16.217  0.00  0.00    +0.000 OA
ATOM     29  H   UNL     1      51.735   1.985  18.549  0.00  0.00    +0.000 HD
ATOM     30  H   UNL     1      51.161   0.460  17.889  0.00  0.00    +0.000 HD
ENDBRANCH  23  26
ENDBRANCH  18  20
ENDBRANCH   1  18
TORSDOF 6
ENDMDL
MODEL 9
REMARK VINA RESULT:    -6.691      3.815      8.494
REMARK INTER + INTRA:          -9.423
REMARK INTER:                  -8.415
REMARK INTRA:                  -1.008
REMARK UNBOUND:                -0.385
REMARK  Name = 
REMARK  6 active torsions:
REMARK  status: ('A' for Active; 'I' for Inactive)
REMARK    1  A    between atoms: C_2  and  C_3
REMARK    2  A    between atoms: C_6  and  C_7
REMARK    3  A    between atoms: C_11  and  C_12
REMARK    4  A    between atoms: C_12  and  N_13
REMARK    5  A    between atoms: N_13  and  C_14
REMARK    6  A    between atoms: C_17  and  C_18
REMARK                            x       y       z     vdW  Elec       q    Type
REMARK                         _______ _______ _______ _____ _____    ______ ____
ROOT
ATOM      1  C   UNL     1      49.711   7.037  17.460  0.00  0.00    +0.000 C 
ATOM      2  C   UNL     1      48.526   7.107  18.400  0.00  0.00    +0.000 C 
ATOM      3  C   UNL     1      49.383   8.314  18.239  0.00  0.00    +0.000 C 
ENDROOT
BRANCH   1   8
ATOM      4  C   UNL     1      48.074   6.341  14.010  0.00  0.00    +0.000 A 
ATOM      5  C   UNL     1      48.965   7.046  13.181  0.00  0.00    +0.000 A 
ATOM      6  C   UNL     1      50.089   7.678  13.697  0.00  0.00    +0.000 A 
ATOM      7  C   UNL     1      50.333   7.637  15.065  0.00  0.00    +0.000 A 
ATOM      8  C   UNL     1      49.434   7.030  15.957  0.00  0.00    +0.000 A 
ATOM      9  C   UNL     1      48.303   6.391  15.399  0.00  0.00    +0.000 A 
BRANCH   4  13
ATOM     10  C   UNL     1      45.050   4.039  12.271  0.00  0.00    +0.000 A 
ATOM     11  C   UNL     1      45.182   5.388  11.984  0.00  0.00    +0.000 A 
ATOM     12  N   UNL     1      46.140   6.174  12.549  0.00  0.00    +0.000 NA
ATOM     13  C   UNL     1      46.978   5.553  13.420  0.00  0.00    +0.000 A 
ATOM     14  C   UNL     1      46.798   4.199  13.728  0.00  0.00    +0.000 A 
ATOM     15  N   UNL     1      45.851   3.412  13.163  0.00  0.00    +0.000 NA
BRANCH  10  17
ATOM     16  N   UNL     1      43.267   2.574  11.096  0.00  0.00    +0.000 NA
ATOM     17  C   UNL     1      44.074   3.230  11.603  0.00  0.00    +0.000 C 
ENDBRANCH  10  17
ENDBRANCH   4  13
ENDBRANCH   1   8
BRANCH   1  18
ATOM     18  N   UNL     1      50.997   6.416  17.817  0.00  0.00    +0.000 N 
ATOM     19  H   UNL     1      51.569   6.915  18.491  0.00  0.00    +0.000 HD
BRANCH  18  20
ATOM     20  C   UNL     1      51.305   5.049  17.735  0.00  0.00    +0.000 A 
ATOM     21  C   UNL     1      50.365   4.044  17.520  0.00  0.00    +0.000 A 
ATOM     22  C   UNL     1      50.760   2.704  17.495  0.00  0.00    +0.000 A 
ATOM     23  C   UNL     1      52.106   2.410  17.650  0.00  0.00    +0.000 A 
ATOM     24  N   UNL     1      53.077   3.356  17.765  0.00  0.00    +0.000 NA
ATOM     25  C   UNL     1      52.645   4.639  17.786  0.00  0.00    +0.000 A 
BRANCH  23  26
ATOM     26  C   UNL     1      52.552   0.986  17.769  0.00  0.00    +0.000 C 
ATOM     27  N   UNL     1      51.587   0.106  18.182  0.00  0.00    +0.000 N 
ATOM     28  O   UNL     1      53.685   0.618  17.485  0.00  0.00    +0.000 OA
ATOM     29  H   UNL     1      50.644   0.446  18.337  0.00  0.00    +0.000 HD
ATOM     30  H   UNL     1      51.784  -0.884  18.182  0.00  0.00    +0.000 HD
ENDBRANCH  23  26
ENDBRANCH  18  20
ENDBRANCH   1  18
TORSDOF 6
ENDMDL
