MODEL 1
REMARK VINA RESULT:    -9.325      0.000      0.000
REMARK INTER + INTRA:         -13.673
REMARK INTER:                 -12.596
REMARK INTRA:                  -1.077
REMARK UNBOUND:                -1.077
REMARK  Name = 
REMARK  6 active torsions:
REMARK  status: ('A' for Active; 'I' for Inactive)
REMARK    1  A    between atoms: C_2  and  C_4
REMARK    2  A    between atoms: N_8  and  C_9
REMARK    3  A    between atoms: C_9  and  C_10
REMARK    4  A    between atoms: C_10  and  C_13
REMARK    5  A    between atoms: C_18  and  C_19
REMARK    6  A    between atoms: C_19  and  C_20
REMARK                            x       y       z     vdW  Elec       q    Type
REMARK                         _______ _______ _______ _____ _____    ______ ____
ROOT
ATOM      1  C   UNL     1      43.255   5.487  12.209  0.00  0.00    +0.000 C 
ATOM      2  F   UNL     1      42.603   6.526  11.606  0.00  0.00    +0.000 F 
ATOM      3  F   UNL     1      42.502   5.173  13.304  0.00  0.00    +0.000 F 
ENDROOT
BRANCH   1   4
ATOM      4  C   UNL     1      44.680   5.839  12.590  0.00  0.00    +0.000 A 
ATOM      5  C   UNL     1      45.230   7.078  12.252  0.00  0.00    +0.000 A 
ATOM      6  C   UNL     1      46.576   7.339  12.517  0.00  0.00    +0.000 A 
ATOM      7  C   UNL     1      47.381   6.374  13.141  0.00  0.00    +0.000 A 
ATOM      8 CL   UNL     1      49.043   6.773  13.385  0.00  0.00    +0.000 Cl
ATOM      9  C   UNL     1      46.835   5.148  13.554  0.00  0.00    +0.000 A 
ATOM     10  C   UNL     1      45.485   4.893  13.253  0.00  0.00    +0.000 A 
BRANCH   9  11
ATOM     11  C   UNL     1      47.584   4.137  14.391  0.00  0.00    +0.000 C 
BRANCH  11  12
ATOM     12  C   UNL     1      47.549   4.553  15.825  0.00  0.00    +0.000 A 
ATOM     13  C   UNL     1      48.361   5.543  16.457  0.00  0.00    +0.000 A 
ATOM     14  C   UNL     1      48.136   5.474  17.815  0.00  0.00    +0.000 A 
ATOM     15  N   UNL     1      47.195   4.507  18.037  0.00  0.00    +0.000 N 
ATOM     16  C   UNL     1      46.827   3.950  16.841  0.00  0.00    +0.000 A 
ATOM     17  H   UNL     1      46.855   4.216  18.944  0.00  0.00    +0.000 HD
ENDBRANCH  11  12
ENDBRANCH   9  11
ENDBRANCH   1   4
BRANCH   1  18
ATOM     18  C   UNL     1      43.264   4.279  11.234  0.00  0.00    +0.000 C 
BRANCH  18  23
ATOM     19  C   UNL     1      46.469   2.511   7.679  0.00  0.00    +0.000 A 
ATOM     20  C   UNL     1      45.646   1.806   8.551  0.00  0.00    +0.000 A 
ATOM     21  C   UNL     1      44.717   2.506   9.324  0.00  0.00    +0.000 A 
ATOM     22  C   UNL     1      44.630   3.893   9.215  0.00  0.00    +0.000 A 
ATOM     23  N   UNL     1      43.676   4.643   9.875  0.00  0.00    +0.000 N 
ATOM     24  N   UNL     1      45.436   4.585   8.388  0.00  0.00    +0.000 NA
ATOM     25  C   UNL     1      46.340   3.889   7.647  0.00  0.00    +0.000 A 
ATOM     26  H   UNL     1      43.884   5.631   9.729  0.00  0.00    +0.000 HD
BRANCH  19  28
ATOM     27  N   UNL     1      48.529   2.623   6.396  0.00  0.00    +0.000 N 
ATOM     28  C   UNL     1      47.470   1.859   6.813  0.00  0.00    +0.000 C 
ATOM     29  O   UNL     1      47.385   0.684   6.507  0.00  0.00    +0.000 OA
ATOM     30  H   UNL     1      49.262   2.132   5.893  0.00  0.00    +0.000 HD
ATOM     31  H   UNL     1      48.774   3.498   6.833  0.00  0.00    +0.000 HD
ENDBRANCH  19  28
ENDBRANCH  18  23
ENDBRANCH   1  18
TORSDOF 6
ENDMDL
MODEL 2
REMARK VINA RESULT:    -8.847      1.128      1.333
REMARK INTER + INTRA:         -13.027
REMARK INTER:                 -11.855
REMARK INTRA:                  -1.172
REMARK UNBOUND:                -1.077
REMARK  Name = 
REMARK  6 active torsions:
REMARK  status: ('A' for Active; 'I' for Inactive)
REMARK    1  A    between atoms: C_2  and  C_4
REMARK    2  A    between atoms: N_8  and  C_9
REMARK    3  A    between atoms: C_9  and  C_10
REMARK    4  A    between atoms: C_10  and  C_13
REMARK    5  A    between atoms: C_18  and  C_19
REMARK    6  A    between atoms: C_19  and  C_20
REMARK                            x       y       z     vdW  Elec       q    Type
REMARK                         _______ _______ _______ _____ _____    ______ ____
ROOT
ATOM      1  C   UNL     1      43.146   5.208  12.235  0.00  0.00    +0.000 C 
ATOM      2  F   UNL     1      42.003   5.894  11.935  0.00  0.00    +0.000 F 
ATOM      3  F   UNL     1      42.919   4.644  13.458  0.00  0.00    +0.000 F 
ENDROOT
BRANCH   1   4
ATOM      4  C   UNL     1      44.372   6.101  12.249  0.00  0.00    +0.000 A 
ATOM      5  C   UNL     1      44.299   7.428  11.819  0.00  0.00    +0.000 A 
ATOM      6  C   UNL     1      45.461   8.199  11.737  0.00  0.00    +0.000 A 
ATOM      7  C   UNL     1      46.703   7.659  12.103  0.00  0.00    +0.000 A 
ATOM      8 CL   UNL     1      48.087   8.676  11.924  0.00  0.00    +0.000 Cl
ATOM      9  C   UNL     1      46.792   6.351  12.605  0.00  0.00    +0.000 A 
ATOM     10  C   UNL     1      45.616   5.581  12.653  0.00  0.00    +0.000 A 
BRANCH   9  11
ATOM     11  C   UNL     1      48.056   5.762  13.189  0.00  0.00    +0.000 C 
BRANCH  11  12
ATOM     12  C   UNL     1      48.141   6.107  14.640  0.00  0.00    +0.000 A 
ATOM     13  C   UNL     1      48.740   7.267  15.219  0.00  0.00    +0.000 A 
ATOM     14  C   UNL     1      48.767   7.096  16.586  0.00  0.00    +0.000 A 
ATOM     15  N   UNL     1      48.178   5.894  16.871  0.00  0.00    +0.000 N 
ATOM     16  C   UNL     1      47.789   5.293  15.703  0.00  0.00    +0.000 A 
ATOM     17  H   UNL     1      48.084   5.490  17.794  0.00  0.00    +0.000 HD
ENDBRANCH  11  12
ENDBRANCH   9  11
ENDBRANCH   1   4
BRANCH   1  18
ATOM     18  C   UNL     1      43.337   4.082  11.183  0.00  0.00    +0.000 C 
BRANCH  18  23
ATOM     19  C   UNL     1      46.634   2.767   7.517  0.00  0.00    +0.000 A 
ATOM     20  C   UNL     1      45.824   1.956   8.305  0.00  0.00    +0.000 A 
ATOM     21  C   UNL     1      44.865   2.549   9.130  0.00  0.00    +0.000 A 
ATOM     22  C   UNL     1      44.736   3.936   9.155  0.00  0.00    +0.000 A 
ATOM     23  N   UNL     1      43.752   4.590   9.872  0.00  0.00    +0.000 N 
ATOM     24  N   UNL     1      45.529   4.730   8.410  0.00  0.00    +0.000 NA
ATOM     25  C   UNL     1      46.462   4.137   7.617  0.00  0.00    +0.000 A 
ATOM     26  H   UNL     1      43.930   5.593   9.825  0.00  0.00    +0.000 HD
BRANCH  19  28
ATOM     27  N   UNL     1      47.866   2.906   5.428  0.00  0.00    +0.000 N 
ATOM     28  C   UNL     1      47.663   2.234   6.605  0.00  0.00    +0.000 C 
ATOM     29  O   UNL     1      48.333   1.259   6.894  0.00  0.00    +0.000 OA
ATOM     30  H   UNL     1      48.650   2.592   4.864  0.00  0.00    +0.000 HD
ATOM     31  H   UNL     1      47.533   3.846   5.274  0.00  0.00    +0.000 HD
ENDBRANCH  19  28
ENDBRANCH  18  23
ENDBRANCH   1  18
TORSDOF 6
ENDMDL
MODEL 3
REMARK VINA RESULT:    -8.812      2.934      4.751
REMARK INTER + INTRA:         -12.980
REMARK INTER:                 -11.857
REMARK INTRA:                  -1.122
REMARK UNBOUND:                -1.077
REMARK  Name = 
REMARK  6 active torsions:
REMARK  status: ('A' for Active; 'I' for Inactive)
REMARK    1  A    between atoms: C_2  and  C_4
REMARK    2  A    between atoms: N_8  and  C_9
REMARK    3  A    between atoms: C_9  and  C_10
REMARK    4  A    between atoms: C_10  and  C_13
REMARK    5  A    between atoms: C_18  and  C_19
REMARK    6  A    between atoms: C_19  and  C_20
REMARK                            x       y       z     vdW  Elec       q    Type
REMARK                         _______ _______ _______ _____ _____    ______ ____
ROOT
ATOM      1  C   UNL     1      44.543   4.669  12.265  0.00  0.00    +0.000 C 
ATOM      2  F   UNL     1      43.946   4.561  13.491  0.00  0.00    +0.000 F 
ATOM      3  F   UNL     1      45.338   3.565  12.151  0.00  0.00    +0.000 F 
ENDROOT
BRANCH   1   4
ATOM      4  C   UNL     1      45.339   5.951  12.119  0.00  0.00    +0.000 A 
ATOM      5  C   UNL     1      46.706   5.920  11.833  0.00  0.00    +0.000 A 
ATOM      6  C   UNL     1      47.441   7.108  11.810  0.00  0.00    +0.000 A 
ATOM      7  C   UNL     1      46.814   8.340  12.052  0.00  0.00    +0.000 A 
ATOM      8 CL   UNL     1      47.814   9.747  12.047  0.00  0.00    +0.000 Cl
ATOM      9  C   UNL     1      45.429   8.404  12.272  0.00  0.00    +0.000 A 
ATOM     10  C   UNL     1      44.711   7.195  12.320  0.00  0.00    +0.000 A 
BRANCH   9  11
ATOM     11  C   UNL     1      44.654   9.699  12.358  0.00  0.00    +0.000 C 
BRANCH  11  12
ATOM     12  C   UNL     1      44.187  10.091  10.994  0.00  0.00    +0.000 A 
ATOM     13  C   UNL     1      44.801  11.028  10.107  0.00  0.00    +0.000 A 
ATOM     14  C   UNL     1      43.948  11.231   9.045  0.00  0.00    +0.000 A 
ATOM     15  N   UNL     1      42.852  10.432   9.227  0.00  0.00    +0.000 N 
ATOM     16  C   UNL     1      42.991   9.733  10.396  0.00  0.00    +0.000 A 
ATOM     17  H   UNL     1      42.045  10.394   8.618  0.00  0.00    +0.000 HD
ENDBRANCH  11  12
ENDBRANCH   9  11
ENDBRANCH   1   4
BRANCH   1  18
ATOM     18  C   UNL     1      43.440   4.617  11.174  0.00  0.00    +0.000 C 
BRANCH  18  23
ATOM     19  C   UNL     1      46.489   2.551   7.642  0.00  0.00    +0.000 A 
ATOM     20  C   UNL     1      45.554   1.934   8.467  0.00  0.00    +0.000 A 
ATOM     21  C   UNL     1      44.702   2.728   9.240  0.00  0.00    +0.000 A 
ATOM     22  C   UNL     1      44.804   4.116   9.178  0.00  0.00    +0.000 A 
ATOM     23  N   UNL     1      43.938   4.966   9.840  0.00  0.00    +0.000 N 
ATOM     24  N   UNL     1      45.719   4.720   8.398  0.00  0.00    +0.000 NA
ATOM     25  C   UNL     1      46.545   3.934   7.656  0.00  0.00    +0.000 A 
ATOM     26  H   UNL     1      44.280   5.921   9.734  0.00  0.00    +0.000 HD
BRANCH  19  28
ATOM     27  N   UNL     1      48.523   2.468   6.316  0.00  0.00    +0.000 N 
ATOM     28  C   UNL     1      47.420   1.799   6.780  0.00  0.00    +0.000 C 
ATOM     29  O   UNL     1      47.242   0.625   6.514  0.00  0.00    +0.000 OA
ATOM     30  H   UNL     1      49.207   1.909   5.816  0.00  0.00    +0.000 HD
ATOM     31  H   UNL     1      48.841   3.337   6.719  0.00  0.00    +0.000 HD
ENDBRANCH  19  28
ENDBRANCH  18  23
ENDBRANCH   1  18
TORSDOF 6
ENDMDL
MODEL 4
REMARK VINA RESULT:    -8.752      2.040      3.233
REMARK INTER + INTRA:         -12.899
REMARK INTER:                 -12.044
REMARK INTRA:                  -0.855
REMARK UNBOUND:                -1.077
REMARK  Name = 
REMARK  6 active torsions:
REMARK  status: ('A' for Active; 'I' for Inactive)
REMARK    1  A    between atoms: C_2  and  C_4
REMARK    2  A    between atoms: N_8  and  C_9
REMARK    3  A    between atoms: C_9  and  C_10
REMARK    4  A    between atoms: C_10  and  C_13
REMARK    5  A    between atoms: C_18  and  C_19
REMARK    6  A    between atoms: C_19  and  C_20
REMARK                            x       y       z     vdW  Elec       q    Type
REMARK                         _______ _______ _______ _____ _____    ______ ____
ROOT
ATOM      1  C   UNL     1      43.313   5.603  12.091  0.00  0.00    +0.000 C 
ATOM      2  F   UNL     1      42.856   6.694  11.406  0.00  0.00    +0.000 F 
ATOM      3  F   UNL     1      42.387   5.375  13.069  0.00  0.00    +0.000 F 
ENDROOT
BRANCH   1   4
ATOM      4  C   UNL     1      44.698   5.820  12.670  0.00  0.00    +0.000 A 
ATOM      5  C   UNL     1      45.398   4.771  13.271  0.00  0.00    +0.000 A 
ATOM      6  C   UNL     1      46.624   5.017  13.894  0.00  0.00    +0.000 A 
ATOM      7  C   UNL     1      47.172   6.309  13.904  0.00  0.00    +0.000 A 
ATOM      8 CL   UNL     1      48.670   6.523  14.737  0.00  0.00    +0.000 Cl
ATOM      9  C   UNL     1      46.522   7.365  13.247  0.00  0.00    +0.000 A 
ATOM     10  C   UNL     1      45.275   7.103  12.651  0.00  0.00    +0.000 A 
BRANCH   9  11
ATOM     11  C   UNL     1      47.132   8.735  13.056  0.00  0.00    +0.000 C 
BRANCH  11  12
ATOM     12  C   UNL     1      48.464   8.600  12.393  0.00  0.00    +0.000 A 
ATOM     13  C   UNL     1      48.838   7.652  11.393  0.00  0.00    +0.000 A 
ATOM     14  C   UNL     1      50.199   7.752  11.200  0.00  0.00    +0.000 A 
ATOM     15  N   UNL     1      50.668   8.745  12.015  0.00  0.00    +0.000 N 
ATOM     16  C   UNL     1      49.626   9.270  12.734  0.00  0.00    +0.000 A 
ATOM     17  H   UNL     1      51.637   9.021  12.108  0.00  0.00    +0.000 HD
ENDBRANCH  11  12
ENDBRANCH   9  11
ENDBRANCH   1   4
BRANCH   1  18
ATOM     18  C   UNL     1      43.340   4.389  11.124  0.00  0.00    +0.000 C 
BRANCH  18  23
ATOM     19  C   UNL     1      46.566   2.537   7.631  0.00  0.00    +0.000 A 
ATOM     20  C   UNL     1      45.706   1.854   8.484  0.00  0.00    +0.000 A 
ATOM     21  C   UNL     1      44.781   2.579   9.240  0.00  0.00    +0.000 A 
ATOM     22  C   UNL     1      44.736   3.968   9.131  0.00  0.00    +0.000 A 
ATOM     23  N   UNL     1      43.790   4.744   9.774  0.00  0.00    +0.000 N 
ATOM     24  N   UNL     1      45.577   4.638   8.322  0.00  0.00    +0.000 NA
ATOM     25  C   UNL     1      46.476   3.918   7.598  0.00  0.00    +0.000 A 
ATOM     26  H   UNL     1      44.028   5.725   9.634  0.00  0.00    +0.000 HD
BRANCH  19  28
ATOM     27  N   UNL     1      48.626   2.608   6.345  0.00  0.00    +0.000 N 
ATOM     28  C   UNL     1      47.565   1.859   6.783  0.00  0.00    +0.000 C 
ATOM     29  O   UNL     1      47.477   0.676   6.509  0.00  0.00    +0.000 OA
ATOM     30  H   UNL     1      49.358   2.101   5.856  0.00  0.00    +0.000 HD
ATOM     31  H   UNL     1      48.874   3.494   6.758  0.00  0.00    +0.000 HD
ENDBRANCH  19  28
ENDBRANCH  18  23
ENDBRANCH   1  18
TORSDOF 6
ENDMDL
MODEL 5
REMARK VINA RESULT:    -8.541      2.707      3.308
REMARK INTER + INTRA:         -12.614
REMARK INTER:                 -12.005
REMARK INTRA:                  -0.610
REMARK UNBOUND:                -1.077
REMARK  Name = 
REMARK  6 active torsions:
REMARK  status: ('A' for Active; 'I' for Inactive)
REMARK    1  A    between atoms: C_2  and  C_4
REMARK    2  A    between atoms: N_8  and  C_9
REMARK    3  A    between atoms: C_9  and  C_10
REMARK    4  A    between atoms: C_10  and  C_13
REMARK    5  A    between atoms: C_18  and  C_19
REMARK    6  A    between atoms: C_19  and  C_20
REMARK                            x       y       z     vdW  Elec       q    Type
REMARK                         _______ _______ _______ _____ _____    ______ ____
ROOT
ATOM      1  C   UNL     1      44.418   4.693  12.278  0.00  0.00    +0.000 C 
ATOM      2  F   UNL     1      43.939   4.308  13.499  0.00  0.00    +0.000 F 
ATOM      3  F   UNL     1      45.523   3.919  12.062  0.00  0.00    +0.000 F 
ENDROOT
BRANCH   1   4
ATOM      4  C   UNL     1      44.750   6.172  12.225  0.00  0.00    +0.000 A 
ATOM      5  C   UNL     1      43.973   7.057  11.474  0.00  0.00    +0.000 A 
ATOM      6  C   UNL     1      44.361   8.394  11.352  0.00  0.00    +0.000 A 
ATOM      7  C   UNL     1      45.515   8.864  11.995  0.00  0.00    +0.000 A 
ATOM      8 CL   UNL     1      45.936  10.520  11.747  0.00  0.00    +0.000 Cl
ATOM      9  C   UNL     1      46.274   8.011  12.812  0.00  0.00    +0.000 A 
ATOM     10  C   UNL     1      45.885   6.662  12.899  0.00  0.00    +0.000 A 
BRANCH   9  11
ATOM     11  C   UNL     1      47.419   8.482  13.680  0.00  0.00    +0.000 C 
BRANCH  11  12
ATOM     12  C   UNL     1      48.714   8.218  12.983  0.00  0.00    +0.000 A 
ATOM     13  C   UNL     1      48.922   8.060  11.579  0.00  0.00    +0.000 A 
ATOM     14  C   UNL     1      50.221   7.645  11.385  0.00  0.00    +0.000 A 
ATOM     15  N   UNL     1      50.828   7.574  12.610  0.00  0.00    +0.000 N 
ATOM     16  C   UNL     1      49.928   7.927  13.580  0.00  0.00    +0.000 A 
ATOM     17  H   UNL     1      51.777   7.268  12.778  0.00  0.00    +0.000 HD
ENDBRANCH  11  12
ENDBRANCH   9  11
ENDBRANCH   1   4
BRANCH   1  18
ATOM     18  C   UNL     1      43.348   4.364  11.202  0.00  0.00    +0.000 C 
BRANCH  18  23
ATOM     19  C   UNL     1      46.504   2.527   7.637  0.00  0.00    +0.000 A 
ATOM     20  C   UNL     1      45.661   1.840   8.505  0.00  0.00    +0.000 A 
ATOM     21  C   UNL     1      44.751   2.562   9.282  0.00  0.00    +0.000 A 
ATOM     22  C   UNL     1      44.704   3.951   9.181  0.00  0.00    +0.000 A 
ATOM     23  N   UNL     1      43.771   4.724   9.845  0.00  0.00    +0.000 N 
ATOM     24  N   UNL     1      45.529   4.625   8.358  0.00  0.00    +0.000 NA
ATOM     25  C   UNL     1      46.414   3.908   7.613  0.00  0.00    +0.000 A 
ATOM     26  H   UNL     1      44.007   5.707   9.705  0.00  0.00    +0.000 HD
BRANCH  19  28
ATOM     27  N   UNL     1      48.604   2.563   6.417  0.00  0.00    +0.000 N 
ATOM     28  C   UNL     1      47.485   1.852   6.768  0.00  0.00    +0.000 C 
ATOM     29  O   UNL     1      47.334   0.702   6.401  0.00  0.00    +0.000 OA
ATOM     30  H   UNL     1      49.319   2.049   5.911  0.00  0.00    +0.000 HD
ATOM     31  H   UNL     1      48.893   3.398   6.904  0.00  0.00    +0.000 HD
ENDBRANCH  19  28
ENDBRANCH  18  23
ENDBRANCH   1  18
TORSDOF 6
ENDMDL
MODEL 6
REMARK VINA RESULT:    -7.795      3.420      7.785
REMARK INTER + INTRA:         -11.606
REMARK INTER:                 -10.519
REMARK INTRA:                  -1.088
REMARK UNBOUND:                -1.077
REMARK  Name = 
REMARK  6 active torsions:
REMARK  status: ('A' for Active; 'I' for Inactive)
REMARK    1  A    between atoms: C_2  and  C_4
REMARK    2  A    between atoms: N_8  and  C_9
REMARK    3  A    between atoms: C_9  and  C_10
REMARK    4  A    between atoms: C_10  and  C_13
REMARK    5  A    between atoms: C_18  and  C_19
REMARK    6  A    between atoms: C_19  and  C_20
REMARK                            x       y       z     vdW  Elec       q    Type
REMARK                         _______ _______ _______ _____ _____    ______ ____
ROOT
ATOM      1  C   UNL     1      46.698   7.233  12.025  0.00  0.00    +0.000 C 
ATOM      2  F   UNL     1      46.215   8.382  11.464  0.00  0.00    +0.000 F 
ATOM      3  F   UNL     1      47.917   7.030  11.444  0.00  0.00    +0.000 F 
ENDROOT
BRANCH   1   4
ATOM      4  C   UNL     1      45.772   6.050  11.811  0.00  0.00    +0.000 A 
ATOM      5  C   UNL     1      45.162   5.410  12.893  0.00  0.00    +0.000 A 
ATOM      6  C   UNL     1      44.401   4.257  12.683  0.00  0.00    +0.000 A 
ATOM      7  C   UNL     1      44.225   3.746  11.388  0.00  0.00    +0.000 A 
ATOM      8 CL   UNL     1      43.306   2.292  11.235  0.00  0.00    +0.000 Cl
ATOM      9  C   UNL     1      44.769   4.410  10.278  0.00  0.00    +0.000 A 
ATOM     10  C   UNL     1      45.556   5.552  10.513  0.00  0.00    +0.000 A 
BRANCH   9  11
ATOM     11  C   UNL     1      44.473   4.029   8.845  0.00  0.00    +0.000 C 
BRANCH  11  12
ATOM     12  C   UNL     1      45.599   3.210   8.305  0.00  0.00    +0.000 A 
ATOM     13  C   UNL     1      46.576   3.612   7.345  0.00  0.00    +0.000 A 
ATOM     14  C   UNL     1      47.308   2.500   6.989  0.00  0.00    +0.000 A 
ATOM     15  N   UNL     1      46.841   1.439   7.717  0.00  0.00    +0.000 N 
ATOM     16  C   UNL     1      45.815   1.859   8.521  0.00  0.00    +0.000 A 
ATOM     17  H   UNL     1      47.171   0.486   7.643  0.00  0.00    +0.000 HD
ENDBRANCH  11  12
ENDBRANCH   9  11
ENDBRANCH   1   4
BRANCH   1  18
ATOM     18  C   UNL     1      46.892   7.470  13.547  0.00  0.00    +0.000 C 
BRANCH  18  23
ATOM     19  C   UNL     1      48.713   4.181  16.997  0.00  0.00    +0.000 A 
ATOM     20  C   UNL     1      47.627   4.045  16.139  0.00  0.00    +0.000 A 
ATOM     21  C   UNL     1      47.417   5.009  15.150  0.00  0.00    +0.000 A 
ATOM     22  C   UNL     1      48.291   6.089  15.039  0.00  0.00    +0.000 A 
ATOM     23  N   UNL     1      48.204   7.030  14.032  0.00  0.00    +0.000 N 
ATOM     24  N   UNL     1      49.333   6.239  15.878  0.00  0.00    +0.000 NA
ATOM     25  C   UNL     1      49.520   5.295  16.840  0.00  0.00    +0.000 A 
ATOM     26  H   UNL     1      48.873   7.775  14.226  0.00  0.00    +0.000 HD
BRANCH  19  28
ATOM     27  N   UNL     1      48.310   3.306  19.227  0.00  0.00    +0.000 N 
ATOM     28  C   UNL     1      49.025   3.209  18.061  0.00  0.00    +0.000 C 
ATOM     29  O   UNL     1      49.854   2.332  17.906  0.00  0.00    +0.000 OA
ATOM     30  H   UNL     1      48.459   2.565  19.905  0.00  0.00    +0.000 HD
ATOM     31  H   UNL     1      47.451   3.831  19.297  0.00  0.00    +0.000 HD
ENDBRANCH  19  28
ENDBRANCH  18  23
ENDBRANCH   1  18
TORSDOF 6
ENDMDL
MODEL 7
REMARK VINA RESULT:    -7.747      2.160      2.750
REMARK INTER + INTRA:         -11.542
REMARK INTER:                 -10.444
REMARK INTRA:                  -1.098
REMARK UNBOUND:                -1.077
REMARK  Name = 
REMARK  6 active torsions:
REMARK  status: ('A' for Active; 'I' for Inactive)
REMARK    1  A    between atoms: C_2  and  C_4
REMARK    2  A    between atoms: N_8  and  C_9
REMARK    3  A    between atoms: C_9  and  C_10
REMARK    4  A    between atoms: C_10  and  C_13
REMARK    5  A    between atoms: C_18  and  C_19
REMARK    6  A    between atoms: C_19  and  C_20
REMARK                            x       y       z     vdW  Elec       q    Type
REMARK                         _______ _______ _______ _____ _____    ______ ____
ROOT
ATOM      1  C   UNL     1      45.340   6.497  11.936  0.00  0.00    +0.000 C 
ATOM      2  F   UNL     1      46.085   7.141  10.987  0.00  0.00    +0.000 F 
ATOM      3  F   UNL     1      44.467   7.434  12.409  0.00  0.00    +0.000 F 
ENDROOT
BRANCH   1   4
ATOM      4  C   UNL     1      46.193   5.915  13.046  0.00  0.00    +0.000 A 
ATOM      5  C   UNL     1      45.923   4.649  13.574  0.00  0.00    +0.000 A 
ATOM      6  C   UNL     1      46.652   4.179  14.668  0.00  0.00    +0.000 A 
ATOM      7  C   UNL     1      47.674   4.959  15.232  0.00  0.00    +0.000 A 
ATOM      8 CL   UNL     1      48.488   4.311  16.611  0.00  0.00    +0.000 Cl
ATOM      9  C   UNL     1      48.012   6.203  14.677  0.00  0.00    +0.000 A 
ATOM     10  C   UNL     1      47.246   6.672  13.594  0.00  0.00    +0.000 A 
BRANCH   9  11
ATOM     11  C   UNL     1      49.211   7.015  15.109  0.00  0.00    +0.000 C 
BRANCH  11  12
ATOM     12  C   UNL     1      48.776   8.074  16.069  0.00  0.00    +0.000 A 
ATOM     13  C   UNL     1      48.584   7.938  17.477  0.00  0.00    +0.000 A 
ATOM     14  C   UNL     1      48.001   9.097  17.942  0.00  0.00    +0.000 A 
ATOM     15  N   UNL     1      47.858   9.950  16.882  0.00  0.00    +0.000 N 
ATOM     16  C   UNL     1      48.331   9.346  15.748  0.00  0.00    +0.000 A 
ATOM     17  H   UNL     1      47.431  10.866  16.919  0.00  0.00    +0.000 HD
ENDBRANCH  11  12
ENDBRANCH   9  11
ENDBRANCH   1   4
BRANCH   1  18
ATOM     18  C   UNL     1      44.541   5.358  11.246  0.00  0.00    +0.000 C 
BRANCH  18  23
ATOM     19  C   UNL     1      46.559   2.408   7.605  0.00  0.00    +0.000 A 
ATOM     20  C   UNL     1      45.883   2.038   8.763  0.00  0.00    +0.000 A 
ATOM     21  C   UNL     1      45.260   3.026   9.531  0.00  0.00    +0.000 A 
ATOM     22  C   UNL     1      45.328   4.359   9.131  0.00  0.00    +0.000 A 
ATOM     23  N   UNL     1      44.663   5.378   9.785  0.00  0.00    +0.000 N 
ATOM     24  N   UNL     1      45.998   4.727   8.023  0.00  0.00    +0.000 NA
ATOM     25  C   UNL     1      46.603   3.755   7.289  0.00  0.00    +0.000 A 
ATOM     26  H   UNL     1      44.955   6.267   9.380  0.00  0.00    +0.000 HD
BRANCH  19  28
ATOM     27  N   UNL     1      48.170   1.929   5.851  0.00  0.00    +0.000 N 
ATOM     28  C   UNL     1      47.233   1.437   6.723  0.00  0.00    +0.000 C 
ATOM     29  O   UNL     1      47.000   0.244   6.785  0.00  0.00    +0.000 OA
ATOM     30  H   UNL     1      48.701   1.238   5.329  0.00  0.00    +0.000 HD
ATOM     31  H   UNL     1      48.577   2.846   5.950  0.00  0.00    +0.000 HD
ENDBRANCH  19  28
ENDBRANCH  18  23
ENDBRANCH   1  18
TORSDOF 6
ENDMDL
MODEL 8
REMARK VINA RESULT:    -7.278      4.173      7.376
REMARK INTER + INTRA:         -10.908
REMARK INTER:                  -9.470
REMARK INTRA:                  -1.438
REMARK UNBOUND:                -1.077
REMARK  Name = 
REMARK  6 active torsions:
REMARK  status: ('A' for Active; 'I' for Inactive)
REMARK    1  A    between atoms: C_2  and  C_4
REMARK    2  A    between atoms: N_8  and  C_9
REMARK    3  A    between atoms: C_9  and  C_10
REMARK    4  A    between atoms: C_10  and  C_13
REMARK    5  A    between atoms: C_18  and  C_19
REMARK    6  A    between atoms: C_19  and  C_20
REMARK                            x       y       z     vdW  Elec       q    Type
REMARK                         _______ _______ _______ _____ _____    ______ ____
ROOT
ATOM      1  C   UNL     1      48.947   8.146  12.346  0.00  0.00    +0.000 C 
ATOM      2  F   UNL     1      49.457   9.186  11.620  0.00  0.00    +0.000 F 
ATOM      3  F   UNL     1      49.729   7.070  12.036  0.00  0.00    +0.000 F 
ENDROOT
BRANCH   1   4
ATOM      4  C   UNL     1      47.486   7.884  12.037  0.00  0.00    +0.000 A 
ATOM      5  C   UNL     1      46.488   8.750  12.493  0.00  0.00    +0.000 A 
ATOM      6  C   UNL     1      45.143   8.432  12.289  0.00  0.00    +0.000 A 
ATOM      7  C   UNL     1      44.782   7.258  11.611  0.00  0.00    +0.000 A 
ATOM      8 CL   UNL     1      43.094   6.929  11.450  0.00  0.00    +0.000 Cl
ATOM      9  C   UNL     1      45.766   6.408  11.083  0.00  0.00    +0.000 A 
ATOM     10  C   UNL     1      47.114   6.730  11.322  0.00  0.00    +0.000 A 
BRANCH   9  11
ATOM     11  C   UNL     1      45.461   5.228  10.187  0.00  0.00    +0.000 C 
BRANCH  11  12
ATOM     12  C   UNL     1      44.882   4.120  11.004  0.00  0.00    +0.000 A 
ATOM     13  C   UNL     1      43.665   3.414  10.762  0.00  0.00    +0.000 A 
ATOM     14  C   UNL     1      43.413   2.611  11.853  0.00  0.00    +0.000 A 
ATOM     15  N   UNL     1      44.444   2.769  12.738  0.00  0.00    +0.000 N 
ATOM     16  C   UNL     1      45.341   3.672  12.231  0.00  0.00    +0.000 A 
ATOM     17  H   UNL     1      44.514   2.325  13.644  0.00  0.00    +0.000 HD
ENDBRANCH  11  12
ENDBRANCH   9  11
ENDBRANCH   1   4
BRANCH   1  18
ATOM     18  C   UNL     1      49.106   8.473  13.855  0.00  0.00    +0.000 C 
BRANCH  18  23
ATOM     19  C   UNL     1      48.104   4.463  16.847  0.00  0.00    +0.000 A 
ATOM     20  C   UNL     1      47.439   4.897  15.705  0.00  0.00    +0.000 A 
ATOM     21  C   UNL     1      47.999   5.925  14.942  0.00  0.00    +0.000 A 
ATOM     22  C   UNL     1      49.206   6.500  15.335  0.00  0.00    +0.000 A 
ATOM     23  N   UNL     1      49.867   7.453  14.585  0.00  0.00    +0.000 N 
ATOM     24  N   UNL     1      49.846   6.099  16.449  0.00  0.00    +0.000 NA
ATOM     25  C   UNL     1      49.284   5.101  17.185  0.00  0.00    +0.000 A 
ATOM     26  H   UNL     1      50.658   7.799  15.127  0.00  0.00    +0.000 HD
BRANCH  19  28
ATOM     27  N   UNL     1      48.401   2.975  18.744  0.00  0.00    +0.000 N 
ATOM     28  C   UNL     1      47.599   3.376  17.707  0.00  0.00    +0.000 C 
ATOM     29  O   UNL     1      46.504   2.875  17.532  0.00  0.00    +0.000 OA
ATOM     30  H   UNL     1      47.994   2.304  19.390  0.00  0.00    +0.000 HD
ATOM     31  H   UNL     1      49.174   3.529  19.080  0.00  0.00    +0.000 HD
ENDBRANCH  19  28
ENDBRANCH  18  23
ENDBRANCH   1  18
TORSDOF 6
ENDMDL
MODEL 9
REMARK VINA RESULT:    -7.153      4.024      8.534
REMARK INTER + INTRA:         -10.739
REMARK INTER:                  -9.476
REMARK INTRA:                  -1.263
REMARK UNBOUND:                -1.077
REMARK  Name = 
REMARK  6 active torsions:
REMARK  status: ('A' for Active; 'I' for Inactive)
REMARK    1  A    between atoms: C_2  and  C_4
REMARK    2  A    between atoms: N_8  and  C_9
REMARK    3  A    between atoms: C_9  and  C_10
REMARK    4  A    between atoms: C_10  and  C_13
REMARK    5  A    between atoms: C_18  and  C_19
REMARK    6  A    between atoms: C_19  and  C_20
REMARK                            x       y       z     vdW  Elec       q    Type
REMARK                         _______ _______ _______ _____ _____    ______ ____
ROOT
ATOM      1  C   UNL     1      47.459   7.065  12.255  0.00  0.00    +0.000 C 
ATOM      2  F   UNL     1      47.061   8.208  12.891  0.00  0.00    +0.000 F 
ATOM      3  F   UNL     1      47.885   7.467  11.021  0.00  0.00    +0.000 F 
ENDROOT
BRANCH   1   4
ATOM      4  C   UNL     1      46.346   6.040  12.158  0.00  0.00    +0.000 A 
ATOM      5  C   UNL     1      45.832   5.424  13.302  0.00  0.00    +0.000 A 
ATOM      6  C   UNL     1      44.885   4.405  13.181  0.00  0.00    +0.000 A 
ATOM      7  C   UNL     1      44.427   4.005  11.916  0.00  0.00    +0.000 A 
ATOM      8 CL   UNL     1      43.290   2.705  11.866  0.00  0.00    +0.000 Cl
ATOM      9  C   UNL     1      44.875   4.654  10.756  0.00  0.00    +0.000 A 
ATOM     10  C   UNL     1      45.850   5.659  10.897  0.00  0.00    +0.000 A 
BRANCH   9  11
ATOM     11  C   UNL     1      44.296   4.408   9.381  0.00  0.00    +0.000 C 
BRANCH  11  12
ATOM     12  C   UNL     1      45.164   3.443   8.641  0.00  0.00    +0.000 A 
ATOM     13  C   UNL     1      45.303   2.043   8.887  0.00  0.00    +0.000 A 
ATOM     14  C   UNL     1      46.338   1.575   8.107  0.00  0.00    +0.000 A 
ATOM     15  N   UNL     1      46.816   2.623   7.368  0.00  0.00    +0.000 N 
ATOM     16  C   UNL     1      46.107   3.754   7.677  0.00  0.00    +0.000 A 
ATOM     17  H   UNL     1      47.597   2.582   6.727  0.00  0.00    +0.000 HD
ENDBRANCH  11  12
ENDBRANCH   9  11
ENDBRANCH   1   4
BRANCH   1  18
ATOM     18  C   UNL     1      48.656   6.458  13.035  0.00  0.00    +0.000 C 
BRANCH  18  23
ATOM     19  C   UNL     1      48.321   6.872  18.110  0.00  0.00    +0.000 A 
ATOM     20  C   UNL     1      48.433   5.729  17.326  0.00  0.00    +0.000 A 
ATOM     21  C   UNL     1      48.689   5.865  15.958  0.00  0.00    +0.000 A 
ATOM     22  C   UNL     1      48.824   7.135  15.403  0.00  0.00    +0.000 A 
ATOM     23  N   UNL     1      49.168   7.348  14.082  0.00  0.00    +0.000 N 
ATOM     24  N   UNL     1      48.697   8.247  16.151  0.00  0.00    +0.000 NA
ATOM     25  C   UNL     1      48.442   8.098  17.479  0.00  0.00    +0.000 A 
ATOM     26  H   UNL     1      49.094   8.346  13.885  0.00  0.00    +0.000 HD
BRANCH  19  28
ATOM     27  N   UNL     1      48.363   5.662  20.216  0.00  0.00    +0.000 N 
ATOM     28  C   UNL     1      48.067   6.830  19.562  0.00  0.00    +0.000 C 
ATOM     29  O   UNL     1      47.647   7.798  20.168  0.00  0.00    +0.000 OA
ATOM     30  H   UNL     1      48.286   5.685  21.228  0.00  0.00    +0.000 HD
ATOM     31  H   UNL     1      48.949   4.946  19.813  0.00  0.00    +0.000 HD
ENDBRANCH  19  28
ENDBRANCH  18  23
ENDBRANCH   1  18
TORSDOF 6
ENDMDL
