MODEL 1
REMARK VINA RESULT:    -9.486      0.000      0.000
REMARK INTER + INTRA:         -13.283
REMARK INTER:                 -12.258
REMARK INTRA:                  -1.025
REMARK UNBOUND:                -1.025
REMARK  Name = 
REMARK  5 active torsions:
REMARK  status: ('A' for Active; 'I' for Inactive)
REMARK    1  A    between atoms: C_2  and  C_4
REMARK    2  A    between atoms: C_7  and  N_8
REMARK    3  A    between atoms: N_8  and  C_9
REMARK    4  A    between atoms: C_9  and  C_10
REMARK    5  A    between atoms: C_14  and  C_15
REMARK                            x       y       z     vdW  Elec       q    Type
REMARK                         _______ _______ _______ _____ _____    ______ ____
ROOT
ATOM      1  C   UNL     1      43.947   4.951  11.528  0.00  0.00    +0.000 C 
ATOM      2  C   UNL     1      42.705   5.109  12.397  0.00  0.00    +0.000 C 
ATOM      3  C   UNL     1      42.984   6.101  11.316  0.00  0.00    +0.000 C 
ENDROOT
BRANCH   1   4
ATOM      4  C   UNL     1      45.313   5.238  12.149  0.00  0.00    +0.000 A 
ATOM      5  C   UNL     1      46.136   6.276  11.685  0.00  0.00    +0.000 A 
ATOM      6  C   UNL     1      47.326   6.605  12.335  0.00  0.00    +0.000 A 
ATOM      7  C   UNL     1      47.709   5.911  13.484  0.00  0.00    +0.000 A 
ATOM      8  C   UNL     1      46.933   4.858  13.987  0.00  0.00    +0.000 A 
ATOM      9  C   UNL     1      45.759   4.527  13.282  0.00  0.00    +0.000 A 
BRANCH   8  10
ATOM     10  C   UNL     1      47.283   4.187  15.256  0.00  0.00    +0.000 A 
ATOM     11  C   UNL     1      47.109   4.782  16.506  0.00  0.00    +0.000 A 
ATOM     12  C   UNL     1      47.556   4.119  17.648  0.00  0.00    +0.000 A 
ATOM     13  C   UNL     1      48.162   2.877  17.518  0.00  0.00    +0.000 A 
ATOM     14  C   UNL     1      48.281   2.341  16.249  0.00  0.00    +0.000 A 
ATOM     15  N   UNL     1      47.852   2.960  15.128  0.00  0.00    +0.000 NA
ENDBRANCH   8  10
ENDBRANCH   1   4
BRANCH   1  16
ATOM     16  N   UNL     1      43.933   3.748  10.669  0.00  0.00    +0.000 N 
ATOM     17  H   UNL     1      43.702   2.893  11.173  0.00  0.00    +0.000 HD
BRANCH  16  21
ATOM     18  C   UNL     1      46.542   2.757   7.483  0.00  0.00    +0.000 A 
ATOM     19  C   UNL     1      46.185   4.094   7.685  0.00  0.00    +0.000 A 
ATOM     20  C   UNL     1      45.320   4.441   8.731  0.00  0.00    +0.000 A 
ATOM     21  C   UNL     1      44.844   3.478   9.625  0.00  0.00    +0.000 A 
ATOM     22  C   UNL     1      45.181   2.137   9.383  0.00  0.00    +0.000 A 
ATOM     23  C   UNL     1      46.019   1.774   8.324  0.00  0.00    +0.000 A 
BRANCH  18  25
ATOM     24  N   UNL     1      47.339   3.035   5.200  0.00  0.00    +0.000 N 
ATOM     25  C   UNL     1      47.433   2.339   6.371  0.00  0.00    +0.000 C 
ATOM     26  O   UNL     1      48.251   1.437   6.503  0.00  0.00    +0.000 OA
ATOM     27  H   UNL     1      48.042   2.823   4.504  0.00  0.00    +0.000 HD
ATOM     28  H   UNL     1      46.896   3.941   5.156  0.00  0.00    +0.000 HD
ENDBRANCH  18  25
ENDBRANCH  16  21
ENDBRANCH   1  16
TORSDOF 5
ENDMDL
MODEL 2
REMARK VINA RESULT:    -9.244      1.064      1.554
REMARK INTER + INTRA:         -12.971
REMARK INTER:                 -12.409
REMARK INTRA:                  -0.562
REMARK UNBOUND:                -1.025
REMARK  Name = 
REMARK  5 active torsions:
REMARK  status: ('A' for Active; 'I' for Inactive)
REMARK    1  A    between atoms: C_2  and  C_4
REMARK    2  A    between atoms: C_7  and  N_8
REMARK    3  A    between atoms: N_8  and  C_9
REMARK    4  A    between atoms: C_9  and  C_10
REMARK    5  A    between atoms: C_14  and  C_15
REMARK                            x       y       z     vdW  Elec       q    Type
REMARK                         _______ _______ _______ _____ _____    ______ ____
ROOT
ATOM      1  C   UNL     1      43.929   5.012  11.502  0.00  0.00    +0.000 C 
ATOM      2  C   UNL     1      43.229   3.912  12.291  0.00  0.00    +0.000 C 
ATOM      3  C   UNL     1      42.709   5.310  12.348  0.00  0.00    +0.000 C 
ENDROOT
BRANCH   1   4
ATOM      4  C   UNL     1      45.296   5.496  11.984  0.00  0.00    +0.000 A 
ATOM      5  C   UNL     1      45.979   6.544  11.347  0.00  0.00    +0.000 A 
ATOM      6  C   UNL     1      47.169   7.056  11.865  0.00  0.00    +0.000 A 
ATOM      7  C   UNL     1      47.691   6.542  13.052  0.00  0.00    +0.000 A 
ATOM      8  C   UNL     1      47.059   5.488  13.727  0.00  0.00    +0.000 A 
ATOM      9  C   UNL     1      45.882   4.969  13.152  0.00  0.00    +0.000 A 
BRANCH   8  10
ATOM     10  C   UNL     1      47.555   5.006  15.032  0.00  0.00    +0.000 A 
ATOM     11  C   UNL     1      47.004   3.911  15.700  0.00  0.00    +0.000 A 
ATOM     12  C   UNL     1      47.467   3.583  16.974  0.00  0.00    +0.000 A 
ATOM     13  C   UNL     1      48.470   4.350  17.550  0.00  0.00    +0.000 A 
ATOM     14  C   UNL     1      48.981   5.407  16.820  0.00  0.00    +0.000 A 
ATOM     15  N   UNL     1      48.555   5.743  15.583  0.00  0.00    +0.000 NA
ENDBRANCH   8  10
ENDBRANCH   1   4
BRANCH   1  16
ATOM     16  N   UNL     1      43.846   4.849  10.035  0.00  0.00    +0.000 N 
ATOM     17  H   UNL     1      42.891   4.847   9.681  0.00  0.00    +0.000 HD
BRANCH  16  21
ATOM     18  C   UNL     1      46.472   2.445   7.740  0.00  0.00    +0.000 A 
ATOM     19  C   UNL     1      45.603   1.834   8.649  0.00  0.00    +0.000 A 
ATOM     20  C   UNL     1      44.730   2.613   9.421  0.00  0.00    +0.000 A 
ATOM     21  C   UNL     1      44.665   3.999   9.260  0.00  0.00    +0.000 A 
ATOM     22  C   UNL     1      45.571   4.599   8.371  0.00  0.00    +0.000 A 
ATOM     23  C   UNL     1      46.467   3.835   7.618  0.00  0.00    +0.000 A 
BRANCH  18  25
ATOM     24  N   UNL     1      48.503   2.336   6.404  0.00  0.00    +0.000 N 
ATOM     25  C   UNL     1      47.433   1.664   6.922  0.00  0.00    +0.000 C 
ATOM     26  O   UNL     1      47.305   0.458   6.750  0.00  0.00    +0.000 OA
ATOM     27  H   UNL     1      49.212   1.763   5.964  0.00  0.00    +0.000 HD
ATOM     28  H   UNL     1      48.785   3.238   6.758  0.00  0.00    +0.000 HD
ENDBRANCH  18  25
ENDBRANCH  16  21
ENDBRANCH   1  16
TORSDOF 5
ENDMDL
MODEL 3
REMARK VINA RESULT:    -8.897      1.890      3.667
REMARK INTER + INTRA:         -12.522
REMARK INTER:                 -11.245
REMARK INTRA:                  -1.277
REMARK UNBOUND:                -1.025
REMARK  Name = 
REMARK  5 active torsions:
REMARK  status: ('A' for Active; 'I' for Inactive)
REMARK    1  A    between atoms: C_2  and  C_4
REMARK    2  A    between atoms: C_7  and  N_8
REMARK    3  A    between atoms: N_8  and  C_9
REMARK    4  A    between atoms: C_9  and  C_10
REMARK    5  A    between atoms: C_14  and  C_15
REMARK                            x       y       z     vdW  Elec       q    Type
REMARK                         _______ _______ _______ _____ _____    ______ ____
ROOT
ATOM      1  C   UNL     1      43.747   5.000  11.392  0.00  0.00    +0.000 C 
ATOM      2  C   UNL     1      42.442   5.431  12.052  0.00  0.00    +0.000 C 
ATOM      3  C   UNL     1      43.034   6.266  10.965  0.00  0.00    +0.000 C 
ENDROOT
BRANCH   1   4
ATOM      4  C   UNL     1      45.042   5.118  12.193  0.00  0.00    +0.000 A 
ATOM      5  C   UNL     1      45.481   4.096  13.049  0.00  0.00    +0.000 A 
ATOM      6  C   UNL     1      46.723   4.164  13.683  0.00  0.00    +0.000 A 
ATOM      7  C   UNL     1      47.565   5.252  13.455  0.00  0.00    +0.000 A 
ATOM      8  C   UNL     1      47.175   6.309  12.619  0.00  0.00    +0.000 A 
ATOM      9  C   UNL     1      45.899   6.225  12.027  0.00  0.00    +0.000 A 
BRANCH   8  10
ATOM     10  C   UNL     1      48.101   7.413  12.297  0.00  0.00    +0.000 A 
ATOM     11  C   UNL     1      47.675   8.722  12.067  0.00  0.00    +0.000 A 
ATOM     12  C   UNL     1      48.604   9.685  11.673  0.00  0.00    +0.000 A 
ATOM     13  C   UNL     1      49.935   9.322  11.522  0.00  0.00    +0.000 A 
ATOM     14  C   UNL     1      50.286   8.012  11.788  0.00  0.00    +0.000 A 
ATOM     15  N   UNL     1      49.408   7.061  12.176  0.00  0.00    +0.000 NA
ENDBRANCH   8  10
ENDBRANCH   1   4
BRANCH   1  16
ATOM     16  N   UNL     1      43.645   3.744  10.619  0.00  0.00    +0.000 N 
ATOM     17  H   UNL     1      43.361   2.944  11.182  0.00  0.00    +0.000 HD
BRANCH  16  21
ATOM     18  C   UNL     1      46.427   2.713   7.596  0.00  0.00    +0.000 A 
ATOM     19  C   UNL     1      45.887   1.706   8.401  0.00  0.00    +0.000 A 
ATOM     20  C   UNL     1      44.968   2.027   9.409  0.00  0.00    +0.000 A 
ATOM     21  C   UNL     1      44.529   3.341   9.595  0.00  0.00    +0.000 A 
ATOM     22  C   UNL     1      45.112   4.344   8.803  0.00  0.00    +0.000 A 
ATOM     23  C   UNL     1      46.052   4.039   7.815  0.00  0.00    +0.000 A 
BRANCH  18  25
ATOM     24  N   UNL     1      47.359   3.172   5.395  0.00  0.00    +0.000 N 
ATOM     25  C   UNL     1      47.425   2.423   6.535  0.00  0.00    +0.000 C 
ATOM     26  O   UNL     1      48.300   1.580   6.684  0.00  0.00    +0.000 OA
ATOM     27  H   UNL     1      48.124   3.051   4.743  0.00  0.00    +0.000 HD
ATOM     28  H   UNL     1      46.850   4.043   5.361  0.00  0.00    +0.000 HD
ENDBRANCH  18  25
ENDBRANCH  16  21
ENDBRANCH   1  16
TORSDOF 5
ENDMDL
MODEL 4
REMARK VINA RESULT:    -7.795      3.012      7.617
REMARK INTER + INTRA:         -11.098
REMARK INTER:                  -9.998
REMARK INTRA:                  -1.100
REMARK UNBOUND:                -1.025
REMARK  Name = 
REMARK  5 active torsions:
REMARK  status: ('A' for Active; 'I' for Inactive)
REMARK    1  A    between atoms: C_2  and  C_4
REMARK    2  A    between atoms: C_7  and  N_8
REMARK    3  A    between atoms: N_8  and  C_9
REMARK    4  A    between atoms: C_9  and  C_10
REMARK    5  A    between atoms: C_14  and  C_15
REMARK                            x       y       z     vdW  Elec       q    Type
REMARK                         _______ _______ _______ _____ _____    ______ ____
ROOT
ATOM      1  C   UNL     1      46.217   7.383  12.417  0.00  0.00    +0.000 C 
ATOM      2  C   UNL     1      46.368   8.774  11.810  0.00  0.00    +0.000 C 
ATOM      3  C   UNL     1      45.614   8.600  13.086  0.00  0.00    +0.000 C 
ENDROOT
BRANCH   1   4
ATOM      4  C   UNL     1      45.289   6.385  11.728  0.00  0.00    +0.000 A 
ATOM      5  C   UNL     1      43.897   6.424  11.901  0.00  0.00    +0.000 A 
ATOM      6  C   UNL     1      43.051   5.584  11.176  0.00  0.00    +0.000 A 
ATOM      7  C   UNL     1      43.583   4.697  10.239  0.00  0.00    +0.000 A 
ATOM      8  C   UNL     1      44.967   4.605  10.031  0.00  0.00    +0.000 A 
ATOM      9  C   UNL     1      45.793   5.440  10.811  0.00  0.00    +0.000 A 
BRANCH   8  10
ATOM     10  C   UNL     1      45.527   3.739   8.974  0.00  0.00    +0.000 A 
ATOM     11  C   UNL     1      45.540   2.346   9.058  0.00  0.00    +0.000 A 
ATOM     12  C   UNL     1      46.176   1.607   8.061  0.00  0.00    +0.000 A 
ATOM     13  C   UNL     1      46.781   2.272   7.004  0.00  0.00    +0.000 A 
ATOM     14  C   UNL     1      46.709   3.652   6.978  0.00  0.00    +0.000 A 
ATOM     15  N   UNL     1      46.095   4.392   7.927  0.00  0.00    +0.000 NA
ENDBRANCH   8  10
ENDBRANCH   1   4
BRANCH   1  16
ATOM     16  N   UNL     1      47.489   6.785  12.876  0.00  0.00    +0.000 N 
ATOM     17  H   UNL     1      48.062   6.419  12.117  0.00  0.00    +0.000 HD
BRANCH  16  21
ATOM     18  C   UNL     1      47.948   4.632  16.495  0.00  0.00    +0.000 A 
ATOM     19  C   UNL     1      47.179   4.083  15.464  0.00  0.00    +0.000 A 
ATOM     20  C   UNL     1      47.012   4.782  14.261  0.00  0.00    +0.000 A 
ATOM     21  C   UNL     1      47.651   6.005  14.042  0.00  0.00    +0.000 A 
ATOM     22  C   UNL     1      48.387   6.559  15.101  0.00  0.00    +0.000 A 
ATOM     23  C   UNL     1      48.535   5.886  16.317  0.00  0.00    +0.000 A 
BRANCH  18  25
ATOM     24  N   UNL     1      47.260   2.932  18.094  0.00  0.00    +0.000 N 
ATOM     25  C   UNL     1      48.129   3.942  17.797  0.00  0.00    +0.000 C 
ATOM     26  O   UNL     1      49.045   4.229  18.558  0.00  0.00    +0.000 OA
ATOM     27  H   UNL     1      47.481   2.389  18.920  0.00  0.00    +0.000 HD
ATOM     28  H   UNL     1      46.695   2.491  17.383  0.00  0.00    +0.000 HD
ENDBRANCH  18  25
ENDBRANCH  16  21
ENDBRANCH   1  16
TORSDOF 5
ENDMDL
MODEL 5
REMARK VINA RESULT:    -7.727      2.559      3.554
REMARK INTER + INTRA:         -11.011
REMARK INTER:                 -10.484
REMARK INTRA:                  -0.526
REMARK UNBOUND:                -1.025
REMARK  Name = 
REMARK  5 active torsions:
REMARK  status: ('A' for Active; 'I' for Inactive)
REMARK    1  A    between atoms: C_2  and  C_4
REMARK    2  A    between atoms: C_7  and  N_8
REMARK    3  A    between atoms: N_8  and  C_9
REMARK    4  A    between atoms: C_9  and  C_10
REMARK    5  A    between atoms: C_14  and  C_15
REMARK                            x       y       z     vdW  Elec       q    Type
REMARK                         _______ _______ _______ _____ _____    ______ ____
ROOT
ATOM      1  C   UNL     1      44.214   4.480  11.693  0.00  0.00    +0.000 C 
ATOM      2  C   UNL     1      44.978   3.507  12.585  0.00  0.00    +0.000 C 
ATOM      3  C   UNL     1      43.637   4.007  13.011  0.00  0.00    +0.000 C 
ENDROOT
BRANCH   1   4
ATOM      4  C   UNL     1      44.719   5.918  11.583  0.00  0.00    +0.000 A 
ATOM      5  C   UNL     1      43.861   6.984  11.275  0.00  0.00    +0.000 A 
ATOM      6  C   UNL     1      44.309   8.306  11.294  0.00  0.00    +0.000 A 
ATOM      7  C   UNL     1      45.629   8.590  11.647  0.00  0.00    +0.000 A 
ATOM      8  C   UNL     1      46.535   7.565  11.954  0.00  0.00    +0.000 A 
ATOM      9  C   UNL     1      46.058   6.241  11.884  0.00  0.00    +0.000 A 
BRANCH   8  10
ATOM     10  C   UNL     1      47.903   7.867  12.421  0.00  0.00    +0.000 A 
ATOM     11  C   UNL     1      48.708   8.847  11.839  0.00  0.00    +0.000 A 
ATOM     12  C   UNL     1      50.023   9.001  12.277  0.00  0.00    +0.000 A 
ATOM     13  C   UNL     1      50.504   8.178  13.286  0.00  0.00    +0.000 A 
ATOM     14  C   UNL     1      49.641   7.244  13.828  0.00  0.00    +0.000 A 
ATOM     15  N   UNL     1      48.362   7.077  13.426  0.00  0.00    +0.000 NA
ENDBRANCH   8  10
ENDBRANCH   1   4
BRANCH   1  16
ATOM     16  N   UNL     1      43.789   3.905  10.399  0.00  0.00    +0.000 N 
ATOM     17  H   UNL     1      42.973   3.300  10.473  0.00  0.00    +0.000 HD
BRANCH  16  21
ATOM     18  C   UNL     1      46.534   2.698   7.407  0.00  0.00    +0.000 A 
ATOM     19  C   UNL     1      45.910   1.727   8.196  0.00  0.00    +0.000 A 
ATOM     20  C   UNL     1      45.002   2.106   9.194  0.00  0.00    +0.000 A 
ATOM     21  C   UNL     1      44.657   3.447   9.384  0.00  0.00    +0.000 A 
ATOM     22  C   UNL     1      45.322   4.411   8.609  0.00  0.00    +0.000 A 
ATOM     23  C   UNL     1      46.252   4.046   7.632  0.00  0.00    +0.000 A 
BRANCH  18  25
ATOM     24  N   UNL     1      47.494   3.070   5.202  0.00  0.00    +0.000 N 
ATOM     25  C   UNL     1      47.523   2.344   6.358  0.00  0.00    +0.000 C 
ATOM     26  O   UNL     1      48.363   1.469   6.530  0.00  0.00    +0.000 OA
ATOM     27  H   UNL     1      48.256   2.904   4.557  0.00  0.00    +0.000 HD
ATOM     28  H   UNL     1      47.021   3.960   5.146  0.00  0.00    +0.000 HD
ENDBRANCH  18  25
ENDBRANCH  16  21
ENDBRANCH   1  16
TORSDOF 5
ENDMDL
MODEL 6
REMARK VINA RESULT:    -7.002      2.910      4.540
REMARK INTER + INTRA:         -10.074
REMARK INTER:                  -8.989
REMARK INTRA:                  -1.085
REMARK UNBOUND:                -1.025
REMARK  Name = 
REMARK  5 active torsions:
REMARK  status: ('A' for Active; 'I' for Inactive)
REMARK    1  A    between atoms: C_2  and  C_4
REMARK    2  A    between atoms: C_7  and  N_8
REMARK    3  A    between atoms: N_8  and  C_9
REMARK    4  A    between atoms: C_9  and  C_10
REMARK    5  A    between atoms: C_14  and  C_15
REMARK                            x       y       z     vdW  Elec       q    Type
REMARK                         _______ _______ _______ _____ _____    ______ ____
ROOT
ATOM      1  C   UNL     1      47.884   8.073  12.569  0.00  0.00    +0.000 C 
ATOM      2  C   UNL     1      48.572   9.155  11.743  0.00  0.00    +0.000 C 
ATOM      3  C   UNL     1      48.925   7.721  11.526  0.00  0.00    +0.000 C 
ENDROOT
BRANCH   1   4
ATOM      4  C   UNL     1      48.248   7.943  14.047  0.00  0.00    +0.000 A 
ATOM      5  C   UNL     1      48.320   9.059  14.894  0.00  0.00    +0.000 A 
ATOM      6  C   UNL     1      48.536   8.917  16.266  0.00  0.00    +0.000 A 
ATOM      7  C   UNL     1      48.663   7.644  16.824  0.00  0.00    +0.000 A 
ATOM      8  C   UNL     1      48.610   6.493  16.025  0.00  0.00    +0.000 A 
ATOM      9  C   UNL     1      48.431   6.677  14.640  0.00  0.00    +0.000 A 
BRANCH   8  10
ATOM     10  C   UNL     1      48.646   5.143  16.623  0.00  0.00    +0.000 A 
ATOM     11  C   UNL     1      47.500   4.375  16.838  0.00  0.00    +0.000 A 
ATOM     12  C   UNL     1      47.612   3.151  17.498  0.00  0.00    +0.000 A 
ATOM     13  C   UNL     1      48.860   2.720  17.925  0.00  0.00    +0.000 A 
ATOM     14  C   UNL     1      49.951   3.526  17.657  0.00  0.00    +0.000 A 
ATOM     15  N   UNL     1      49.872   4.712  17.016  0.00  0.00    +0.000 NA
ENDBRANCH   8  10
ENDBRANCH   1   4
BRANCH   1  16
ATOM     16  N   UNL     1      46.435   7.944  12.306  0.00  0.00    +0.000 N 
ATOM     17  H   UNL     1      45.863   8.571  12.869  0.00  0.00    +0.000 HD
BRANCH  16  21
ATOM     18  C   UNL     1      44.552   4.250  11.441  0.00  0.00    +0.000 A 
ATOM     19  C   UNL     1      44.614   4.693  12.766  0.00  0.00    +0.000 A 
ATOM     20  C   UNL     1      45.236   5.911  13.072  0.00  0.00    +0.000 A 
ATOM     21  C   UNL     1      45.753   6.731  12.066  0.00  0.00    +0.000 A 
ATOM     22  C   UNL     1      45.716   6.252  10.747  0.00  0.00    +0.000 A 
ATOM     23  C   UNL     1      45.125   5.025  10.433  0.00  0.00    +0.000 A 
BRANCH  18  25
ATOM     24  N   UNL     1      44.508   2.247  10.059  0.00  0.00    +0.000 N 
ATOM     25  C   UNL     1      43.927   2.954  11.073  0.00  0.00    +0.000 C 
ATOM     26  O   UNL     1      42.958   2.509  11.676  0.00  0.00    +0.000 OA
ATOM     27  H   UNL     1      44.150   1.312   9.913  0.00  0.00    +0.000 HD
ATOM     28  H   UNL     1      45.448   2.441   9.748  0.00  0.00    +0.000 HD
ENDBRANCH  18  25
ENDBRANCH  16  21
ENDBRANCH   1  16
TORSDOF 5
ENDMDL
MODEL 7
REMARK VINA RESULT:    -6.665      3.933      8.422
REMARK INTER + INTRA:          -9.639
REMARK INTER:                  -9.039
REMARK INTRA:                  -0.600
REMARK UNBOUND:                -1.025
REMARK  Name = 
REMARK  5 active torsions:
REMARK  status: ('A' for Active; 'I' for Inactive)
REMARK    1  A    between atoms: C_2  and  C_4
REMARK    2  A    between atoms: C_7  and  N_8
REMARK    3  A    between atoms: N_8  and  C_9
REMARK    4  A    between atoms: C_9  and  C_10
REMARK    5  A    between atoms: C_14  and  C_15
REMARK                            x       y       z     vdW  Elec       q    Type
REMARK                         _______ _______ _______ _____ _____    ______ ____
ROOT
ATOM      1  C   UNL     1      48.139   4.602  16.907  0.00  0.00    +0.000 C 
ATOM      2  C   UNL     1      47.112   4.766  18.021  0.00  0.00    +0.000 C 
ATOM      3  C   UNL     1      47.265   3.445  17.343  0.00  0.00    +0.000 C 
ENDROOT
BRANCH   1   4
ATOM      4  C   UNL     1      47.865   5.266  15.559  0.00  0.00    +0.000 A 
ATOM      5  C   UNL     1      48.673   6.301  15.064  0.00  0.00    +0.000 A 
ATOM      6  C   UNL     1      48.485   6.819  13.781  0.00  0.00    +0.000 A 
ATOM      7  C   UNL     1      47.493   6.292  12.954  0.00  0.00    +0.000 A 
ATOM      8  C   UNL     1      46.648   5.264  13.399  0.00  0.00    +0.000 A 
ATOM      9  C   UNL     1      46.840   4.795  14.713  0.00  0.00    +0.000 A 
BRANCH   8  10
ATOM     10  C   UNL     1      45.662   4.638  12.495  0.00  0.00    +0.000 A 
ATOM     11  C   UNL     1      45.416   5.098  11.200  0.00  0.00    +0.000 A 
ATOM     12  C   UNL     1      44.400   4.511  10.447  0.00  0.00    +0.000 A 
ATOM     13  C   UNL     1      43.655   3.478  11.000  0.00  0.00    +0.000 A 
ATOM     14  C   UNL     1      43.970   3.063  12.280  0.00  0.00    +0.000 A 
ATOM     15  N   UNL     1      44.953   3.610  13.029  0.00  0.00    +0.000 NA
ENDBRANCH   8  10
ENDBRANCH   1   4
BRANCH   1  16
ATOM     16  N   UNL     1      49.542   4.737  17.356  0.00  0.00    +0.000 N 
ATOM     17  H   UNL     1      49.990   5.592  17.031  0.00  0.00    +0.000 HD
BRANCH  16  21
ATOM     18  C   UNL     1      52.415   1.658  17.800  0.00  0.00    +0.000 A 
ATOM     19  C   UNL     1      51.159   1.351  17.269  0.00  0.00    +0.000 A 
ATOM     20  C   UNL     1      50.194   2.355  17.118  0.00  0.00    +0.000 A 
ATOM     21  C   UNL     1      50.479   3.685  17.436  0.00  0.00    +0.000 A 
ATOM     22  C   UNL     1      51.731   3.968  18.004  0.00  0.00    +0.000 A 
ATOM     23  C   UNL     1      52.692   2.970  18.188  0.00  0.00    +0.000 A 
BRANCH  18  25
ATOM     24  N   UNL     1      53.647  -0.282  16.999  0.00  0.00    +0.000 N 
ATOM     25  C   UNL     1      53.460   0.622  18.004  0.00  0.00    +0.000 C 
ATOM     26  O   UNL     1      54.159   0.599  19.010  0.00  0.00    +0.000 OA
ATOM     27  H   UNL     1      54.447  -0.894  17.100  0.00  0.00    +0.000 HD
ATOM     28  H   UNL     1      53.299  -0.118  16.066  0.00  0.00    +0.000 HD
ENDBRANCH  18  25
ENDBRANCH  16  21
ENDBRANCH   1  16
TORSDOF 5
ENDMDL
MODEL 8
REMARK VINA RESULT:    -6.658      3.067      7.648
REMARK INTER + INTRA:          -9.629
REMARK INTER:                  -9.593
REMARK INTRA:                  -0.036
REMARK UNBOUND:                -1.025
REMARK  Name = 
REMARK  5 active torsions:
REMARK  status: ('A' for Active; 'I' for Inactive)
REMARK    1  A    between atoms: C_2  and  C_4
REMARK    2  A    between atoms: C_7  and  N_8
REMARK    3  A    between atoms: N_8  and  C_9
REMARK    4  A    between atoms: C_9  and  C_10
REMARK    5  A    between atoms: C_14  and  C_15
REMARK                            x       y       z     vdW  Elec       q    Type
REMARK                         _______ _______ _______ _____ _____    ______ ____
ROOT
ATOM      1  C   UNL     1      48.635   7.966  12.645  0.00  0.00    +0.000 C 
ATOM      2  C   UNL     1      49.754   7.413  11.770  0.00  0.00    +0.000 C 
ATOM      3  C   UNL     1      49.467   8.878  11.768  0.00  0.00    +0.000 C 
ENDROOT
BRANCH   1   4
ATOM      4  C   UNL     1      47.189   7.677  12.247  0.00  0.00    +0.000 A 
ATOM      5  C   UNL     1      46.171   8.629  12.408  0.00  0.00    +0.000 A 
ATOM      6  C   UNL     1      44.879   8.399  11.933  0.00  0.00    +0.000 A 
ATOM      7  C   UNL     1      44.584   7.212  11.261  0.00  0.00    +0.000 A 
ATOM      8  C   UNL     1      45.558   6.219  11.079  0.00  0.00    +0.000 A 
ATOM      9  C   UNL     1      46.839   6.470  11.609  0.00  0.00    +0.000 A 
BRANCH   8  10
ATOM     10  C   UNL     1      45.276   5.006  10.286  0.00  0.00    +0.000 A 
ATOM     11  C   UNL     1      45.634   4.875   8.943  0.00  0.00    +0.000 A 
ATOM     12  C   UNL     1      45.244   3.735   8.240  0.00  0.00    +0.000 A 
ATOM     13  C   UNL     1      44.511   2.753   8.891  0.00  0.00    +0.000 A 
ATOM     14  C   UNL     1      44.212   2.944  10.227  0.00  0.00    +0.000 A 
ATOM     15  N   UNL     1      44.582   4.035  10.933  0.00  0.00    +0.000 NA
ENDBRANCH   8  10
ENDBRANCH   1   4
BRANCH   1  16
ATOM     16  N   UNL     1      48.883   7.834  14.097  0.00  0.00    +0.000 N 
ATOM     17  H   UNL     1      49.784   8.209  14.389  0.00  0.00    +0.000 HD
BRANCH  16  21
ATOM     18  C   UNL     1      47.795   4.632  16.647  0.00  0.00    +0.000 A 
ATOM     19  C   UNL     1      47.283   4.676  15.346  0.00  0.00    +0.000 A 
ATOM     20  C   UNL     1      47.628   5.729  14.489  0.00  0.00    +0.000 A 
ATOM     21  C   UNL     1      48.529   6.720  14.888  0.00  0.00    +0.000 A 
ATOM     22  C   UNL     1      49.003   6.681  16.209  0.00  0.00    +0.000 A 
ATOM     23  C   UNL     1      48.642   5.652  17.083  0.00  0.00    +0.000 A 
BRANCH  18  25
ATOM     24  N   UNL     1      48.206   3.424  18.719  0.00  0.00    +0.000 N 
ATOM     25  C   UNL     1      47.436   3.551  17.599  0.00  0.00    +0.000 C 
ATOM     26  O   UNL     1      46.464   2.827  17.418  0.00  0.00    +0.000 OA
ATOM     27  H   UNL     1      47.867   2.772  19.415  0.00  0.00    +0.000 HD
ATOM     28  H   UNL     1      48.815   4.165  19.031  0.00  0.00    +0.000 HD
ENDBRANCH  18  25
ENDBRANCH  16  21
ENDBRANCH   1  16
TORSDOF 5
ENDMDL
MODEL 9
REMARK VINA RESULT:    -6.596      3.268      7.156
REMARK INTER + INTRA:          -9.549
REMARK INTER:                  -8.408
REMARK INTRA:                  -1.141
REMARK UNBOUND:                -1.025
REMARK  Name = 
REMARK  5 active torsions:
REMARK  status: ('A' for Active; 'I' for Inactive)
REMARK    1  A    between atoms: C_2  and  C_4
REMARK    2  A    between atoms: C_7  and  N_8
REMARK    3  A    between atoms: N_8  and  C_9
REMARK    4  A    between atoms: C_9  and  C_10
REMARK    5  A    between atoms: C_14  and  C_15
REMARK                            x       y       z     vdW  Elec       q    Type
REMARK                         _______ _______ _______ _____ _____    ______ ____
ROOT
ATOM      1  C   UNL     1      46.232   5.076  13.431  0.00  0.00    +0.000 C 
ATOM      2  C   UNL     1      45.963   4.344  14.740  0.00  0.00    +0.000 C 
ATOM      3  C   UNL     1      47.146   3.968  13.910  0.00  0.00    +0.000 C 
ENDROOT
BRANCH   1   4
ATOM      4  C   UNL     1      45.308   4.809  12.244  0.00  0.00    +0.000 A 
ATOM      5  C   UNL     1      44.023   5.366  12.163  0.00  0.00    +0.000 A 
ATOM      6  C   UNL     1      43.235   5.211  11.021  0.00  0.00    +0.000 A 
ATOM      7  C   UNL     1      43.730   4.510   9.921  0.00  0.00    +0.000 A 
ATOM      8  C   UNL     1      45.002   3.922   9.948  0.00  0.00    +0.000 A 
ATOM      9  C   UNL     1      45.753   4.064  11.132  0.00  0.00    +0.000 A 
BRANCH   8  10
ATOM     10  C   UNL     1      45.567   3.264   8.753  0.00  0.00    +0.000 A 
ATOM     11  C   UNL     1      45.829   1.894   8.690  0.00  0.00    +0.000 A 
ATOM     12  C   UNL     1      46.454   1.369   7.559  0.00  0.00    +0.000 A 
ATOM     13  C   UNL     1      46.801   2.219   6.518  0.00  0.00    +0.000 A 
ATOM     14  C   UNL     1      46.491   3.560   6.644  0.00  0.00    +0.000 A 
ATOM     15  N   UNL     1      45.881   4.094   7.725  0.00  0.00    +0.000 NA
ENDBRANCH   8  10
ENDBRANCH   1   4
BRANCH   1  16
ATOM     16  N   UNL     1      46.577   6.504  13.598  0.00  0.00    +0.000 N 
ATOM     17  H   UNL     1      45.785   7.131  13.463  0.00  0.00    +0.000 HD
BRANCH  16  21
ATOM     18  C   UNL     1      50.277   8.190  12.414  0.00  0.00    +0.000 A 
ATOM     19  C   UNL     1      49.293   7.953  11.450  0.00  0.00    +0.000 A 
ATOM     20  C   UNL     1      48.064   7.393  11.821  0.00  0.00    +0.000 A 
ATOM     21  C   UNL     1      47.772   7.113  13.158  0.00  0.00    +0.000 A 
ATOM     22  C   UNL     1      48.786   7.321  14.107  0.00  0.00    +0.000 A 
ATOM     23  C   UNL     1      50.027   7.852  13.745  0.00  0.00    +0.000 A 
BRANCH  18  25
ATOM     24  N   UNL     1      52.646   7.882  11.949  0.00  0.00    +0.000 N 
ATOM     25  C   UNL     1      51.605   8.757  12.063  0.00  0.00    +0.000 C 
ATOM     26  O   UNL     1      51.758   9.951  11.840  0.00  0.00    +0.000 OA
ATOM     27  H   UNL     1      53.508   8.267  11.582  0.00  0.00    +0.000 HD
ATOM     28  H   UNL     1      52.497   6.889  11.844  0.00  0.00    +0.000 HD
ENDBRANCH  18  25
ENDBRANCH  16  21
ENDBRANCH   1  16
TORSDOF 5
ENDMDL
