MODEL 1
REMARK VINA RESULT:    -9.689      0.000      0.000
REMARK INTER + INTRA:         -14.242
REMARK INTER:                 -13.654
REMARK INTRA:                  -0.588
REMARK UNBOUND:                -0.588
REMARK  Name = 
REMARK  9 active torsions:
REMARK  status: ('A' for Active; 'I' for Inactive)
REMARK    1  A    between atoms: C_1  and  C_2
REMARK    2  A    between atoms: C_2  and  C_3
REMARK    3  A    between atoms: C_5  and  O_6
REMARK    4  A    between atoms: O_6  and  C_7
REMARK    5  A    between atoms: C_9  and  C_10
REMARK    6  A    between atoms: C_10  and  C_13
REMARK    7  A    between atoms: C_13  and  N_14
REMARK    8  A    between atoms: N_14  and  C_15
REMARK    9  A    between atoms: C_18  and  C_19
REMARK                            x       y       z     vdW  Elec       q    Type
REMARK                         _______ _______ _______ _____ _____    ______ ____
ROOT
ATOM      1  C   UNL     1      43.726   5.319  12.397  0.00  0.00    +0.000 C 
ATOM      2  F   UNL     1      42.928   4.990  13.457  0.00  0.00    +0.000 F 
ATOM      3  F   UNL     1      43.302   6.558  11.999  0.00  0.00    +0.000 F 
ENDROOT
BRANCH   1   6
ATOM      4  C   UNL     1      47.050   4.335  13.957  0.00  0.00    +0.000 A 
ATOM      5  C   UNL     1      45.700   4.321  13.630  0.00  0.00    +0.000 A 
ATOM      6  C   UNL     1      45.195   5.338  12.807  0.00  0.00    +0.000 A 
ATOM      7  C   UNL     1      46.096   6.328  12.384  0.00  0.00    +0.000 A 
ATOM      8  C   UNL     1      47.421   6.263  12.783  0.00  0.00    +0.000 A 
ATOM      9  N   UNL     1      47.917   5.284  13.555  0.00  0.00    +0.000 NA
BRANCH   4  10
ATOM     10  O   UNL     1      47.527   3.296  14.729  0.00  0.00    +0.000 OA
BRANCH  10  15
ATOM     11  C   UNL     1      48.496   4.043  19.069  0.00  0.00    +0.000 C 
ATOM     12  C   UNL     1      49.130   3.797  17.701  0.00  0.00    +0.000 C 
ATOM     13  C   UNL     1      50.653   3.781  17.784  0.00  0.00    +0.000 C 
ATOM     14  C   UNL     1      48.579   4.709  16.574  0.00  0.00    +0.000 C 
ATOM     15  C   UNL     1      47.617   3.568  16.149  0.00  0.00    +0.000 C 
ATOM     16  C   UNL     1      48.533   2.591  16.929  0.00  0.00    +0.000 C 
ENDBRANCH  10  15
ENDBRANCH   4  10
ENDBRANCH   1   6
BRANCH   1  17
ATOM     17  C   UNL     1      43.438   4.325  11.240  0.00  0.00    +0.000 C 
BRANCH  17  18
ATOM     18  N   UNL     1      43.671   4.835   9.874  0.00  0.00    +0.000 N 
ATOM     19  H   UNL     1      43.850   5.839   9.866  0.00  0.00    +0.000 HD
BRANCH  18  20
ATOM     20  C   UNL     1      44.579   4.106   9.084  0.00  0.00    +0.000 A 
ATOM     21  C   UNL     1      45.591   4.712   8.321  0.00  0.00    +0.000 A 
ATOM     22  C   UNL     1      46.529   3.955   7.606  0.00  0.00    +0.000 A 
ATOM     23  C   UNL     1      46.492   2.559   7.663  0.00  0.00    +0.000 A 
ATOM     24  C   UNL     1      45.512   1.953   8.446  0.00  0.00    +0.000 A 
ATOM     25  F   UNL     1      45.430   0.617   8.542  0.00  0.00    +0.000 F 
ATOM     26  C   UNL     1      44.580   2.714   9.156  0.00  0.00    +0.000 A 
BRANCH  23  27
ATOM     27  C   UNL     1      47.512   1.789   6.905  0.00  0.00    +0.000 C 
ATOM     28  N   UNL     1      48.627   2.450   6.479  0.00  0.00    +0.000 N 
ATOM     29  O   UNL     1      47.366   0.595   6.672  0.00  0.00    +0.000 OA
ATOM     30  H   UNL     1      48.779   3.438   6.643  0.00  0.00    +0.000 HD
ATOM     31  H   UNL     1      49.315   1.936   5.945  0.00  0.00    +0.000 HD
ENDBRANCH  23  27
ENDBRANCH  18  20
ENDBRANCH  17  18
ENDBRANCH   1  17
TORSDOF 7
ENDMDL
MODEL 2
REMARK VINA RESULT:    -9.422      2.529      3.950
REMARK INTER + INTRA:         -13.865
REMARK INTER:                 -12.841
REMARK INTRA:                  -1.025
REMARK UNBOUND:                -0.588
REMARK  Name = 
REMARK  9 active torsions:
REMARK  status: ('A' for Active; 'I' for Inactive)
REMARK    1  A    between atoms: C_1  and  C_2
REMARK    2  A    between atoms: C_2  and  C_3
REMARK    3  A    between atoms: C_5  and  O_6
REMARK    4  A    between atoms: O_6  and  C_7
REMARK    5  A    between atoms: C_9  and  C_10
REMARK    6  A    between atoms: C_10  and  C_13
REMARK    7  A    between atoms: C_13  and  N_14
REMARK    8  A    between atoms: N_14  and  C_15
REMARK    9  A    between atoms: C_18  and  C_19
REMARK                            x       y       z     vdW  Elec       q    Type
REMARK                         _______ _______ _______ _____ _____    ______ ____
ROOT
ATOM      1  C   UNL     1      43.636   5.583  12.281  0.00  0.00    +0.000 C 
ATOM      2  F   UNL     1      42.741   5.523  13.312  0.00  0.00    +0.000 F 
ATOM      3  F   UNL     1      43.551   6.863  11.803  0.00  0.00    +0.000 F 
ENDROOT
BRANCH   1   6
ATOM      4  C   UNL     1      47.228   5.990  13.456  0.00  0.00    +0.000 A 
ATOM      5  C   UNL     1      45.963   6.302  12.974  0.00  0.00    +0.000 A 
ATOM      6  C   UNL     1      45.046   5.262  12.765  0.00  0.00    +0.000 A 
ATOM      7  C   UNL     1      45.484   3.956  13.038  0.00  0.00    +0.000 A 
ATOM      8  C   UNL     1      46.774   3.748  13.495  0.00  0.00    +0.000 A 
ATOM      9  N   UNL     1      47.653   4.738  13.715  0.00  0.00    +0.000 NA
BRANCH   4  10
ATOM     10  O   UNL     1      48.093   7.038  13.696  0.00  0.00    +0.000 OA
BRANCH  10  15
ATOM     11  C   UNL     1      51.477   7.946  10.859  0.00  0.00    +0.000 C 
ATOM     12  C   UNL     1      50.330   8.588  11.637  0.00  0.00    +0.000 C 
ATOM     13  C   UNL     1      50.256  10.092  11.387  0.00  0.00    +0.000 C 
ATOM     14  C   UNL     1      50.290   8.206  13.140  0.00  0.00    +0.000 C 
ATOM     15  C   UNL     1      49.237   7.114  12.813  0.00  0.00    +0.000 C 
ATOM     16  C   UNL     1      48.968   7.860  11.482  0.00  0.00    +0.000 C 
ENDBRANCH  10  15
ENDBRANCH   4  10
ENDBRANCH   1   6
BRANCH   1  17
ATOM     17  C   UNL     1      43.155   4.624  11.158  0.00  0.00    +0.000 C 
BRANCH  17  18
ATOM     18  N   UNL     1      43.671   4.902   9.803  0.00  0.00    +0.000 N 
ATOM     19  H   UNL     1      44.020   5.857   9.715  0.00  0.00    +0.000 HD
BRANCH  18  20
ATOM     20  C   UNL     1      44.546   3.942   9.262  0.00  0.00    +0.000 A 
ATOM     21  C   UNL     1      44.479   2.576   9.580  0.00  0.00    +0.000 A 
ATOM     22  C   UNL     1      45.315   1.634   8.965  0.00  0.00    +0.000 A 
ATOM     23  C   UNL     1      46.226   2.039   7.987  0.00  0.00    +0.000 A 
ATOM     24  C   UNL     1      46.273   3.388   7.643  0.00  0.00    +0.000 A 
ATOM     25  F   UNL     1      47.125   3.835   6.707  0.00  0.00    +0.000 F 
ATOM     26  C   UNL     1      45.438   4.322   8.260  0.00  0.00    +0.000 A 
BRANCH  23  27
ATOM     27  C   UNL     1      47.085   1.011   7.345  0.00  0.00    +0.000 C 
ATOM     28  N   UNL     1      46.836  -0.301   7.630  0.00  0.00    +0.000 N 
ATOM     29  O   UNL     1      47.988   1.322   6.577  0.00  0.00    +0.000 OA
ATOM     30  H   UNL     1      46.106  -0.597   8.266  0.00  0.00    +0.000 HD
ATOM     31  H   UNL     1      47.430  -1.004   7.212  0.00  0.00    +0.000 HD
ENDBRANCH  23  27
ENDBRANCH  18  20
ENDBRANCH  17  18
ENDBRANCH   1  17
TORSDOF 7
ENDMDL
MODEL 3
REMARK VINA RESULT:    -8.612      1.763      2.269
REMARK INTER + INTRA:         -12.724
REMARK INTER:                 -12.425
REMARK INTRA:                  -0.299
REMARK UNBOUND:                -0.588
REMARK  Name = 
REMARK  9 active torsions:
REMARK  status: ('A' for Active; 'I' for Inactive)
REMARK    1  A    between atoms: C_1  and  C_2
REMARK    2  A    between atoms: C_2  and  C_3
REMARK    3  A    between atoms: C_5  and  O_6
REMARK    4  A    between atoms: O_6  and  C_7
REMARK    5  A    between atoms: C_9  and  C_10
REMARK    6  A    between atoms: C_10  and  C_13
REMARK    7  A    between atoms: C_13  and  N_14
REMARK    8  A    between atoms: N_14  and  C_15
REMARK    9  A    between atoms: C_18  and  C_19
REMARK                            x       y       z     vdW  Elec       q    Type
REMARK                         _______ _______ _______ _____ _____    ______ ____
ROOT
ATOM      1  C   UNL     1      43.862   4.217  12.608  0.00  0.00    +0.000 C 
ATOM      2  F   UNL     1      44.530   3.026  12.643  0.00  0.00    +0.000 F 
ATOM      3  F   UNL     1      42.977   4.165  13.651  0.00  0.00    +0.000 F 
ENDROOT
BRANCH   1   6
ATOM      4  C   UNL     1      46.982   6.245  13.385  0.00  0.00    +0.000 A 
ATOM      5  C   UNL     1      46.103   5.173  13.298  0.00  0.00    +0.000 A 
ATOM      6  C   UNL     1      44.828   5.388  12.756  0.00  0.00    +0.000 A 
ATOM      7  C   UNL     1      44.514   6.697  12.354  0.00  0.00    +0.000 A 
ATOM      8  C   UNL     1      45.454   7.702  12.503  0.00  0.00    +0.000 A 
ATOM      9  N   UNL     1      46.684   7.503  13.004  0.00  0.00    +0.000 NA
BRANCH   4  10
ATOM     10  O   UNL     1      48.245   5.993  13.878  0.00  0.00    +0.000 OA
BRANCH  10  15
ATOM     11  C   UNL     1      49.635   7.384  17.936  0.00  0.00    +0.000 C 
ATOM     12  C   UNL     1      49.890   6.341  16.849  0.00  0.00    +0.000 C 
ATOM     13  C   UNL     1      51.017   5.390  17.239  0.00  0.00    +0.000 C 
ATOM     14  C   UNL     1      50.043   6.934  15.424  0.00  0.00    +0.000 C 
ATOM     15  C   UNL     1      48.549   6.611  15.152  0.00  0.00    +0.000 C 
ATOM     16  C   UNL     1      48.611   5.622  16.343  0.00  0.00    +0.000 C 
ENDBRANCH  10  15
ENDBRANCH   4  10
ENDBRANCH   1   6
BRANCH   1  17
ATOM     17  C   UNL     1      43.041   4.280  11.292  0.00  0.00    +0.000 C 
BRANCH  17  18
ATOM     18  N   UNL     1      43.738   4.846  10.119  0.00  0.00    +0.000 N 
ATOM     19  H   UNL     1      44.139   5.763  10.319  0.00  0.00    +0.000 HD
BRANCH  18  20
ATOM     20  C   UNL     1      44.630   3.988   9.451  0.00  0.00    +0.000 A 
ATOM     21  C   UNL     1      44.524   2.588   9.491  0.00  0.00    +0.000 A 
ATOM     22  C   UNL     1      45.382   1.762   8.752  0.00  0.00    +0.000 A 
ATOM     23  C   UNL     1      46.356   2.326   7.925  0.00  0.00    +0.000 A 
ATOM     24  C   UNL     1      46.444   3.714   7.856  0.00  0.00    +0.000 A 
ATOM     25  F   UNL     1      47.357   4.312   7.075  0.00  0.00    +0.000 F 
ATOM     26  C   UNL     1      45.586   4.532   8.595  0.00  0.00    +0.000 A 
BRANCH  23  27
ATOM     27  C   UNL     1      47.238   1.420   7.144  0.00  0.00    +0.000 C 
ATOM     28  N   UNL     1      48.253   1.978   6.424  0.00  0.00    +0.000 N 
ATOM     29  O   UNL     1      47.068   0.205   7.147  0.00  0.00    +0.000 OA
ATOM     30  H   UNL     1      48.419   2.977   6.389  0.00  0.00    +0.000 HD
ATOM     31  H   UNL     1      48.844   1.369   5.875  0.00  0.00    +0.000 HD
ENDBRANCH  23  27
ENDBRANCH  18  20
ENDBRANCH  17  18
ENDBRANCH   1  17
TORSDOF 7
ENDMDL
MODEL 4
REMARK VINA RESULT:    -8.604      2.378      2.940
REMARK INTER + INTRA:         -12.713
REMARK INTER:                 -11.661
REMARK INTRA:                  -1.052
REMARK UNBOUND:                -0.588
REMARK  Name = 
REMARK  9 active torsions:
REMARK  status: ('A' for Active; 'I' for Inactive)
REMARK    1  A    between atoms: C_1  and  C_2
REMARK    2  A    between atoms: C_2  and  C_3
REMARK    3  A    between atoms: C_5  and  O_6
REMARK    4  A    between atoms: O_6  and  C_7
REMARK    5  A    between atoms: C_9  and  C_10
REMARK    6  A    between atoms: C_10  and  C_13
REMARK    7  A    between atoms: C_13  and  N_14
REMARK    8  A    between atoms: N_14  and  C_15
REMARK    9  A    between atoms: C_18  and  C_19
REMARK                            x       y       z     vdW  Elec       q    Type
REMARK                         _______ _______ _______ _____ _____    ______ ____
ROOT
ATOM      1  C   UNL     1      45.120   4.866  12.529  0.00  0.00    +0.000 C 
ATOM      2  F   UNL     1      45.463   3.544  12.582  0.00  0.00    +0.000 F 
ATOM      3  F   UNL     1      44.340   5.081  13.632  0.00  0.00    +0.000 F 
ENDROOT
BRANCH   1   6
ATOM      4  C   UNL     1      48.346   6.538  13.647  0.00  0.00    +0.000 A 
ATOM      5  C   UNL     1      47.198   5.757  13.671  0.00  0.00    +0.000 A 
ATOM      6  C   UNL     1      46.363   5.750  12.544  0.00  0.00    +0.000 A 
ATOM      7  C   UNL     1      46.738   6.565  11.463  0.00  0.00    +0.000 A 
ATOM      8  C   UNL     1      47.892   7.325  11.547  0.00  0.00    +0.000 A 
ATOM      9  N   UNL     1      48.708   7.323  12.613  0.00  0.00    +0.000 NA
BRANCH   4  10
ATOM     10  O   UNL     1      49.173   6.487  14.750  0.00  0.00    +0.000 OA
BRANCH  10  15
ATOM     11  C   UNL     1      49.674  10.350  17.021  0.00  0.00    +0.000 C 
ATOM     12  C   UNL     1      48.902   9.031  17.010  0.00  0.00    +0.000 C 
ATOM     13  C   UNL     1      47.919   8.947  18.173  0.00  0.00    +0.000 C 
ATOM     14  C   UNL     1      49.798   7.774  16.862  0.00  0.00    +0.000 C 
ATOM     15  C   UNL     1      49.503   7.769  15.338  0.00  0.00    +0.000 C 
ATOM     16  C   UNL     1      48.279   8.669  15.636  0.00  0.00    +0.000 C 
ENDBRANCH  10  15
ENDBRANCH   4  10
ENDBRANCH   1   6
BRANCH   1  17
ATOM     17  C   UNL     1      44.239   5.093  11.272  0.00  0.00    +0.000 C 
BRANCH  17  18
ATOM     18  N   UNL     1      43.863   3.882  10.515  0.00  0.00    +0.000 N 
ATOM     19  H   UNL     1      42.879   3.888  10.246  0.00  0.00    +0.000 HD
BRANCH  18  20
ATOM     20  C   UNL     1      44.720   3.517   9.461  0.00  0.00    +0.000 A 
ATOM     21  C   UNL     1      45.417   4.452   8.679  0.00  0.00    +0.000 A 
ATOM     22  C   UNL     1      46.323   4.054   7.686  0.00  0.00    +0.000 A 
ATOM     23  C   UNL     1      46.575   2.697   7.471  0.00  0.00    +0.000 A 
ATOM     24  C   UNL     1      45.911   1.766   8.266  0.00  0.00    +0.000 A 
ATOM     25  F   UNL     1      46.116   0.449   8.108  0.00  0.00    +0.000 F 
ATOM     26  C   UNL     1      45.010   2.168   9.254  0.00  0.00    +0.000 A 
BRANCH  23  27
ATOM     27  C   UNL     1      47.553   2.312   6.421  0.00  0.00    +0.000 C 
ATOM     28  N   UNL     1      47.489   2.956   5.219  0.00  0.00    +0.000 N 
ATOM     29  O   UNL     1      48.399   1.449   6.622  0.00  0.00    +0.000 OA
ATOM     30  H   UNL     1      46.799   3.668   5.011  0.00  0.00    +0.000 HD
ATOM     31  H   UNL     1      48.139   2.685   4.494  0.00  0.00    +0.000 HD
ENDBRANCH  23  27
ENDBRANCH  18  20
ENDBRANCH  17  18
ENDBRANCH   1  17
TORSDOF 7
ENDMDL
MODEL 5
REMARK VINA RESULT:    -8.422      3.461      4.206
REMARK INTER + INTRA:         -12.456
REMARK INTER:                 -11.431
REMARK INTRA:                  -1.025
REMARK UNBOUND:                -0.588
REMARK  Name = 
REMARK  9 active torsions:
REMARK  status: ('A' for Active; 'I' for Inactive)
REMARK    1  A    between atoms: C_1  and  C_2
REMARK    2  A    between atoms: C_2  and  C_3
REMARK    3  A    between atoms: C_5  and  O_6
REMARK    4  A    between atoms: O_6  and  C_7
REMARK    5  A    between atoms: C_9  and  C_10
REMARK    6  A    between atoms: C_10  and  C_13
REMARK    7  A    between atoms: C_13  and  N_14
REMARK    8  A    between atoms: N_14  and  C_15
REMARK    9  A    between atoms: C_18  and  C_19
REMARK                            x       y       z     vdW  Elec       q    Type
REMARK                         _______ _______ _______ _____ _____    ______ ____
ROOT
ATOM      1  C   UNL     1      44.424   5.226  12.101  0.00  0.00    +0.000 C 
ATOM      2  F   UNL     1      45.528   4.422  12.153  0.00  0.00    +0.000 F 
ATOM      3  F   UNL     1      43.751   4.992  13.269  0.00  0.00    +0.000 F 
ENDROOT
BRANCH   1   6
ATOM      4  C   UNL     1      46.446   8.441  12.262  0.00  0.00    +0.000 A 
ATOM      5  C   UNL     1      46.085   7.110  12.426  0.00  0.00    +0.000 A 
ATOM      6  C   UNL     1      44.825   6.692  11.974  0.00  0.00    +0.000 A 
ATOM      7  C   UNL     1      43.993   7.668  11.401  0.00  0.00    +0.000 A 
ATOM      8  C   UNL     1      44.438   8.975  11.303  0.00  0.00    +0.000 A 
ATOM      9  N   UNL     1      45.649   9.381  11.716  0.00  0.00    +0.000 NA
BRANCH   4  10
ATOM     10  O   UNL     1      47.709   8.813  12.673  0.00  0.00    +0.000 OA
BRANCH  10  15
ATOM     11  C   UNL     1      51.518   7.611  10.580  0.00  0.00    +0.000 C 
ATOM     12  C   UNL     1      50.977   8.304  11.830  0.00  0.00    +0.000 C 
ATOM     13  C   UNL     1      52.107   8.795  12.730  0.00  0.00    +0.000 C 
ATOM     14  C   UNL     1      49.890   7.494  12.584  0.00  0.00    +0.000 C 
ATOM     15  C   UNL     1      48.798   8.321  11.855  0.00  0.00    +0.000 C 
ATOM     16  C   UNL     1      49.891   9.375  11.546  0.00  0.00    +0.000 C 
ENDBRANCH  10  15
ENDBRANCH   4  10
ENDBRANCH   1   6
BRANCH   1  17
ATOM     17  C   UNL     1      43.524   4.747  10.930  0.00  0.00    +0.000 C 
BRANCH  17  18
ATOM     18  N   UNL     1      43.704   3.344  10.505  0.00  0.00    +0.000 N 
ATOM     19  H   UNL     1      42.811   2.865  10.382  0.00  0.00    +0.000 HD
BRANCH  18  20
ATOM     20  C   UNL     1      44.599   3.126   9.442  0.00  0.00    +0.000 A 
ATOM     21  C   UNL     1      45.211   4.168   8.727  0.00  0.00    +0.000 A 
ATOM     22  C   UNL     1      46.157   3.918   7.724  0.00  0.00    +0.000 A 
ATOM     23  C   UNL     1      46.538   2.606   7.431  0.00  0.00    +0.000 A 
ATOM     24  C   UNL     1      45.959   1.570   8.161  0.00  0.00    +0.000 A 
ATOM     25  F   UNL     1      46.288   0.290   7.927  0.00  0.00    +0.000 F 
ATOM     26  C   UNL     1      45.016   1.825   9.159  0.00  0.00    +0.000 A 
BRANCH  23  27
ATOM     27  C   UNL     1      47.555   2.379   6.373  0.00  0.00    +0.000 C 
ATOM     28  N   UNL     1      47.363   2.977   5.161  0.00  0.00    +0.000 N 
ATOM     29  O   UNL     1      48.543   1.682   6.576  0.00  0.00    +0.000 OA
ATOM     30  H   UNL     1      46.556   3.552   4.952  0.00  0.00    +0.000 HD
ATOM     31  H   UNL     1      48.042   2.810   4.431  0.00  0.00    +0.000 HD
ENDBRANCH  23  27
ENDBRANCH  18  20
ENDBRANCH  17  18
ENDBRANCH   1  17
TORSDOF 7
ENDMDL
MODEL 6
REMARK VINA RESULT:    -8.268      2.690      3.319
REMARK INTER + INTRA:         -12.239
REMARK INTER:                 -11.355
REMARK INTRA:                  -0.884
REMARK UNBOUND:                -0.588
REMARK  Name = 
REMARK  9 active torsions:
REMARK  status: ('A' for Active; 'I' for Inactive)
REMARK    1  A    between atoms: C_1  and  C_2
REMARK    2  A    between atoms: C_2  and  C_3
REMARK    3  A    between atoms: C_5  and  O_6
REMARK    4  A    between atoms: O_6  and  C_7
REMARK    5  A    between atoms: C_9  and  C_10
REMARK    6  A    between atoms: C_10  and  C_13
REMARK    7  A    between atoms: C_13  and  N_14
REMARK    8  A    between atoms: N_14  and  C_15
REMARK    9  A    between atoms: C_18  and  C_19
REMARK                            x       y       z     vdW  Elec       q    Type
REMARK                         _______ _______ _______ _____ _____    ______ ____
ROOT
ATOM      1  C   UNL     1      44.879   4.421  12.595  0.00  0.00    +0.000 C 
ATOM      2  F   UNL     1      45.691   3.342  12.380  0.00  0.00    +0.000 F 
ATOM      3  F   UNL     1      44.098   4.076  13.665  0.00  0.00    +0.000 F 
ENDROOT
BRANCH   1   6
ATOM      4  C   UNL     1      47.767   6.697  13.560  0.00  0.00    +0.000 A 
ATOM      5  C   UNL     1      47.023   5.545  13.341  0.00  0.00    +0.000 A 
ATOM      6  C   UNL     1      45.702   5.672  12.886  0.00  0.00    +0.000 A 
ATOM      7  C   UNL     1      45.209   6.973  12.703  0.00  0.00    +0.000 A 
ATOM      8  C   UNL     1      46.025   8.059  12.971  0.00  0.00    +0.000 A 
ATOM      9  N   UNL     1      47.296   7.948  13.389  0.00  0.00    +0.000 NA
BRANCH   4  10
ATOM     10  O   UNL     1      49.077   6.540  13.962  0.00  0.00    +0.000 OA
BRANCH  10  15
ATOM     11  C   UNL     1      51.837   9.985  14.885  0.00  0.00    +0.000 C 
ATOM     12  C   UNL     1      51.810   8.544  14.377  0.00  0.00    +0.000 C 
ATOM     13  C   UNL     1      53.212   8.035  14.059  0.00  0.00    +0.000 C 
ATOM     14  C   UNL     1      50.785   8.292  13.240  0.00  0.00    +0.000 C 
ATOM     15  C   UNL     1      49.776   7.765  14.294  0.00  0.00    +0.000 C 
ATOM     16  C   UNL     1      50.976   7.574  15.255  0.00  0.00    +0.000 C 
ENDBRANCH  10  15
ENDBRANCH   4  10
ENDBRANCH   1   6
BRANCH   1  17
ATOM     17  C   UNL     1      43.950   4.587  11.363  0.00  0.00    +0.000 C 
BRANCH  17  18
ATOM     18  N   UNL     1      43.726   3.374  10.551  0.00  0.00    +0.000 N 
ATOM     19  H   UNL     1      42.741   3.248  10.316  0.00  0.00    +0.000 HD
BRANCH  18  20
ATOM     20  C   UNL     1      44.582   3.196   9.449  0.00  0.00    +0.000 A 
ATOM     21  C   UNL     1      45.095   4.263   8.695  0.00  0.00    +0.000 A 
ATOM     22  C   UNL     1      46.008   4.058   7.651  0.00  0.00    +0.000 A 
ATOM     23  C   UNL     1      46.454   2.767   7.355  0.00  0.00    +0.000 A 
ATOM     24  C   UNL     1      45.974   1.708   8.123  0.00  0.00    +0.000 A 
ATOM     25  F   UNL     1      46.371   0.448   7.888  0.00  0.00    +0.000 F 
ATOM     26  C   UNL     1      45.065   1.920   9.161  0.00  0.00    +0.000 A 
BRANCH  23  27
ATOM     27  C   UNL     1      47.433   2.588   6.253  0.00  0.00    +0.000 C 
ATOM     28  N   UNL     1      48.672   2.111   6.568  0.00  0.00    +0.000 N 
ATOM     29  O   UNL     1      47.143   2.853   5.091  0.00  0.00    +0.000 OA
ATOM     30  H   UNL     1      48.953   1.890   7.515  0.00  0.00    +0.000 HD
ATOM     31  H   UNL     1      49.350   2.006   5.824  0.00  0.00    +0.000 HD
ENDBRANCH  23  27
ENDBRANCH  18  20
ENDBRANCH  17  18
ENDBRANCH   1  17
TORSDOF 7
ENDMDL
MODEL 7
REMARK VINA RESULT:    -8.191      2.452      4.359
REMARK INTER + INTRA:         -12.130
REMARK INTER:                 -11.251
REMARK INTRA:                  -0.880
REMARK UNBOUND:                -0.588
REMARK  Name = 
REMARK  9 active torsions:
REMARK  status: ('A' for Active; 'I' for Inactive)
REMARK    1  A    between atoms: C_1  and  C_2
REMARK    2  A    between atoms: C_2  and  C_3
REMARK    3  A    between atoms: C_5  and  O_6
REMARK    4  A    between atoms: O_6  and  C_7
REMARK    5  A    between atoms: C_9  and  C_10
REMARK    6  A    between atoms: C_10  and  C_13
REMARK    7  A    between atoms: C_13  and  N_14
REMARK    8  A    between atoms: N_14  and  C_15
REMARK    9  A    between atoms: C_18  and  C_19
REMARK                            x       y       z     vdW  Elec       q    Type
REMARK                         _______ _______ _______ _____ _____    ______ ____
ROOT
ATOM      1  C   UNL     1      44.410   5.441  12.413  0.00  0.00    +0.000 C 
ATOM      2  F   UNL     1      43.389   5.890  13.202  0.00  0.00    +0.000 F 
ATOM      3  F   UNL     1      44.452   6.304  11.352  0.00  0.00    +0.000 F 
ENDROOT
BRANCH   1   6
ATOM      4  C   UNL     1      47.886   6.396  13.622  0.00  0.00    +0.000 A 
ATOM      5  C   UNL     1      46.710   6.393  12.883  0.00  0.00    +0.000 A 
ATOM      6  C   UNL     1      45.729   5.437  13.181  0.00  0.00    +0.000 A 
ATOM      7  C   UNL     1      46.016   4.520  14.205  0.00  0.00    +0.000 A 
ATOM      8  C   UNL     1      47.229   4.593  14.869  0.00  0.00    +0.000 A 
ATOM      9  N   UNL     1      48.167   5.516  14.603  0.00  0.00    +0.000 NA
BRANCH   4  10
ATOM     10  O   UNL     1      48.812   7.378  13.338  0.00  0.00    +0.000 OA
BRANCH  10  15
ATOM     11  C   UNL     1      47.877  11.135  11.027  0.00  0.00    +0.000 C 
ATOM     12  C   UNL     1      48.956  10.456  11.870  0.00  0.00    +0.000 C 
ATOM     13  C   UNL     1      50.188  11.342  12.021  0.00  0.00    +0.000 C 
ATOM     14  C   UNL     1      49.283   9.005  11.431  0.00  0.00    +0.000 C 
ATOM     15  C   UNL     1      48.325   8.478  12.532  0.00  0.00    +0.000 C 
ATOM     16  C   UNL     1      48.440   9.866  13.209  0.00  0.00    +0.000 C 
ENDBRANCH  10  15
ENDBRANCH   4  10
ENDBRANCH   1   6
BRANCH   1  17
ATOM     17  C   UNL     1      44.028   4.038  11.870  0.00  0.00    +0.000 C 
BRANCH  17  18
ATOM     18  N   UNL     1      43.669   3.973  10.439  0.00  0.00    +0.000 N 
ATOM     19  H   UNL     1      43.274   4.852  10.103  0.00  0.00    +0.000 HD
BRANCH  18  20
ATOM     20  C   UNL     1      44.645   3.442   9.576  0.00  0.00    +0.000 A 
ATOM     21  C   UNL     1      44.811   2.065   9.359  0.00  0.00    +0.000 A 
ATOM     22  C   UNL     1      45.741   1.570   8.434  0.00  0.00    +0.000 A 
ATOM     23  C   UNL     1      46.514   2.454   7.678  0.00  0.00    +0.000 A 
ATOM     24  C   UNL     1      46.330   3.823   7.865  0.00  0.00    +0.000 A 
ATOM     25  F   UNL     1      47.041   4.719   7.164  0.00  0.00    +0.000 F 
ATOM     26  C   UNL     1      45.402   4.309   8.788  0.00  0.00    +0.000 A 
BRANCH  23  27
ATOM     27  C   UNL     1      47.479   1.895   6.696  0.00  0.00    +0.000 C 
ATOM     28  N   UNL     1      48.629   2.591   6.461  0.00  0.00    +0.000 N 
ATOM     29  O   UNL     1      47.259   0.838   6.115  0.00  0.00    +0.000 OA
ATOM     30  H   UNL     1      48.843   3.472   6.913  0.00  0.00    +0.000 HD
ATOM     31  H   UNL     1      49.280   2.226   5.779  0.00  0.00    +0.000 HD
ENDBRANCH  23  27
ENDBRANCH  18  20
ENDBRANCH  17  18
ENDBRANCH   1  17
TORSDOF 7
ENDMDL
MODEL 8
REMARK VINA RESULT:    -7.822      2.599      3.294
REMARK INTER + INTRA:         -11.611
REMARK INTER:                 -11.000
REMARK INTRA:                  -0.611
REMARK UNBOUND:                -0.588
REMARK  Name = 
REMARK  9 active torsions:
REMARK  status: ('A' for Active; 'I' for Inactive)
REMARK    1  A    between atoms: C_1  and  C_2
REMARK    2  A    between atoms: C_2  and  C_3
REMARK    3  A    between atoms: C_5  and  O_6
REMARK    4  A    between atoms: O_6  and  C_7
REMARK    5  A    between atoms: C_9  and  C_10
REMARK    6  A    between atoms: C_10  and  C_13
REMARK    7  A    between atoms: C_13  and  N_14
REMARK    8  A    between atoms: N_14  and  C_15
REMARK    9  A    between atoms: C_18  and  C_19
REMARK                            x       y       z     vdW  Elec       q    Type
REMARK                         _______ _______ _______ _____ _____    ______ ____
ROOT
ATOM      1  C   UNL     1      45.562   6.297  11.731  0.00  0.00    +0.000 C 
ATOM      2  F   UNL     1      45.053   7.539  11.983  0.00  0.00    +0.000 F 
ATOM      3  F   UNL     1      46.359   6.450  10.629  0.00  0.00    +0.000 F 
ENDROOT
BRANCH   1   6
ATOM      4  C   UNL     1      47.869   6.182  14.751  0.00  0.00    +0.000 A 
ATOM      5  C   UNL     1      47.185   6.661  13.641  0.00  0.00    +0.000 A 
ATOM      6  C   UNL     1      46.359   5.782  12.926  0.00  0.00    +0.000 A 
ATOM      7  C   UNL     1      46.297   4.453  13.373  0.00  0.00    +0.000 A 
ATOM      8  C   UNL     1      47.036   4.068  14.479  0.00  0.00    +0.000 A 
ATOM      9  N   UNL     1      47.815   4.906  15.181  0.00  0.00    +0.000 NA
BRANCH   4  10
ATOM     10  O   UNL     1      48.636   7.080  15.462  0.00  0.00    +0.000 OA
BRANCH  10  15
ATOM     11  C   UNL     1      53.110   7.461  15.050  0.00  0.00    +0.000 C 
ATOM     12  C   UNL     1      51.939   7.767  15.983  0.00  0.00    +0.000 C 
ATOM     13  C   UNL     1      52.404   8.469  17.255  0.00  0.00    +0.000 C 
ATOM     14  C   UNL     1      51.006   6.557  16.247  0.00  0.00    +0.000 C 
ATOM     15  C   UNL     1      50.049   7.080  15.143  0.00  0.00    +0.000 C 
ATOM     16  C   UNL     1      50.737   8.460  15.289  0.00  0.00    +0.000 C 
ENDBRANCH  10  15
ENDBRANCH   4  10
ENDBRANCH   1   6
BRANCH   1  17
ATOM     17  C   UNL     1      44.390   5.356  11.342  0.00  0.00    +0.000 C 
BRANCH  17  18
ATOM     18  N   UNL     1      44.182   5.142   9.896  0.00  0.00    +0.000 N 
ATOM     19  H   UNL     1      44.244   6.013   9.368  0.00  0.00    +0.000 HD
BRANCH  18  20
ATOM     20  C   UNL     1      44.911   4.090   9.312  0.00  0.00    +0.000 A 
ATOM     21  C   UNL     1      44.664   2.736   9.593  0.00  0.00    +0.000 A 
ATOM     22  C   UNL     1      45.356   1.709   8.936  0.00  0.00    +0.000 A 
ATOM     23  C   UNL     1      46.298   2.017   7.953  0.00  0.00    +0.000 A 
ATOM     24  C   UNL     1      46.523   3.357   7.646  0.00  0.00    +0.000 A 
ATOM     25  F   UNL     1      47.413   3.713   6.707  0.00  0.00    +0.000 F 
ATOM     26  C   UNL     1      45.831   4.376   8.304  0.00  0.00    +0.000 A 
BRANCH  23  27
ATOM     27  C   UNL     1      47.001   0.902   7.266  0.00  0.00    +0.000 C 
ATOM     28  N   UNL     1      46.751  -0.371   7.692  0.00  0.00    +0.000 N 
ATOM     29  O   UNL     1      47.777   1.110   6.340  0.00  0.00    +0.000 OA
ATOM     30  H   UNL     1      46.125  -0.582   8.459  0.00  0.00    +0.000 HD
ATOM     31  H   UNL     1      47.241  -1.132   7.242  0.00  0.00    +0.000 HD
ENDBRANCH  23  27
ENDBRANCH  18  20
ENDBRANCH  17  18
ENDBRANCH   1  17
TORSDOF 7
ENDMDL
MODEL 9
REMARK VINA RESULT:    -7.711      2.965      8.820
REMARK INTER + INTRA:         -11.454
REMARK INTER:                 -10.554
REMARK INTRA:                  -0.900
REMARK UNBOUND:                -0.588
REMARK  Name = 
REMARK  9 active torsions:
REMARK  status: ('A' for Active; 'I' for Inactive)
REMARK    1  A    between atoms: C_1  and  C_2
REMARK    2  A    between atoms: C_2  and  C_3
REMARK    3  A    between atoms: C_5  and  O_6
REMARK    4  A    between atoms: O_6  and  C_7
REMARK    5  A    between atoms: C_9  and  C_10
REMARK    6  A    between atoms: C_10  and  C_13
REMARK    7  A    between atoms: C_13  and  N_14
REMARK    8  A    between atoms: N_14  and  C_15
REMARK    9  A    between atoms: C_18  and  C_19
REMARK                            x       y       z     vdW  Elec       q    Type
REMARK                         _______ _______ _______ _____ _____    ______ ____
ROOT
ATOM      1  C   UNL     1      46.602   5.896  12.860  0.00  0.00    +0.000 C 
ATOM      2  F   UNL     1      47.587   6.351  12.029  0.00  0.00    +0.000 F 
ATOM      3  F   UNL     1      46.380   6.914  13.747  0.00  0.00    +0.000 F 
ENDROOT
BRANCH   1   6
ATOM      4  C   UNL     1      44.280   4.858  10.034  0.00  0.00    +0.000 A 
ATOM      5  C   UNL     1      45.438   5.202  10.720  0.00  0.00    +0.000 A 
ATOM      6  C   UNL     1      45.339   5.558  12.073  0.00  0.00    +0.000 A 
ATOM      7  C   UNL     1      44.056   5.567  12.642  0.00  0.00    +0.000 A 
ATOM      8  C   UNL     1      42.960   5.228  11.866  0.00  0.00    +0.000 A 
ATOM      9  N   UNL     1      43.046   4.868  10.576  0.00  0.00    +0.000 NA
BRANCH   4  10
ATOM     10  O   UNL     1      44.414   4.467   8.718  0.00  0.00    +0.000 OA
BRANCH  10  15
ATOM     11  C   UNL     1      47.645   1.700   7.221  0.00  0.00    +0.000 C 
ATOM     12  C   UNL     1      46.637   2.758   6.772  0.00  0.00    +0.000 C 
ATOM     13  C   UNL     1      46.707   2.994   5.267  0.00  0.00    +0.000 C 
ATOM     14  C   UNL     1      46.674   4.064   7.608  0.00  0.00    +0.000 C 
ATOM     15  C   UNL     1      45.488   3.531   8.454  0.00  0.00    +0.000 C 
ATOM     16  C   UNL     1      45.198   2.534   7.305  0.00  0.00    +0.000 C 
ENDBRANCH  10  15
ENDBRANCH   4  10
ENDBRANCH   1   6
BRANCH   1  17
ATOM     17  C   UNL     1      47.154   4.683  13.656  0.00  0.00    +0.000 C 
BRANCH  17  18
ATOM     18  N   UNL     1      46.523   4.426  14.966  0.00  0.00    +0.000 N 
ATOM     19  H   UNL     1      45.928   3.597  14.948  0.00  0.00    +0.000 HD
BRANCH  18  20
ATOM     20  C   UNL     1      47.375   4.469  16.085  0.00  0.00    +0.000 A 
ATOM     21  C   UNL     1      47.421   3.453  17.054  0.00  0.00    +0.000 A 
ATOM     22  C   UNL     1      48.336   3.487  18.116  0.00  0.00    +0.000 A 
ATOM     23  C   UNL     1      49.252   4.536  18.217  0.00  0.00    +0.000 A 
ATOM     24  C   UNL     1      49.233   5.530  17.240  0.00  0.00    +0.000 A 
ATOM     25  F   UNL     1      50.093   6.559  17.282  0.00  0.00    +0.000 F 
ATOM     26  C   UNL     1      48.319   5.490  16.184  0.00  0.00    +0.000 A 
BRANCH  23  27
ATOM     27  C   UNL     1      50.217   4.532  19.347  0.00  0.00    +0.000 C 
ATOM     28  N   UNL     1      51.437   3.956  19.145  0.00  0.00    +0.000 N 
ATOM     29  O   UNL     1      49.935   5.036  20.429  0.00  0.00    +0.000 OA
ATOM     30  H   UNL     1      51.703   3.521  18.270  0.00  0.00    +0.000 HD
ATOM     31  H   UNL     1      52.090   3.932  19.916  0.00  0.00    +0.000 HD
ENDBRANCH  23  27
ENDBRANCH  18  20
ENDBRANCH  17  18
ENDBRANCH   1  17
TORSDOF 7
ENDMDL
