MODEL 1
REMARK VINA RESULT:    -9.282      0.000      0.000
REMARK INTER + INTRA:         -12.363
REMARK INTER:                 -11.452
REMARK INTRA:                  -0.911
REMARK UNBOUND:                -0.911
REMARK  Name = 
REMARK  4 active torsions:
REMARK  status: ('A' for Active; 'I' for Inactive)
REMARK    1  A    between atoms: C_2  and  C_4
REMARK    2  A    between atoms: N_8  and  C_9
REMARK    3  A    between atoms: C_9  and  C_10
REMARK    4  A    between atoms: C_14  and  C_15
REMARK                            x       y       z     vdW  Elec       q    Type
REMARK                         _______ _______ _______ _____ _____    ______ ____
ROOT
ATOM      1  C   UNL     1      43.444   4.831  11.019  0.00  0.00    +0.000 C 
ENDROOT
BRANCH   1   6
ATOM      2  C   UNL     1      46.381   2.233   7.705  0.00  0.00    +0.000 A 
ATOM      3  C   UNL     1      45.649   1.759   8.787  0.00  0.00    +0.000 A 
ATOM      4  C   UNL     1      44.796   2.631   9.465  0.00  0.00    +0.000 A 
ATOM      5  C   UNL     1      44.701   3.960   9.066  0.00  0.00    +0.000 A 
ATOM      6  N   UNL     1      43.824   4.862   9.623  0.00  0.00    +0.000 N 
ATOM      7  N   UNL     1      45.418   4.428   8.029  0.00  0.00    +0.000 NA
ATOM      8  C   UNL     1      46.243   3.569   7.374  0.00  0.00    +0.000 A 
ATOM      9  H   UNL     1      44.024   5.779   9.234  0.00  0.00    +0.000 HD
BRANCH   2  11
ATOM     10  N   UNL     1      48.377   1.966   6.348  0.00  0.00    +0.000 N 
ATOM     11  C   UNL     1      47.279   1.373   6.908  0.00  0.00    +0.000 C 
ATOM     12  O   UNL     1      47.071   0.174   6.779  0.00  0.00    +0.000 OA
ATOM     13  H   UNL     1      49.035   1.351   5.887  0.00  0.00    +0.000 HD
ATOM     14  H   UNL     1      48.714   2.874   6.636  0.00  0.00    +0.000 HD
ENDBRANCH   2  11
ENDBRANCH   1   6
BRANCH   1  15
ATOM     15  C   UNL     1      44.570   5.196  11.956  0.00  0.00    +0.000 A 
ATOM     16  C   UNL     1      44.997   4.308  12.949  0.00  0.00    +0.000 A 
ATOM     17  C   UNL     1      46.118   4.604  13.720  0.00  0.00    +0.000 A 
ATOM     18  C   UNL     1      46.840   5.778  13.489  0.00  0.00    +0.000 A 
ATOM     19  C   UNL     1      46.462   6.684  12.483  0.00  0.00    +0.000 A 
ATOM     20  C   UNL     1      45.295   6.385  11.753  0.00  0.00    +0.000 A 
BRANCH  19  21
ATOM     21  C   UNL     1      47.310   7.846  12.121  0.00  0.00    +0.000 A 
ATOM     22  C   UNL     1      46.826   9.165  12.262  0.00  0.00    +0.000 A 
ATOM     23  C   UNL     1      47.641  10.279  12.033  0.00  0.00    +0.000 A 
ATOM     24  C   UNL     1      48.967  10.099  11.659  0.00  0.00    +0.000 A 
ATOM     25  C   UNL     1      49.455   8.811  11.496  0.00  0.00    +0.000 A 
ATOM     26  F   UNL     1      50.737   8.634  11.148  0.00  0.00    +0.000 F 
ATOM     27  C   UNL     1      48.645   7.697  11.709  0.00  0.00    +0.000 A 
ENDBRANCH  19  21
ENDBRANCH   1  15
TORSDOF 4
ENDMDL
MODEL 2
REMARK VINA RESULT:    -8.382      2.364      3.538
REMARK INTER + INTRA:         -11.253
REMARK INTER:                 -10.413
REMARK INTRA:                  -0.839
REMARK UNBOUND:                -0.911
REMARK  Name = 
REMARK  4 active torsions:
REMARK  status: ('A' for Active; 'I' for Inactive)
REMARK    1  A    between atoms: C_2  and  C_4
REMARK    2  A    between atoms: N_8  and  C_9
REMARK    3  A    between atoms: C_9  and  C_10
REMARK    4  A    between atoms: C_14  and  C_15
REMARK                            x       y       z     vdW  Elec       q    Type
REMARK                         _______ _______ _______ _____ _____    ______ ____
ROOT
ATOM      1  C   UNL     1      43.636   5.024  10.916  0.00  0.00    +0.000 C 
ENDROOT
BRANCH   1   6
ATOM      2  C   UNL     1      46.393   2.183   7.648  0.00  0.00    +0.000 A 
ATOM      3  C   UNL     1      45.835   1.822   8.868  0.00  0.00    +0.000 A 
ATOM      4  C   UNL     1      44.991   2.722   9.522  0.00  0.00    +0.000 A 
ATOM      5  C   UNL     1      44.734   3.967   8.959  0.00  0.00    +0.000 A 
ATOM      6  N   UNL     1      43.849   4.876   9.492  0.00  0.00    +0.000 N 
ATOM      7  N   UNL     1      45.283   4.328   7.785  0.00  0.00    +0.000 NA
ATOM      8  C   UNL     1      46.101   3.443   7.156  0.00  0.00    +0.000 A 
ATOM      9  H   UNL     1      43.922   5.737   8.959  0.00  0.00    +0.000 HD
BRANCH   2  11
ATOM     10  N   UNL     1      48.262   1.861   6.129  0.00  0.00    +0.000 N 
ATOM     11  C   UNL     1      47.268   1.282   6.869  0.00  0.00    +0.000 C 
ATOM     12  O   UNL     1      47.133   0.066   6.910  0.00  0.00    +0.000 OA
ATOM     13  H   UNL     1      48.913   1.230   5.679  0.00  0.00    +0.000 HD
ATOM     14  H   UNL     1      48.560   2.816   6.268  0.00  0.00    +0.000 HD
ENDBRANCH   2  11
ENDBRANCH   1   6
BRANCH   1  15
ATOM     15  C   UNL     1      44.633   5.942  11.580  0.00  0.00    +0.000 A 
ATOM     16  C   UNL     1      44.580   7.326  11.383  0.00  0.00    +0.000 A 
ATOM     17  C   UNL     1      45.420   8.171  12.103  0.00  0.00    +0.000 A 
ATOM     18  C   UNL     1      46.306   7.643  13.046  0.00  0.00    +0.000 A 
ATOM     19  C   UNL     1      46.372   6.261  13.296  0.00  0.00    +0.000 A 
ATOM     20  C   UNL     1      45.546   5.426  12.518  0.00  0.00    +0.000 A 
BRANCH  19  21
ATOM     21  C   UNL     1      47.186   5.707  14.405  0.00  0.00    +0.000 A 
ATOM     22  C   UNL     1      48.278   6.431  14.931  0.00  0.00    +0.000 A 
ATOM     23  C   UNL     1      48.993   5.981  16.047  0.00  0.00    +0.000 A 
ATOM     24  C   UNL     1      48.628   4.794  16.669  0.00  0.00    +0.000 A 
ATOM     25  C   UNL     1      47.570   4.059  16.155  0.00  0.00    +0.000 A 
ATOM     26  F   UNL     1      47.207   2.919  16.759  0.00  0.00    +0.000 F 
ATOM     27  C   UNL     1      46.862   4.492  15.034  0.00  0.00    +0.000 A 
ENDBRANCH  19  21
ENDBRANCH   1  15
TORSDOF 4
ENDMDL
MODEL 3
REMARK VINA RESULT:    -7.940      4.012      7.096
REMARK INTER + INTRA:         -10.707
REMARK INTER:                  -9.875
REMARK INTRA:                  -0.832
REMARK UNBOUND:                -0.911
REMARK  Name = 
REMARK  4 active torsions:
REMARK  status: ('A' for Active; 'I' for Inactive)
REMARK    1  A    between atoms: C_2  and  C_4
REMARK    2  A    between atoms: N_8  and  C_9
REMARK    3  A    between atoms: C_9  and  C_10
REMARK    4  A    between atoms: C_14  and  C_15
REMARK                            x       y       z     vdW  Elec       q    Type
REMARK                         _______ _______ _______ _____ _____    ______ ____
ROOT
ATOM      1  C   UNL     1      44.413   6.687  11.781  0.00  0.00    +0.000 C 
ENDROOT
BRANCH   1   6
ATOM      2  C   UNL     1      49.309   7.723  12.927  0.00  0.00    +0.000 A 
ATOM      3  C   UNL     1      48.575   8.086  11.805  0.00  0.00    +0.000 A 
ATOM      4  C   UNL     1      47.205   7.821  11.773  0.00  0.00    +0.000 A 
ATOM      5  C   UNL     1      46.596   7.183  12.849  0.00  0.00    +0.000 A 
ATOM      6  N   UNL     1      45.241   6.963  12.935  0.00  0.00    +0.000 N 
ATOM      7  N   UNL     1      47.304   6.816  13.932  0.00  0.00    +0.000 NA
ATOM      8  C   UNL     1      48.637   7.082  13.953  0.00  0.00    +0.000 A 
ATOM      9  H   UNL     1      45.066   6.393  13.758  0.00  0.00    +0.000 HD
BRANCH   2  11
ATOM     10  N   UNL     1      51.331   7.728  14.274  0.00  0.00    +0.000 N 
ATOM     11  C   UNL     1      50.754   7.997  13.063  0.00  0.00    +0.000 C 
ATOM     12  O   UNL     1      51.418   8.414  12.123  0.00  0.00    +0.000 OA
ATOM     13  H   UNL     1      52.336   7.827  14.325  0.00  0.00    +0.000 HD
ATOM     14  H   UNL     1      50.883   7.156  14.976  0.00  0.00    +0.000 HD
ENDBRANCH   2  11
ENDBRANCH   1   6
BRANCH   1  15
ATOM     15  C   UNL     1      44.321   5.218  11.444  0.00  0.00    +0.000 A 
ATOM     16  C   UNL     1      43.385   4.392  12.076  0.00  0.00    +0.000 A 
ATOM     17  C   UNL     1      43.223   3.072  11.664  0.00  0.00    +0.000 A 
ATOM     18  C   UNL     1      43.978   2.571  10.599  0.00  0.00    +0.000 A 
ATOM     19  C   UNL     1      44.909   3.374   9.919  0.00  0.00    +0.000 A 
ATOM     20  C   UNL     1      45.088   4.690  10.390  0.00  0.00    +0.000 A 
BRANCH  19  21
ATOM     21  C   UNL     1      45.593   2.905   8.690  0.00  0.00    +0.000 A 
ATOM     22  C   UNL     1      46.033   3.825   7.713  0.00  0.00    +0.000 A 
ATOM     23  C   UNL     1      46.777   3.419   6.599  0.00  0.00    +0.000 A 
ATOM     24  C   UNL     1      47.104   2.079   6.438  0.00  0.00    +0.000 A 
ATOM     25  C   UNL     1      46.664   1.158   7.377  0.00  0.00    +0.000 A 
ATOM     26  F   UNL     1      46.988  -0.135   7.232  0.00  0.00    +0.000 F 
ATOM     27  C   UNL     1      45.910   1.552   8.481  0.00  0.00    +0.000 A 
ENDBRANCH  19  21
ENDBRANCH   1  15
TORSDOF 4
ENDMDL
MODEL 4
REMARK VINA RESULT:    -7.931      2.703      3.224
REMARK INTER + INTRA:         -10.696
REMARK INTER:                  -9.902
REMARK INTRA:                  -0.794
REMARK UNBOUND:                -0.911
REMARK  Name = 
REMARK  4 active torsions:
REMARK  status: ('A' for Active; 'I' for Inactive)
REMARK    1  A    between atoms: C_2  and  C_4
REMARK    2  A    between atoms: N_8  and  C_9
REMARK    3  A    between atoms: C_9  and  C_10
REMARK    4  A    between atoms: C_14  and  C_15
REMARK                            x       y       z     vdW  Elec       q    Type
REMARK                         _______ _______ _______ _____ _____    ______ ____
ROOT
ATOM      1  C   UNL     1      43.589   4.006  11.113  0.00  0.00    +0.000 C 
ENDROOT
BRANCH   1   6
ATOM      2  C   UNL     1      46.652   2.577   7.250  0.00  0.00    +0.000 A 
ATOM      3  C   UNL     1      46.383   3.853   7.730  0.00  0.00    +0.000 A 
ATOM      4  C   UNL     1      45.629   3.995   8.896  0.00  0.00    +0.000 A 
ATOM      5  C   UNL     1      45.143   2.869   9.551  0.00  0.00    +0.000 A 
ATOM      6  N   UNL     1      44.467   2.916  10.748  0.00  0.00    +0.000 N 
ATOM      7  N   UNL     1      45.388   1.631   9.082  0.00  0.00    +0.000 NA
ATOM      8  C   UNL     1      46.125   1.505   7.948  0.00  0.00    +0.000 A 
ATOM      9  H   UNL     1      44.130   1.981  10.958  0.00  0.00    +0.000 HD
BRANCH   2  11
ATOM     10  N   UNL     1      47.327   3.205   5.002  0.00  0.00    +0.000 N 
ATOM     11  C   UNL     1      47.471   2.331   6.046  0.00  0.00    +0.000 C 
ATOM     12  O   UNL     1      48.271   1.406   5.992  0.00  0.00    +0.000 OA
ATOM     13  H   UNL     1      47.962   3.084   4.224  0.00  0.00    +0.000 HD
ATOM     14  H   UNL     1      46.880   4.105   5.103  0.00  0.00    +0.000 HD
ENDBRANCH   2  11
ENDBRANCH   1   6
BRANCH   1  15
ATOM     15  C   UNL     1      44.296   5.139  11.815  0.00  0.00    +0.000 A 
ATOM     16  C   UNL     1      45.352   4.891  12.700  0.00  0.00    +0.000 A 
ATOM     17  C   UNL     1      46.080   5.949  13.238  0.00  0.00    +0.000 A 
ATOM     18  C   UNL     1      45.776   7.265  12.880  0.00  0.00    +0.000 A 
ATOM     19  C   UNL     1      44.742   7.557  11.974  0.00  0.00    +0.000 A 
ATOM     20  C   UNL     1      43.990   6.471  11.484  0.00  0.00    +0.000 A 
BRANCH  19  21
ATOM     21  C   UNL     1      44.518   8.932  11.462  0.00  0.00    +0.000 A 
ATOM     22  C   UNL     1      45.423   9.971  11.767  0.00  0.00    +0.000 A 
ATOM     23  C   UNL     1      45.296  11.248  11.208  0.00  0.00    +0.000 A 
ATOM     24  C   UNL     1      44.258  11.514  10.324  0.00  0.00    +0.000 A 
ATOM     25  C   UNL     1      43.347  10.510  10.028  0.00  0.00    +0.000 A 
ATOM     26  F   UNL     1      42.352  10.760   9.166  0.00  0.00    +0.000 F 
ATOM     27  C   UNL     1      43.459   9.241  10.592  0.00  0.00    +0.000 A 
ENDBRANCH  19  21
ENDBRANCH   1  15
TORSDOF 4
ENDMDL
MODEL 5
REMARK VINA RESULT:    -7.897      5.207      7.975
REMARK INTER + INTRA:         -10.655
REMARK INTER:                 -10.097
REMARK INTRA:                  -0.558
REMARK UNBOUND:                -0.911
REMARK  Name = 
REMARK  4 active torsions:
REMARK  status: ('A' for Active; 'I' for Inactive)
REMARK    1  A    between atoms: C_2  and  C_4
REMARK    2  A    between atoms: N_8  and  C_9
REMARK    3  A    between atoms: C_9  and  C_10
REMARK    4  A    between atoms: C_14  and  C_15
REMARK                            x       y       z     vdW  Elec       q    Type
REMARK                         _______ _______ _______ _____ _____    ______ ____
ROOT
ATOM      1  C   UNL     1      46.022   5.285  13.913  0.00  0.00    +0.000 C 
ENDROOT
BRANCH   1   6
ATOM      2  C   UNL     1      49.551   3.908  17.378  0.00  0.00    +0.000 A 
ATOM      3  C   UNL     1      49.061   5.174  17.080  0.00  0.00    +0.000 A 
ATOM      4  C   UNL     1      47.987   5.297  16.198  0.00  0.00    +0.000 A 
ATOM      5  C   UNL     1      47.432   4.162  15.616  0.00  0.00    +0.000 A 
ATOM      6  N   UNL     1      46.321   4.186  14.807  0.00  0.00    +0.000 N 
ATOM      7  N   UNL     1      47.911   2.935  15.890  0.00  0.00    +0.000 NA
ATOM      8  C   UNL     1      48.957   2.827  16.752  0.00  0.00    +0.000 A 
ATOM      9  H   UNL     1      46.184   3.253  14.429  0.00  0.00    +0.000 HD
BRANCH   2  11
ATOM     10  N   UNL     1      51.409   2.550  18.155  0.00  0.00    +0.000 N 
ATOM     11  C   UNL     1      50.660   3.682  18.328  0.00  0.00    +0.000 C 
ATOM     12  O   UNL     1      50.922   4.487  19.211  0.00  0.00    +0.000 OA
ATOM     13  H   UNL     1      52.223   2.455  18.748  0.00  0.00    +0.000 HD
ATOM     14  H   UNL     1      51.387   2.006  17.304  0.00  0.00    +0.000 HD
ENDBRANCH   2  11
ENDBRANCH   1   6
BRANCH   1  15
ATOM     15  C   UNL     1      45.062   4.917  12.809  0.00  0.00    +0.000 A 
ATOM     16  C   UNL     1      43.745   5.392  12.812  0.00  0.00    +0.000 A 
ATOM     17  C   UNL     1      42.911   5.153  11.723  0.00  0.00    +0.000 A 
ATOM     18  C   UNL     1      43.391   4.459  10.609  0.00  0.00    +0.000 A 
ATOM     19  C   UNL     1      44.714   3.988  10.553  0.00  0.00    +0.000 A 
ATOM     20  C   UNL     1      45.520   4.200  11.689  0.00  0.00    +0.000 A 
BRANCH  19  21
ATOM     21  C   UNL     1      45.280   3.397   9.316  0.00  0.00    +0.000 A 
ATOM     22  C   UNL     1      45.743   4.222   8.268  0.00  0.00    +0.000 A 
ATOM     23  C   UNL     1      46.381   3.694   7.140  0.00  0.00    +0.000 A 
ATOM     24  C   UNL     1      46.576   2.322   7.035  0.00  0.00    +0.000 A 
ATOM     25  C   UNL     1      46.110   1.494   8.047  0.00  0.00    +0.000 A 
ATOM     26  F   UNL     1      46.308   0.172   7.955  0.00  0.00    +0.000 F 
ATOM     27  C   UNL     1      45.461   2.011   9.166  0.00  0.00    +0.000 A 
ENDBRANCH  19  21
ENDBRANCH   1  15
TORSDOF 4
ENDMDL
MODEL 6
REMARK VINA RESULT:    -7.856      4.053      7.158
REMARK INTER + INTRA:         -10.604
REMARK INTER:                 -10.059
REMARK INTRA:                  -0.544
REMARK UNBOUND:                -0.911
REMARK  Name = 
REMARK  4 active torsions:
REMARK  status: ('A' for Active; 'I' for Inactive)
REMARK    1  A    between atoms: C_2  and  C_4
REMARK    2  A    between atoms: N_8  and  C_9
REMARK    3  A    between atoms: C_9  and  C_10
REMARK    4  A    between atoms: C_14  and  C_15
REMARK                            x       y       z     vdW  Elec       q    Type
REMARK                         _______ _______ _______ _____ _____    ______ ____
ROOT
ATOM      1  C   UNL     1      44.085   6.705  11.396  0.00  0.00    +0.000 C 
ENDROOT
BRANCH   1   6
ATOM      2  C   UNL     1      48.361   6.989  14.223  0.00  0.00    +0.000 A 
ATOM      3  C   UNL     1      47.487   5.920  14.058  0.00  0.00    +0.000 A 
ATOM      4  C   UNL     1      46.463   6.019  13.116  0.00  0.00    +0.000 A 
ATOM      5  C   UNL     1      46.315   7.184  12.370  0.00  0.00    +0.000 A 
ATOM      6  N   UNL     1      45.389   7.332  11.364  0.00  0.00    +0.000 N 
ATOM      7  N   UNL     1      47.148   8.227  12.536  0.00  0.00    +0.000 NA
ATOM      8  C   UNL     1      48.144   8.118  13.455  0.00  0.00    +0.000 A 
ATOM      9  H   UNL     1      45.412   8.298  11.053  0.00  0.00    +0.000 HD
BRANCH   2  11
ATOM     10  N   UNL     1      50.347   8.028  15.160  0.00  0.00    +0.000 N 
ATOM     11  C   UNL     1      49.494   6.957  15.170  0.00  0.00    +0.000 C 
ATOM     12  O   UNL     1      49.649   6.031  15.955  0.00  0.00    +0.000 OA
ATOM     13  H   UNL     1      51.060   8.041  15.878  0.00  0.00    +0.000 HD
ATOM     14  H   UNL     1      50.113   8.907  14.720  0.00  0.00    +0.000 HD
ENDBRANCH   2  11
ENDBRANCH   1   6
BRANCH   1  15
ATOM     15  C   UNL     1      44.132   5.210  11.197  0.00  0.00    +0.000 A 
ATOM     16  C   UNL     1      43.299   4.359  11.932  0.00  0.00    +0.000 A 
ATOM     17  C   UNL     1      43.259   2.997  11.646  0.00  0.00    +0.000 A 
ATOM     18  C   UNL     1      44.034   2.474  10.606  0.00  0.00    +0.000 A 
ATOM     19  C   UNL     1      44.864   3.297   9.826  0.00  0.00    +0.000 A 
ATOM     20  C   UNL     1      44.922   4.662  10.170  0.00  0.00    +0.000 A 
BRANCH  19  21
ATOM     21  C   UNL     1      45.561   2.785   8.621  0.00  0.00    +0.000 A 
ATOM     22  C   UNL     1      45.994   3.667   7.608  0.00  0.00    +0.000 A 
ATOM     23  C   UNL     1      46.749   3.224   6.516  0.00  0.00    +0.000 A 
ATOM     24  C   UNL     1      47.095   1.882   6.415  0.00  0.00    +0.000 A 
ATOM     25  C   UNL     1      46.662   0.996   7.391  0.00  0.00    +0.000 A 
ATOM     26  F   UNL     1      47.004  -0.296   7.303  0.00  0.00    +0.000 F 
ATOM     27  C   UNL     1      45.897   1.428   8.473  0.00  0.00    +0.000 A 
ENDBRANCH  19  21
ENDBRANCH   1  15
TORSDOF 4
ENDMDL
MODEL 7
REMARK VINA RESULT:    -7.827      4.158      7.340
REMARK INTER + INTRA:         -10.568
REMARK INTER:                 -10.216
REMARK INTRA:                  -0.352
REMARK UNBOUND:                -0.911
REMARK  Name = 
REMARK  4 active torsions:
REMARK  status: ('A' for Active; 'I' for Inactive)
REMARK    1  A    between atoms: C_2  and  C_4
REMARK    2  A    between atoms: N_8  and  C_9
REMARK    3  A    between atoms: C_9  and  C_10
REMARK    4  A    between atoms: C_14  and  C_15
REMARK                            x       y       z     vdW  Elec       q    Type
REMARK                         _______ _______ _______ _____ _____    ______ ____
ROOT
ATOM      1  C   UNL     1      45.052   6.909  11.429  0.00  0.00    +0.000 C 
ENDROOT
BRANCH   1   6
ATOM      2  C   UNL     1      47.913   5.473  15.442  0.00  0.00    +0.000 A 
ATOM      3  C   UNL     1      46.904   4.775  14.789  0.00  0.00    +0.000 A 
ATOM      4  C   UNL     1      46.360   5.303  13.618  0.00  0.00    +0.000 A 
ATOM      5  C   UNL     1      46.815   6.523  13.129  0.00  0.00    +0.000 A 
ATOM      6  N   UNL     1      46.396   7.072  11.940  0.00  0.00    +0.000 N 
ATOM      7  N   UNL     1      47.782   7.211  13.765  0.00  0.00    +0.000 NA
ATOM      8  C   UNL     1      48.306   6.685  14.903  0.00  0.00    +0.000 A 
ATOM      9  H   UNL     1      46.793   8.004  11.864  0.00  0.00    +0.000 HD
BRANCH   2  11
ATOM     10  N   UNL     1      47.767   4.694  17.739  0.00  0.00    +0.000 N 
ATOM     11  C   UNL     1      48.571   4.972  16.666  0.00  0.00    +0.000 C 
ATOM     12  O   UNL     1      49.778   4.779  16.712  0.00  0.00    +0.000 OA
ATOM     13  H   UNL     1      48.215   4.260  18.536  0.00  0.00    +0.000 HD
ATOM     14  H   UNL     1      46.765   4.597  17.658  0.00  0.00    +0.000 HD
ENDBRANCH   2  11
ENDBRANCH   1   6
BRANCH   1  15
ATOM     15  C   UNL     1      44.697   5.475  11.116  0.00  0.00    +0.000 A 
ATOM     16  C   UNL     1      43.579   4.867  11.697  0.00  0.00    +0.000 A 
ATOM     17  C   UNL     1      43.190   3.590  11.300  0.00  0.00    +0.000 A 
ATOM     18  C   UNL     1      43.900   2.918  10.301  0.00  0.00    +0.000 A 
ATOM     19  C   UNL     1      45.012   3.503   9.672  0.00  0.00    +0.000 A 
ATOM     20  C   UNL     1      45.413   4.774  10.128  0.00  0.00    +0.000 A 
BRANCH  19  21
ATOM     21  C   UNL     1      45.670   2.871   8.503  0.00  0.00    +0.000 A 
ATOM     22  C   UNL     1      46.096   3.650   7.406  0.00  0.00    +0.000 A 
ATOM     23  C   UNL     1      46.816   3.096   6.341  0.00  0.00    +0.000 A 
ATOM     24  C   UNL     1      47.131   1.743   6.352  0.00  0.00    +0.000 A 
ATOM     25  C   UNL     1      46.704   0.957   7.412  0.00  0.00    +0.000 A 
ATOM     26  F   UNL     1      47.018  -0.346   7.432  0.00  0.00    +0.000 F 
ATOM     27  C   UNL     1      45.974   1.499   8.469  0.00  0.00    +0.000 A 
ENDBRANCH  19  21
ENDBRANCH   1  15
TORSDOF 4
ENDMDL
MODEL 8
REMARK VINA RESULT:    -7.628      3.934      7.183
REMARK INTER + INTRA:         -10.322
REMARK INTER:                  -9.426
REMARK INTRA:                  -0.897
REMARK UNBOUND:                -0.911
REMARK  Name = 
REMARK  4 active torsions:
REMARK  status: ('A' for Active; 'I' for Inactive)
REMARK    1  A    between atoms: C_2  and  C_4
REMARK    2  A    between atoms: N_8  and  C_9
REMARK    3  A    between atoms: C_9  and  C_10
REMARK    4  A    between atoms: C_14  and  C_15
REMARK                            x       y       z     vdW  Elec       q    Type
REMARK                         _______ _______ _______ _____ _____    ______ ____
ROOT
ATOM      1  C   UNL     1      45.754   4.747  13.676  0.00  0.00    +0.000 C 
ENDROOT
BRANCH   1   6
ATOM      2  C   UNL     1      47.929   9.107  12.061  0.00  0.00    +0.000 A 
ATOM      3  C   UNL     1      46.753   8.927  12.779  0.00  0.00    +0.000 A 
ATOM      4  C   UNL     1      46.429   7.652  13.243  0.00  0.00    +0.000 A 
ATOM      5  C   UNL     1      47.270   6.578  12.970  0.00  0.00    +0.000 A 
ATOM      6  N   UNL     1      47.070   5.309  13.461  0.00  0.00    +0.000 N 
ATOM      7  N   UNL     1      48.402   6.743  12.262  0.00  0.00    +0.000 NA
ATOM      8  C   UNL     1      48.709   7.991  11.817  0.00  0.00    +0.000 A 
ATOM      9  H   UNL     1      47.755   4.693  13.034  0.00  0.00    +0.000 HD
BRANCH   2  11
ATOM     10  N   UNL     1      47.465  11.451  11.623  0.00  0.00    +0.000 N 
ATOM     11  C   UNL     1      48.370  10.426  11.563  0.00  0.00    +0.000 C 
ATOM     12  O   UNL     1      49.505  10.608  11.145  0.00  0.00    +0.000 OA
ATOM     13  H   UNL     1      47.807  12.369  11.371  0.00  0.00    +0.000 HD
ATOM     14  H   UNL     1      46.626  11.405  12.184  0.00  0.00    +0.000 HD
ENDBRANCH   2  11
ENDBRANCH   1   6
BRANCH   1  15
ATOM     15  C   UNL     1      44.952   4.591  12.407  0.00  0.00    +0.000 A 
ATOM     16  C   UNL     1      43.757   5.295  12.219  0.00  0.00    +0.000 A 
ATOM     17  C   UNL     1      43.097   5.242  10.994  0.00  0.00    +0.000 A 
ATOM     18  C   UNL     1      43.637   4.506   9.936  0.00  0.00    +0.000 A 
ATOM     19  C   UNL     1      44.849   3.807  10.073  0.00  0.00    +0.000 A 
ATOM     20  C   UNL     1      45.469   3.837  11.338  0.00  0.00    +0.000 A 
BRANCH  19  21
ATOM     21  C   UNL     1      45.513   3.161   8.914  0.00  0.00    +0.000 A 
ATOM     22  C   UNL     1      46.059   3.937   7.870  0.00  0.00    +0.000 A 
ATOM     23  C   UNL     1      46.785   3.359   6.823  0.00  0.00    +0.000 A 
ATOM     24  C   UNL     1      46.986   1.985   6.798  0.00  0.00    +0.000 A 
ATOM     25  C   UNL     1      46.440   1.203   7.806  0.00  0.00    +0.000 A 
ATOM     26  F   UNL     1      46.643  -0.121   7.792  0.00  0.00    +0.000 F 
ATOM     27  C   UNL     1      45.703   1.770   8.844  0.00  0.00    +0.000 A 
ENDBRANCH  19  21
ENDBRANCH   1  15
TORSDOF 4
ENDMDL
MODEL 9
REMARK VINA RESULT:    -6.993      4.956      7.994
REMARK INTER + INTRA:          -9.539
REMARK INTER:                  -8.972
REMARK INTRA:                  -0.567
REMARK UNBOUND:                -0.911
REMARK  Name = 
REMARK  4 active torsions:
REMARK  status: ('A' for Active; 'I' for Inactive)
REMARK    1  A    between atoms: C_2  and  C_4
REMARK    2  A    between atoms: N_8  and  C_9
REMARK    3  A    between atoms: C_9  and  C_10
REMARK    4  A    between atoms: C_14  and  C_15
REMARK                            x       y       z     vdW  Elec       q    Type
REMARK                         _______ _______ _______ _____ _____    ______ ____
ROOT
ATOM      1  C   UNL     1      45.764   7.047  12.848  0.00  0.00    +0.000 C 
ENDROOT
BRANCH   1   6
ATOM      2  C   UNL     1      50.083   8.728  15.057  0.00  0.00    +0.000 A 
ATOM      3  C   UNL     1      48.884   9.400  14.849  0.00  0.00    +0.000 A 
ATOM      4  C   UNL     1      47.785   8.694  14.360  0.00  0.00    +0.000 A 
ATOM      5  C   UNL     1      47.902   7.338  14.070  0.00  0.00    +0.000 A 
ATOM      6  N   UNL     1      46.849   6.551  13.669  0.00  0.00    +0.000 N 
ATOM      7  N   UNL     1      49.064   6.685  14.256  0.00  0.00    +0.000 NA
ATOM      8  C   UNL     1      50.128   7.383  14.735  0.00  0.00    +0.000 A 
ATOM      9  H   UNL     1      47.214   5.636  13.421  0.00  0.00    +0.000 HD
BRANCH   2  11
ATOM     10  N   UNL     1      52.438   9.295  14.872  0.00  0.00    +0.000 N 
ATOM     11  C   UNL     1      51.286   9.387  15.605  0.00  0.00    +0.000 C 
ATOM     12  O   UNL     1      51.250  10.018  16.653  0.00  0.00    +0.000 OA
ATOM     13  H   UNL     1      53.228   9.830  15.208  0.00  0.00    +0.000 HD
ATOM     14  H   UNL     1      52.446   9.010  13.903  0.00  0.00    +0.000 HD
ENDBRANCH   2  11
ENDBRANCH   1   6
BRANCH   1  15
ATOM     15  C   UNL     1      44.949   5.952  12.205  0.00  0.00    +0.000 A 
ATOM     16  C   UNL     1      43.591   5.794  12.505  0.00  0.00    +0.000 A 
ATOM     17  C   UNL     1      42.822   4.866  11.808  0.00  0.00    +0.000 A 
ATOM     18  C   UNL     1      43.395   4.103  10.787  0.00  0.00    +0.000 A 
ATOM     19  C   UNL     1      44.748   4.249  10.435  0.00  0.00    +0.000 A 
ATOM     20  C   UNL     1      45.514   5.159  11.189  0.00  0.00    +0.000 A 
BRANCH  19  21
ATOM     21  C   UNL     1      45.324   3.567   9.250  0.00  0.00    +0.000 A 
ATOM     22  C   UNL     1      45.887   4.312   8.191  0.00  0.00    +0.000 A 
ATOM     23  C   UNL     1      46.534   3.693   7.116  0.00  0.00    +0.000 A 
ATOM     24  C   UNL     1      46.637   2.308   7.076  0.00  0.00    +0.000 A 
ATOM     25  C   UNL     1      46.073   1.559   8.098  0.00  0.00    +0.000 A 
ATOM     26  F   UNL     1      46.182   0.223   8.070  0.00  0.00    +0.000 F 
ATOM     27  C   UNL     1      45.414   2.167   9.165  0.00  0.00    +0.000 A 
ENDBRANCH  19  21
ENDBRANCH   1  15
TORSDOF 4
ENDMDL
