MODEL 1
REMARK VINA RESULT:    -9.002      0.000      0.000
REMARK INTER + INTRA:         -12.730
REMARK INTER:                 -11.633
REMARK INTRA:                  -1.097
REMARK UNBOUND:                -1.097
REMARK  Name = 
REMARK  8 active torsions:
REMARK  status: ('A' for Active; 'I' for Inactive)
REMARK    1  A    between atoms: C_1  and  C_2
REMARK    2  A    between atoms: C_4  and  C_5
REMARK    3  A    between atoms: C_9  and  C_10
REMARK    4  A    between atoms: C_10  and  C_11
REMARK    5  A    between atoms: C_10  and  C_12
REMARK    6  A    between atoms: C_10  and  C_13
REMARK    7  A    between atoms: C_13  and  N_14
REMARK    8  A    between atoms: C_18  and  C_19
REMARK                            x       y       z     vdW  Elec       q    Type
REMARK                         _______ _______ _______ _____ _____    ______ ____
ROOT
ATOM      1  C   UNL     1      43.642   4.671  11.797  0.00  0.00    +0.000 C 
ATOM      2  C   UNL     1      43.582   3.442  12.738  0.00  0.00    +0.000 C 
ATOM      3  C   UNL     1      42.445   5.602  12.086  0.00  0.00    +0.000 C 
ENDROOT
BRANCH   1   8
ATOM      4  C   UNL     1      46.899   5.773  13.594  0.00  0.00    +0.000 A 
ATOM      5  C   UNL     1      47.512   6.533  12.586  0.00  0.00    +0.000 A 
ATOM      6  C   UNL     1      46.865   6.780  11.376  0.00  0.00    +0.000 A 
ATOM      7  C   UNL     1      45.609   6.231  11.122  0.00  0.00    +0.000 A 
ATOM      8  C   UNL     1      44.966   5.430  12.077  0.00  0.00    +0.000 A 
ATOM      9  C   UNL     1      45.612   5.267  13.319  0.00  0.00    +0.000 A 
BRANCH   4  13
ATOM     10  C   UNL     1      47.600   2.839  17.620  0.00  0.00    +0.000 C 
ATOM     11  C   UNL     1      47.937   4.056  16.814  0.00  0.00    +0.000 A 
ATOM     12  C   UNL     1      47.287   4.315  15.610  0.00  0.00    +0.000 A 
ATOM     13  C   UNL     1      47.583   5.474  14.876  0.00  0.00    +0.000 A 
ATOM     14  C   UNL     1      48.561   6.321  15.408  0.00  0.00    +0.000 A 
ATOM     15  C   UNL     1      49.178   5.982  16.603  0.00  0.00    +0.000 A 
ATOM     16  N   UNL     1      48.884   4.877  17.317  0.00  0.00    +0.000 NA
ENDBRANCH   4  13
ENDBRANCH   1   8
BRANCH   1  17
ATOM     17  C   UNL     1      43.564   4.165  10.325  0.00  0.00    +0.000 C 
BRANCH  17  18
ATOM     18  N   UNL     1      44.053   2.790  10.141  0.00  0.00    +0.000 N 
ATOM     19  C   UNL     1      44.981   2.688   9.088  0.00  0.00    +0.000 A 
ATOM     20  C   UNL     1      45.521   1.440   8.791  0.00  0.00    +0.000 A 
ATOM     21  C   UNL     1      46.430   1.320   7.740  0.00  0.00    +0.000 A 
ATOM     22  C   UNL     1      46.788   2.449   7.002  0.00  0.00    +0.000 A 
ATOM     23  C   UNL     1      46.219   3.653   7.379  0.00  0.00    +0.000 A 
ATOM     24  N   UNL     1      45.338   3.788   8.398  0.00  0.00    +0.000 NA
ATOM     25  H   UNL     1      43.302   2.132   9.951  0.00  0.00    +0.000 HD
BRANCH  22  26
ATOM     26  C   UNL     1      47.734   2.320   5.869  0.00  0.00    +0.000 C 
ATOM     27  N   UNL     1      47.672   3.225   4.844  0.00  0.00    +0.000 N 
ATOM     28  O   UNL     1      48.558   1.415   5.836  0.00  0.00    +0.000 OA
ATOM     29  H   UNL     1      47.035   4.002   4.770  0.00  0.00    +0.000 HD
ATOM     30  H   UNL     1      48.333   3.093   4.089  0.00  0.00    +0.000 HD
ENDBRANCH  22  26
ENDBRANCH  17  18
ENDBRANCH   1  17
TORSDOF 5
ENDMDL
MODEL 2
REMARK VINA RESULT:    -8.589      2.381      3.666
REMARK INTER + INTRA:         -12.196
REMARK INTER:                 -11.060
REMARK INTRA:                  -1.137
REMARK UNBOUND:                -1.097
REMARK  Name = 
REMARK  8 active torsions:
REMARK  status: ('A' for Active; 'I' for Inactive)
REMARK    1  A    between atoms: C_1  and  C_2
REMARK    2  A    between atoms: C_4  and  C_5
REMARK    3  A    between atoms: C_9  and  C_10
REMARK    4  A    between atoms: C_10  and  C_11
REMARK    5  A    between atoms: C_10  and  C_12
REMARK    6  A    between atoms: C_10  and  C_13
REMARK    7  A    between atoms: C_13  and  N_14
REMARK    8  A    between atoms: C_18  and  C_19
REMARK                            x       y       z     vdW  Elec       q    Type
REMARK                         _______ _______ _______ _____ _____    ______ ____
ROOT
ATOM      1  C   UNL     1      43.796   5.840  11.675  0.00  0.00    +0.000 C 
ATOM      2  C   UNL     1      42.866   5.100  12.668  0.00  0.00    +0.000 C 
ATOM      3  C   UNL     1      43.399   7.331  11.611  0.00  0.00    +0.000 C 
ENDROOT
BRANCH   1   8
ATOM      4  C   UNL     1      47.508   6.737  12.357  0.00  0.00    +0.000 A 
ATOM      5  C   UNL     1      47.850   5.751  13.294  0.00  0.00    +0.000 A 
ATOM      6  C   UNL     1      46.949   4.746  13.644  0.00  0.00    +0.000 A 
ATOM      7  C   UNL     1      45.663   4.731  13.104  0.00  0.00    +0.000 A 
ATOM      8  C   UNL     1      45.253   5.716  12.193  0.00  0.00    +0.000 A 
ATOM      9  C   UNL     1      46.215   6.669  11.801  0.00  0.00    +0.000 A 
BRANCH   4  13
ATOM     10  C   UNL     1      52.097   8.350  11.071  0.00  0.00    +0.000 C 
ATOM     11  C   UNL     1      50.651   8.615  11.361  0.00  0.00    +0.000 A 
ATOM     12  C   UNL     1      49.789   7.572  11.693  0.00  0.00    +0.000 A 
ATOM     13  C   UNL     1      48.443   7.831  11.996  0.00  0.00    +0.000 A 
ATOM     14  C   UNL     1      48.029   9.166  11.926  0.00  0.00    +0.000 A 
ATOM     15  C   UNL     1      48.944  10.144  11.568  0.00  0.00    +0.000 A 
ATOM     16  N   UNL     1      50.241   9.900  11.292  0.00  0.00    +0.000 NA
ENDBRANCH   4  13
ENDBRANCH   1   8
BRANCH   1  17
ATOM     17  C   UNL     1      43.624   5.196  10.267  0.00  0.00    +0.000 C 
BRANCH  17  18
ATOM     18  N   UNL     1      43.891   3.749  10.238  0.00  0.00    +0.000 N 
ATOM     19  C   UNL     1      44.850   3.401   9.269  0.00  0.00    +0.000 A 
ATOM     20  C   UNL     1      45.195   2.061   9.120  0.00  0.00    +0.000 A 
ATOM     21  C   UNL     1      46.131   1.698   8.152  0.00  0.00    +0.000 A 
ATOM     22  C   UNL     1      46.712   2.680   7.349  0.00  0.00    +0.000 A 
ATOM     23  C   UNL     1      46.327   3.989   7.578  0.00  0.00    +0.000 A 
ATOM     24  N   UNL     1      45.422   4.360   8.515  0.00  0.00    +0.000 NA
ATOM     25  H   UNL     1      43.055   3.203  10.051  0.00  0.00    +0.000 HD
BRANCH  22  26
ATOM     26  C   UNL     1      47.688   2.294   6.303  0.00  0.00    +0.000 C 
ATOM     27  N   UNL     1      47.709   2.988   5.123  0.00  0.00    +0.000 N 
ATOM     28  O   UNL     1      48.465   1.364   6.478  0.00  0.00    +0.000 OA
ATOM     29  H   UNL     1      47.116   3.764   4.876  0.00  0.00    +0.000 HD
ATOM     30  H   UNL     1      48.388   2.685   4.437  0.00  0.00    +0.000 HD
ENDBRANCH  22  26
ENDBRANCH  17  18
ENDBRANCH   1  17
TORSDOF 5
ENDMDL
MODEL 3
REMARK VINA RESULT:    -8.161      2.407      3.228
REMARK INTER + INTRA:         -11.643
REMARK INTER:                 -10.718
REMARK INTRA:                  -0.925
REMARK UNBOUND:                -1.097
REMARK  Name = 
REMARK  8 active torsions:
REMARK  status: ('A' for Active; 'I' for Inactive)
REMARK    1  A    between atoms: C_1  and  C_2
REMARK    2  A    between atoms: C_4  and  C_5
REMARK    3  A    between atoms: C_9  and  C_10
REMARK    4  A    between atoms: C_10  and  C_11
REMARK    5  A    between atoms: C_10  and  C_12
REMARK    6  A    between atoms: C_10  and  C_13
REMARK    7  A    between atoms: C_13  and  N_14
REMARK    8  A    between atoms: C_18  and  C_19
REMARK                            x       y       z     vdW  Elec       q    Type
REMARK                         _______ _______ _______ _____ _____    ______ ____
ROOT
ATOM      1  C   UNL     1      44.161   5.167  12.013  0.00  0.00    +0.000 C 
ATOM      2  C   UNL     1      45.229   4.192  12.568  0.00  0.00    +0.000 C 
ATOM      3  C   UNL     1      42.918   5.147  12.929  0.00  0.00    +0.000 C 
ENDROOT
BRANCH   1   8
ATOM      4  C   UNL     1      46.801   8.003  12.207  0.00  0.00    +0.000 A 
ATOM      5  C   UNL     1      46.052   9.092  11.737  0.00  0.00    +0.000 A 
ATOM      6  C   UNL     1      44.695   8.963  11.447  0.00  0.00    +0.000 A 
ATOM      7  C   UNL     1      44.062   7.727  11.571  0.00  0.00    +0.000 A 
ATOM      8  C   UNL     1      44.769   6.594  11.999  0.00  0.00    +0.000 A 
ATOM      9  C   UNL     1      46.120   6.778  12.360  0.00  0.00    +0.000 A 
BRANCH   4  13
ATOM     10  C   UNL     1      51.601   7.753  10.722  0.00  0.00    +0.000 C 
ATOM     11  C   UNL     1      50.571   8.010  11.779  0.00  0.00    +0.000 A 
ATOM     12  C   UNL     1      49.212   7.905  11.489  0.00  0.00    +0.000 A 
ATOM     13  C   UNL     1      48.253   8.114  12.492  0.00  0.00    +0.000 A 
ATOM     14  C   UNL     1      48.735   8.444  13.763  0.00  0.00    +0.000 A 
ATOM     15  C   UNL     1      50.102   8.548  13.967  0.00  0.00    +0.000 A 
ATOM     16  N   UNL     1      51.026   8.333  13.008  0.00  0.00    +0.000 NA
ENDBRANCH   4  13
ENDBRANCH   1   8
BRANCH   1  17
ATOM     17  C   UNL     1      43.760   4.693  10.584  0.00  0.00    +0.000 C 
BRANCH  17  18
ATOM     18  N   UNL     1      44.002   3.262  10.342  0.00  0.00    +0.000 N 
ATOM     19  C   UNL     1      44.926   3.043   9.303  0.00  0.00    +0.000 A 
ATOM     20  C   UNL     1      45.244   1.733   8.955  0.00  0.00    +0.000 A 
ATOM     21  C   UNL     1      46.145   1.500   7.916  0.00  0.00    +0.000 A 
ATOM     22  C   UNL     1      46.718   2.579   7.242  0.00  0.00    +0.000 A 
ATOM     23  C   UNL     1      46.361   3.847   7.666  0.00  0.00    +0.000 A 
ATOM     24  N   UNL     1      45.491   4.092   8.674  0.00  0.00    +0.000 NA
ATOM     25  H   UNL     1      43.152   2.758  10.106  0.00  0.00    +0.000 HD
BRANCH  22  26
ATOM     26  C   UNL     1      47.655   2.334   6.121  0.00  0.00    +0.000 C 
ATOM     27  N   UNL     1      47.656   3.191   5.054  0.00  0.00    +0.000 N 
ATOM     28  O   UNL     1      48.417   1.375   6.135  0.00  0.00    +0.000 OA
ATOM     29  H   UNL     1      47.073   4.005   4.940  0.00  0.00    +0.000 HD
ATOM     30  H   UNL     1      48.309   2.980   4.310  0.00  0.00    +0.000 HD
ENDBRANCH  22  26
ENDBRANCH  17  18
ENDBRANCH   1  17
TORSDOF 5
ENDMDL
MODEL 4
REMARK VINA RESULT:    -7.679      3.227      8.655
REMARK INTER + INTRA:         -11.021
REMARK INTER:                 -10.244
REMARK INTRA:                  -0.777
REMARK UNBOUND:                -1.097
REMARK  Name = 
REMARK  8 active torsions:
REMARK  status: ('A' for Active; 'I' for Inactive)
REMARK    1  A    between atoms: C_1  and  C_2
REMARK    2  A    between atoms: C_4  and  C_5
REMARK    3  A    between atoms: C_9  and  C_10
REMARK    4  A    between atoms: C_10  and  C_11
REMARK    5  A    between atoms: C_10  and  C_12
REMARK    6  A    between atoms: C_10  and  C_13
REMARK    7  A    between atoms: C_13  and  N_14
REMARK    8  A    between atoms: C_18  and  C_19
REMARK                            x       y       z     vdW  Elec       q    Type
REMARK                         _______ _______ _______ _____ _____    ______ ____
ROOT
ATOM      1  C   UNL     1      46.437   6.871  12.173  0.00  0.00    +0.000 C 
ATOM      2  C   UNL     1      47.629   7.317  11.291  0.00  0.00    +0.000 C 
ATOM      3  C   UNL     1      45.696   8.116  12.706  0.00  0.00    +0.000 C 
ENDROOT
BRANCH   1   8
ATOM      4  C   UNL     1      45.216   4.373   9.467  0.00  0.00    +0.000 A 
ATOM      5  C   UNL     1      43.860   4.256   9.810  0.00  0.00    +0.000 A 
ATOM      6  C   UNL     1      43.304   5.028  10.828  0.00  0.00    +0.000 A 
ATOM      7  C   UNL     1      44.102   5.903  11.566  0.00  0.00    +0.000 A 
ATOM      8  C   UNL     1      45.472   6.032  11.295  0.00  0.00    +0.000 A 
ATOM      9  C   UNL     1      45.984   5.296  10.206  0.00  0.00    +0.000 A 
BRANCH   4  13
ATOM     10  C   UNL     1      46.668  -0.105   7.692  0.00  0.00    +0.000 C 
ATOM     11  C   UNL     1      46.522   1.379   7.538  0.00  0.00    +0.000 A 
ATOM     12  C   UNL     1      45.935   2.144   8.543  0.00  0.00    +0.000 A 
ATOM     13  C   UNL     1      45.831   3.537   8.407  0.00  0.00    +0.000 A 
ATOM     14  C   UNL     1      46.324   4.090   7.221  0.00  0.00    +0.000 A 
ATOM     15  C   UNL     1      46.876   3.258   6.259  0.00  0.00    +0.000 A 
ATOM     16  N   UNL     1      46.991   1.922   6.394  0.00  0.00    +0.000 NA
ENDBRANCH   4  13
ENDBRANCH   1   8
BRANCH   1  17
ATOM     17  C   UNL     1      46.995   6.046  13.371  0.00  0.00    +0.000 C 
BRANCH  17  18
ATOM     18  N   UNL     1      47.988   6.770  14.181  0.00  0.00    +0.000 N 
ATOM     19  C   UNL     1      48.263   6.120  15.398  0.00  0.00    +0.000 A 
ATOM     20  C   UNL     1      49.178   6.698  16.274  0.00  0.00    +0.000 A 
ATOM     21  C   UNL     1      49.449   6.074  17.491  0.00  0.00    +0.000 A 
ATOM     22  C   UNL     1      48.803   4.881  17.816  0.00  0.00    +0.000 A 
ATOM     23  C   UNL     1      47.924   4.366  16.879  0.00  0.00    +0.000 A 
ATOM     24  N   UNL     1      47.652   4.956  15.691  0.00  0.00    +0.000 NA
ATOM     25  H   UNL     1      47.695   7.718  14.399  0.00  0.00    +0.000 HD
BRANCH  22  26
ATOM     26  C   UNL     1      49.069   4.229  19.121  0.00  0.00    +0.000 C 
ATOM     27  N   UNL     1      48.356   3.114  19.466  0.00  0.00    +0.000 N 
ATOM     28  O   UNL     1      49.909   4.680  19.890  0.00  0.00    +0.000 OA
ATOM     29  H   UNL     1      47.645   2.664  18.911  0.00  0.00    +0.000 HD
ATOM     30  H   UNL     1      48.567   2.708  20.368  0.00  0.00    +0.000 HD
ENDBRANCH  22  26
ENDBRANCH  17  18
ENDBRANCH   1  17
TORSDOF 5
ENDMDL
MODEL 5
REMARK VINA RESULT:    -7.275      3.347      7.919
REMARK INTER + INTRA:         -10.498
REMARK INTER:                  -9.309
REMARK INTRA:                  -1.188
REMARK UNBOUND:                -1.097
REMARK  Name = 
REMARK  8 active torsions:
REMARK  status: ('A' for Active; 'I' for Inactive)
REMARK    1  A    between atoms: C_1  and  C_2
REMARK    2  A    between atoms: C_4  and  C_5
REMARK    3  A    between atoms: C_9  and  C_10
REMARK    4  A    between atoms: C_10  and  C_11
REMARK    5  A    between atoms: C_10  and  C_12
REMARK    6  A    between atoms: C_10  and  C_13
REMARK    7  A    between atoms: C_13  and  N_14
REMARK    8  A    between atoms: C_18  and  C_19
REMARK                            x       y       z     vdW  Elec       q    Type
REMARK                         _______ _______ _______ _____ _____    ______ ____
ROOT
ATOM      1  C   UNL     1      48.543   9.024  12.681  0.00  0.00    +0.000 C 
ATOM      2  C   UNL     1      49.410   9.623  11.546  0.00  0.00    +0.000 C 
ATOM      3  C   UNL     1      48.546   9.982  13.892  0.00  0.00    +0.000 C 
ENDROOT
BRANCH   1   8
ATOM      4  C   UNL     1      45.185   7.343  11.709  0.00  0.00    +0.000 A 
ATOM      5  C   UNL     1      44.385   8.471  11.471  0.00  0.00    +0.000 A 
ATOM      6  C   UNL     1      44.920   9.758  11.521  0.00  0.00    +0.000 A 
ATOM      7  C   UNL     1      46.258   9.953  11.863  0.00  0.00    +0.000 A 
ATOM      8  C   UNL     1      47.095   8.865  12.151  0.00  0.00    +0.000 A 
ATOM      9  C   UNL     1      46.542   7.575  12.012  0.00  0.00    +0.000 A 
BRANCH   4  13
ATOM     10  C   UNL     1      44.511   2.908   9.433  0.00  0.00    +0.000 C 
ATOM     11  C   UNL     1      44.310   3.821  10.604  0.00  0.00    +0.000 A 
ATOM     12  C   UNL     1      44.848   5.106  10.604  0.00  0.00    +0.000 A 
ATOM     13  C   UNL     1      44.627   5.969  11.690  0.00  0.00    +0.000 A 
ATOM     14  C   UNL     1      43.869   5.462  12.750  0.00  0.00    +0.000 A 
ATOM     15  C   UNL     1      43.386   4.164  12.683  0.00  0.00    +0.000 A 
ATOM     16  N   UNL     1      43.583   3.339  11.635  0.00  0.00    +0.000 NA
ENDBRANCH   4  13
ENDBRANCH   1   8
BRANCH   1  17
ATOM     17  C   UNL     1      49.161   7.657  13.100  0.00  0.00    +0.000 C 
BRANCH  17  18
ATOM     18  N   UNL     1      49.700   7.641  14.469  0.00  0.00    +0.000 N 
ATOM     19  C   UNL     1      49.143   6.614  15.253  0.00  0.00    +0.000 A 
ATOM     20  C   UNL     1      49.552   6.485  16.577  0.00  0.00    +0.000 A 
ATOM     21  C   UNL     1      48.997   5.482  17.371  0.00  0.00    +0.000 A 
ATOM     22  C   UNL     1      48.042   4.619  16.830  0.00  0.00    +0.000 A 
ATOM     23  C   UNL     1      47.709   4.806  15.499  0.00  0.00    +0.000 A 
ATOM     24  N   UNL     1      48.240   5.772  14.713  0.00  0.00    +0.000 NA
ATOM     25  H   UNL     1      49.544   8.518  14.959  0.00  0.00    +0.000 HD
BRANCH  22  26
ATOM     26  C   UNL     1      47.432   3.569  17.678  0.00  0.00    +0.000 C 
ATOM     27  N   UNL     1      48.056   3.206  18.841  0.00  0.00    +0.000 N 
ATOM     28  O   UNL     1      46.387   3.022  17.349  0.00  0.00    +0.000 OA
ATOM     29  H   UNL     1      48.915   3.588  19.203  0.00  0.00    +0.000 HD
ATOM     30  H   UNL     1      47.605   2.480  19.384  0.00  0.00    +0.000 HD
ENDBRANCH  22  26
ENDBRANCH  17  18
ENDBRANCH   1  17
TORSDOF 5
ENDMDL
MODEL 6
REMARK VINA RESULT:    -7.212      3.165      8.668
REMARK INTER + INTRA:         -10.416
REMARK INTER:                  -9.568
REMARK INTRA:                  -0.848
REMARK UNBOUND:                -1.097
REMARK  Name = 
REMARK  8 active torsions:
REMARK  status: ('A' for Active; 'I' for Inactive)
REMARK    1  A    between atoms: C_1  and  C_2
REMARK    2  A    between atoms: C_4  and  C_5
REMARK    3  A    between atoms: C_9  and  C_10
REMARK    4  A    between atoms: C_10  and  C_11
REMARK    5  A    between atoms: C_10  and  C_12
REMARK    6  A    between atoms: C_10  and  C_13
REMARK    7  A    between atoms: C_13  and  N_14
REMARK    8  A    between atoms: C_18  and  C_19
REMARK                            x       y       z     vdW  Elec       q    Type
REMARK                         _______ _______ _______ _____ _____    ______ ____
ROOT
ATOM      1  C   UNL     1      45.621   5.659  12.259  0.00  0.00    +0.000 C 
ATOM      2  C   UNL     1      46.151   6.629  11.173  0.00  0.00    +0.000 C 
ATOM      3  C   UNL     1      44.593   6.392  13.147  0.00  0.00    +0.000 C 
ENDROOT
BRANCH   1   8
ATOM      4  C   UNL     1      45.045   2.748   9.761  0.00  0.00    +0.000 A 
ATOM      5  C   UNL     1      43.926   2.126  10.335  0.00  0.00    +0.000 A 
ATOM      6  C   UNL     1      43.292   2.670  11.450  0.00  0.00    +0.000 A 
ATOM      7  C   UNL     1      43.792   3.824  12.053  0.00  0.00    +0.000 A 
ATOM      8  C   UNL     1      44.932   4.466  11.548  0.00  0.00    +0.000 A 
ATOM      9  C   UNL     1      45.500   3.934  10.371  0.00  0.00    +0.000 A 
BRANCH   4  13
ATOM     10  C   UNL     1      47.141   3.225   5.212  0.00  0.00    +0.000 C 
ATOM     11  C   UNL     1      46.777   2.392   6.404  0.00  0.00    +0.000 A 
ATOM     12  C   UNL     1      46.119   2.959   7.493  0.00  0.00    +0.000 A 
ATOM     13  C   UNL     1      45.751   2.167   8.592  0.00  0.00    +0.000 A 
ATOM     14  C   UNL     1      46.094   0.812   8.533  0.00  0.00    +0.000 A 
ATOM     15  C   UNL     1      46.766   0.328   7.421  0.00  0.00    +0.000 A 
ATOM     16  N   UNL     1      47.108   1.084   6.358  0.00  0.00    +0.000 NA
ENDBRANCH   4  13
ENDBRANCH   1   8
BRANCH   1  17
ATOM     17  C   UNL     1      46.826   5.197  13.133  0.00  0.00    +0.000 C 
BRANCH  17  18
ATOM     18  N   UNL     1      46.461   4.244  14.193  0.00  0.00    +0.000 N 
ATOM     19  C   UNL     1      47.208   4.439  15.369  0.00  0.00    +0.000 A 
ATOM     20  C   UNL     1      46.977   3.601  16.456  0.00  0.00    +0.000 A 
ATOM     21  C   UNL     1      47.722   3.771  17.623  0.00  0.00    +0.000 A 
ATOM     22  C   UNL     1      48.685   4.779  17.689  0.00  0.00    +0.000 A 
ATOM     23  C   UNL     1      48.835   5.579  16.569  0.00  0.00    +0.000 A 
ATOM     24  N   UNL     1      48.118   5.430  15.430  0.00  0.00    +0.000 NA
ATOM     25  H   UNL     1      46.587   3.277  13.907  0.00  0.00    +0.000 HD
BRANCH  22  26
ATOM     26  C   UNL     1      49.495   4.945  18.918  0.00  0.00    +0.000 C 
ATOM     27  N   UNL     1      49.214   4.171  20.011  0.00  0.00    +0.000 N 
ATOM     28  O   UNL     1      50.401   5.767  18.968  0.00  0.00    +0.000 OA
ATOM     29  H   UNL     1      48.493   3.470  20.078  0.00  0.00    +0.000 HD
ATOM     30  H   UNL     1      49.790   4.325  20.829  0.00  0.00    +0.000 HD
ENDBRANCH  22  26
ENDBRANCH  17  18
ENDBRANCH   1  17
TORSDOF 5
ENDMDL
MODEL 7
REMARK VINA RESULT:    -7.164      3.534      8.862
REMARK INTER + INTRA:         -10.355
REMARK INTER:                  -9.483
REMARK INTRA:                  -0.871
REMARK UNBOUND:                -1.097
REMARK  Name = 
REMARK  8 active torsions:
REMARK  status: ('A' for Active; 'I' for Inactive)
REMARK    1  A    between atoms: C_1  and  C_2
REMARK    2  A    between atoms: C_4  and  C_5
REMARK    3  A    between atoms: C_9  and  C_10
REMARK    4  A    between atoms: C_10  and  C_11
REMARK    5  A    between atoms: C_10  and  C_12
REMARK    6  A    between atoms: C_10  and  C_13
REMARK    7  A    between atoms: C_13  and  N_14
REMARK    8  A    between atoms: C_18  and  C_19
REMARK                            x       y       z     vdW  Elec       q    Type
REMARK                         _______ _______ _______ _____ _____    ______ ____
ROOT
ATOM      1  C   UNL     1      48.722   7.954  12.624  0.00  0.00    +0.000 C 
ATOM      2  C   UNL     1      49.649   7.494  11.473  0.00  0.00    +0.000 C 
ATOM      3  C   UNL     1      48.990   9.442  12.939  0.00  0.00    +0.000 C 
ENDROOT
BRANCH   1   8
ATOM      4  C   UNL     1      45.552   6.316  11.101  0.00  0.00    +0.000 A 
ATOM      5  C   UNL     1      44.564   7.223  11.512  0.00  0.00    +0.000 A 
ATOM      6  C   UNL     1      44.898   8.398  12.184  0.00  0.00    +0.000 A 
ATOM      7  C   UNL     1      46.226   8.671  12.510  0.00  0.00    +0.000 A 
ATOM      8  C   UNL     1      47.252   7.781  12.161  0.00  0.00    +0.000 A 
ATOM      9  C   UNL     1      46.888   6.643  11.411  0.00  0.00    +0.000 A 
BRANCH   4  13
ATOM     10  C   UNL     1      45.802   3.296   7.085  0.00  0.00    +0.000 C 
ATOM     11  C   UNL     1      45.341   3.579   8.483  0.00  0.00    +0.000 A 
ATOM     12  C   UNL     1      45.676   4.774   9.114  0.00  0.00    +0.000 A 
ATOM     13  C   UNL     1      45.213   5.047  10.411  0.00  0.00    +0.000 A 
ATOM     14  C   UNL     1      44.432   4.060  11.019  0.00  0.00    +0.000 A 
ATOM     15  C   UNL     1      44.159   2.887  10.332  0.00  0.00    +0.000 A 
ATOM     16  N   UNL     1      44.590   2.630   9.080  0.00  0.00    +0.000 NA
ENDBRANCH   4  13
ENDBRANCH   1   8
BRANCH   1  17
ATOM     17  C   UNL     1      49.039   7.092  13.883  0.00  0.00    +0.000 C 
BRANCH  17  18
ATOM     18  N   UNL     1      48.858   7.808  15.156  0.00  0.00    +0.000 N 
ATOM     19  C   UNL     1      48.850   6.939  16.263  0.00  0.00    +0.000 A 
ATOM     20  C   UNL     1      48.676   7.477  17.535  0.00  0.00    +0.000 A 
ATOM     21  C   UNL     1      48.649   6.627  18.640  0.00  0.00    +0.000 A 
ATOM     22  C   UNL     1      48.800   5.252  18.460  0.00  0.00    +0.000 A 
ATOM     23  C   UNL     1      48.988   4.805  17.163  0.00  0.00    +0.000 A 
ATOM     24  N   UNL     1      49.020   5.616  16.079  0.00  0.00    +0.000 NA
ATOM     25  H   UNL     1      47.995   8.344  15.182  0.00  0.00    +0.000 HD
BRANCH  22  26
ATOM     26  C   UNL     1      48.746   4.344  19.630  0.00  0.00    +0.000 C 
ATOM     27  N   UNL     1      48.279   3.069  19.462  0.00  0.00    +0.000 N 
ATOM     28  O   UNL     1      49.104   4.723  20.738  0.00  0.00    +0.000 OA
ATOM     29  H   UNL     1      47.959   2.658  18.599  0.00  0.00    +0.000 HD
ATOM     30  H   UNL     1      48.255   2.488  20.290  0.00  0.00    +0.000 HD
ENDBRANCH  22  26
ENDBRANCH  17  18
ENDBRANCH   1  17
TORSDOF 5
ENDMDL
MODEL 8
REMARK VINA RESULT:    -6.643      2.687      5.153
REMARK INTER + INTRA:          -9.682
REMARK INTER:                  -8.681
REMARK INTRA:                  -1.001
REMARK UNBOUND:                -1.097
REMARK  Name = 
REMARK  8 active torsions:
REMARK  status: ('A' for Active; 'I' for Inactive)
REMARK    1  A    between atoms: C_1  and  C_2
REMARK    2  A    between atoms: C_4  and  C_5
REMARK    3  A    between atoms: C_9  and  C_10
REMARK    4  A    between atoms: C_10  and  C_11
REMARK    5  A    between atoms: C_10  and  C_12
REMARK    6  A    between atoms: C_10  and  C_13
REMARK    7  A    between atoms: C_13  and  N_14
REMARK    8  A    between atoms: C_18  and  C_19
REMARK                            x       y       z     vdW  Elec       q    Type
REMARK                         _______ _______ _______ _____ _____    ______ ____
ROOT
ATOM      1  C   UNL     1      48.433   8.500  13.187  0.00  0.00    +0.000 C 
ATOM      2  C   UNL     1      49.090   9.886  12.974  0.00  0.00    +0.000 C 
ATOM      3  C   UNL     1      49.243   7.424  12.432  0.00  0.00    +0.000 C 
ENDROOT
BRANCH   1   8
ATOM      4  C   UNL     1      48.915   6.531  16.495  0.00  0.00    +0.000 A 
ATOM      5  C   UNL     1      48.779   7.561  17.437  0.00  0.00    +0.000 A 
ATOM      6  C   UNL     1      48.443   8.856  17.046  0.00  0.00    +0.000 A 
ATOM      7  C   UNL     1      48.284   9.167  15.695  0.00  0.00    +0.000 A 
ATOM      8  C   UNL     1      48.448   8.186  14.706  0.00  0.00    +0.000 A 
ATOM      9  C   UNL     1      48.708   6.870  15.142  0.00  0.00    +0.000 A 
BRANCH   4  13
ATOM     10  C   UNL     1      52.345   3.223  18.108  0.00  0.00    +0.000 C 
ATOM     11  C   UNL     1      50.948   3.555  17.681  0.00  0.00    +0.000 A 
ATOM     12  C   UNL     1      50.604   4.856  17.320  0.00  0.00    +0.000 A 
ATOM     13  C   UNL     1      49.302   5.154  16.890  0.00  0.00    +0.000 A 
ATOM     14  C   UNL     1      48.391   4.093  16.865  0.00  0.00    +0.000 A 
ATOM     15  C   UNL     1      48.805   2.830  17.260  0.00  0.00    +0.000 A 
ATOM     16  N   UNL     1      50.059   2.539  17.659  0.00  0.00    +0.000 NA
ENDBRANCH   4  13
ENDBRANCH   1   8
BRANCH   1  17
ATOM     17  C   UNL     1      46.983   8.552  12.620  0.00  0.00    +0.000 C 
BRANCH  17  18
ATOM     18  N   UNL     1      46.051   7.624  13.281  0.00  0.00    +0.000 N 
ATOM     19  C   UNL     1      45.615   6.600  12.420  0.00  0.00    +0.000 A 
ATOM     20  C   UNL     1      44.719   5.653  12.908  0.00  0.00    +0.000 A 
ATOM     21  C   UNL     1      44.264   4.641  12.062  0.00  0.00    +0.000 A 
ATOM     22  C   UNL     1      44.712   4.588  10.742  0.00  0.00    +0.000 A 
ATOM     23  C   UNL     1      45.618   5.558  10.347  0.00  0.00    +0.000 A 
ATOM     24  N   UNL     1      46.073   6.544  11.155  0.00  0.00    +0.000 NA
ATOM     25  H   UNL     1      45.226   8.093  13.641  0.00  0.00    +0.000 HD
BRANCH  22  26
ATOM     26  C   UNL     1      44.211   3.530   9.835  0.00  0.00    +0.000 C 
ATOM     27  N   UNL     1      44.193   3.763   8.486  0.00  0.00    +0.000 N 
ATOM     28  O   UNL     1      43.808   2.461  10.276  0.00  0.00    +0.000 OA
ATOM     29  H   UNL     1      44.498   4.603   8.020  0.00  0.00    +0.000 HD
ATOM     30  H   UNL     1      43.837   3.014   7.907  0.00  0.00    +0.000 HD
ENDBRANCH  22  26
ENDBRANCH  17  18
ENDBRANCH   1  17
TORSDOF 5
ENDMDL
MODEL 9
REMARK VINA RESULT:    -6.373      3.352      5.644
REMARK INTER + INTRA:          -9.333
REMARK INTER:                  -8.309
REMARK INTRA:                  -1.024
REMARK UNBOUND:                -1.097
REMARK  Name = 
REMARK  8 active torsions:
REMARK  status: ('A' for Active; 'I' for Inactive)
REMARK    1  A    between atoms: C_1  and  C_2
REMARK    2  A    between atoms: C_4  and  C_5
REMARK    3  A    between atoms: C_9  and  C_10
REMARK    4  A    between atoms: C_10  and  C_11
REMARK    5  A    between atoms: C_10  and  C_12
REMARK    6  A    between atoms: C_10  and  C_13
REMARK    7  A    between atoms: C_13  and  N_14
REMARK    8  A    between atoms: C_18  and  C_19
REMARK                            x       y       z     vdW  Elec       q    Type
REMARK                         _______ _______ _______ _____ _____    ______ ____
ROOT
ATOM      1  C   UNL     1      49.370   8.327  12.984  0.00  0.00    +0.000 C 
ATOM      2  C   UNL     1      49.277   9.871  12.921  0.00  0.00    +0.000 C 
ATOM      3  C   UNL     1      50.023   7.797  11.688  0.00  0.00    +0.000 C 
ENDROOT
BRANCH   1   8
ATOM      4  C   UNL     1      50.478   6.620  16.287  0.00  0.00    +0.000 A 
ATOM      5  C   UNL     1      51.840   6.955  16.312  0.00  0.00    +0.000 A 
ATOM      6  C   UNL     1      52.395   7.793  15.347  0.00  0.00    +0.000 A 
ATOM      7  C   UNL     1      51.612   8.278  14.299  0.00  0.00    +0.000 A 
ATOM      8  C   UNL     1      50.253   7.944  14.200  0.00  0.00    +0.000 A 
ATOM      9  C   UNL     1      49.707   7.160  15.237  0.00  0.00    +0.000 A 
BRANCH   4  13
ATOM     10  C   UNL     1      47.316   2.899  17.498  0.00  0.00    +0.000 C 
ATOM     11  C   UNL     1      48.364   3.901  17.878  0.00  0.00    +0.000 A 
ATOM     12  C   UNL     1      48.920   4.746  16.920  0.00  0.00    +0.000 A 
ATOM     13  C   UNL     1      49.877   5.705  17.288  0.00  0.00    +0.000 A 
ATOM     14  C   UNL     1      50.240   5.743  18.638  0.00  0.00    +0.000 A 
ATOM     15  C   UNL     1      49.655   4.853  19.526  0.00  0.00    +0.000 A 
ATOM     16  N   UNL     1      48.725   3.942  19.178  0.00  0.00    +0.000 NA
ENDBRANCH   4  13
ENDBRANCH   1   8
BRANCH   1  17
ATOM     17  C   UNL     1      47.928   7.753  13.110  0.00  0.00    +0.000 C 
BRANCH  17  18
ATOM     18  N   UNL     1      47.279   7.482  11.818  0.00  0.00    +0.000 N 
ATOM     19  C   UNL     1      46.445   6.350  11.864  0.00  0.00    +0.000 A 
ATOM     20  C   UNL     1      45.772   5.966  10.707  0.00  0.00    +0.000 A 
ATOM     21  C   UNL     1      44.955   4.836  10.733  0.00  0.00    +0.000 A 
ATOM     22  C   UNL     1      44.819   4.107  11.914  0.00  0.00    +0.000 A 
ATOM     23  C   UNL     1      45.507   4.570  13.022  0.00  0.00    +0.000 A 
ATOM     24  N   UNL     1      46.302   5.667  13.016  0.00  0.00    +0.000 NA
ATOM     25  H   UNL     1      47.949   7.338  11.069  0.00  0.00    +0.000 HD
BRANCH  22  26
ATOM     26  C   UNL     1      43.972   2.891  11.938  0.00  0.00    +0.000 C 
ATOM     27  N   UNL     1      43.847   2.145  10.797  0.00  0.00    +0.000 N 
ATOM     28  O   UNL     1      43.381   2.555  12.956  0.00  0.00    +0.000 OA
ATOM     29  H   UNL     1      44.285   2.332   9.909  0.00  0.00    +0.000 HD
ATOM     30  H   UNL     1      43.253   1.327  10.859  0.00  0.00    +0.000 HD
ENDBRANCH  22  26
ENDBRANCH  17  18
ENDBRANCH   1  17
TORSDOF 5
ENDMDL
