MODEL 1
REMARK VINA RESULT:    -9.139      0.000      0.000
REMARK INTER + INTRA:         -12.637
REMARK INTER:                 -11.811
REMARK INTRA:                  -0.826
REMARK UNBOUND:                -0.826
REMARK  Name = 
REMARK  5 active torsions:
REMARK  status: ('A' for Active; 'I' for Inactive)
REMARK    1  A    between atoms: C_7  and  C_8
REMARK    2  A    between atoms: N_10  and  C_11
REMARK    3  A    between atoms: C_11  and  C_12
REMARK    4  A    between atoms: C_15  and  C_16
REMARK    5  A    between atoms: C_16  and  N_17
REMARK                            x       y       z     vdW  Elec       q    Type
REMARK                         _______ _______ _______ _____ _____    ______ ____
ROOT
ATOM      1  C   UNL     1      48.460   6.688  14.280  0.00  0.00    +0.000 C 
ATOM      2  O   UNL     1      49.170   6.659  13.272  0.00  0.00    +0.000 OA
ATOM      3  N   UNL     1      47.134   7.036  14.231  0.00  0.00    +0.000 N 
ATOM      4  H   UNL     1      46.568   7.001  15.072  0.00  0.00    +0.000 HD
ENDROOT
BRANCH   1  11
ATOM      5  N   UNL     1      48.328   3.179  20.020  0.00  0.00    +0.000 N 
ATOM      6  C   UNL     1      48.481   3.937  18.904  0.00  0.00    +0.000 A 
ATOM      7  N   UNL     1      49.419   4.840  18.846  0.00  0.00    +0.000 NA
ATOM      8  C   UNL     1      49.448   5.523  17.678  0.00  0.00    +0.000 A 
ATOM      9  N   UNL     1      50.352   6.506  17.408  0.00  0.00    +0.000 N 
ATOM     10  C   UNL     1      50.098   7.010  16.159  0.00  0.00    +0.000 A 
ATOM     11  C   UNL     1      49.006   6.347  15.600  0.00  0.00    +0.000 A 
ATOM     12  C   UNL     1      48.628   5.376  16.580  0.00  0.00    +0.000 A 
ATOM     13  C   UNL     1      47.625   4.345  16.656  0.00  0.00    +0.000 A 
ATOM     14  O   UNL     1      46.870   4.052  15.734  0.00  0.00    +0.000 OA
ATOM     15  N   UNL     1      47.599   3.693  17.875  0.00  0.00    +0.000 N 
ATOM     16  H   UNL     1      48.838   3.556  20.813  0.00  0.00    +0.000 HD
ATOM     17  H   UNL     1      47.391   2.883  20.258  0.00  0.00    +0.000 HD
ATOM     18  H   UNL     1      51.079   6.804  18.041  0.00  0.00    +0.000 HD
ATOM     19  H   UNL     1      46.933   2.943  17.955  0.00  0.00    +0.000 HD
ENDBRANCH   1  11
BRANCH   3  20
ATOM     20  C   UNL     1      46.472   7.411  12.996  0.00  0.00    +0.000 C 
BRANCH  20  21
ATOM     21  C   UNL     1      45.924   6.225  12.238  0.00  0.00    +0.000 A 
ATOM     22  C   UNL     1      45.511   5.076  12.927  0.00  0.00    +0.000 A 
ATOM     23  C   UNL     1      45.025   3.961  12.234  0.00  0.00    +0.000 A 
ATOM     24  C   UNL     1      44.942   3.968  10.835  0.00  0.00    +0.000 A 
ATOM     25  C   UNL     1      45.319   5.127  10.147  0.00  0.00    +0.000 A 
ATOM     26  C   UNL     1      45.815   6.240  10.840  0.00  0.00    +0.000 A 
BRANCH  24  27
ATOM     27  C   UNL     1      44.485   2.732  10.092  0.00  0.00    +0.000 C 
BRANCH  27  28
ATOM     28  N   UNL     1      44.358   2.999   8.673  0.00  0.00    +0.000 N 
ATOM     29  C   UNL     1      45.438   2.525   7.937  0.00  0.00    +0.000 A 
ATOM     30  N   UNL     1      46.086   1.418   8.336  0.00  0.00    +0.000 NA
ATOM     31  C   UNL     1      47.143   1.021   7.609  0.00  0.00    +0.000 A 
ATOM     32  C   UNL     1      47.584   1.684   6.494  0.00  0.00    +0.000 A 
ATOM     33  C   UNL     1      46.853   2.796   6.156  0.00  0.00    +0.000 A 
ATOM     34  N   UNL     1      45.790   3.238   6.860  0.00  0.00    +0.000 NA
ATOM     35  H   UNL     1      44.240   3.974   8.423  0.00  0.00    +0.000 HD
ENDBRANCH  27  28
ENDBRANCH  24  27
ENDBRANCH  20  21
ENDBRANCH   3  20
TORSDOF 5
ENDMDL
MODEL 2
REMARK VINA RESULT:    -8.280      2.190      2.622
REMARK INTER + INTRA:         -11.527
REMARK INTER:                 -10.663
REMARK INTRA:                  -0.865
REMARK UNBOUND:                -0.826
REMARK  Name = 
REMARK  5 active torsions:
REMARK  status: ('A' for Active; 'I' for Inactive)
REMARK    1  A    between atoms: C_7  and  C_8
REMARK    2  A    between atoms: N_10  and  C_11
REMARK    3  A    between atoms: C_11  and  C_12
REMARK    4  A    between atoms: C_15  and  C_16
REMARK    5  A    between atoms: C_16  and  N_17
REMARK                            x       y       z     vdW  Elec       q    Type
REMARK                         _______ _______ _______ _____ _____    ______ ____
ROOT
ATOM      1  C   UNL     1      49.201   6.284  16.494  0.00  0.00    +0.000 C 
ATOM      2  O   UNL     1      48.336   6.729  17.253  0.00  0.00    +0.000 OA
ATOM      3  N   UNL     1      49.205   6.555  15.150  0.00  0.00    +0.000 N 
ATOM      4  H   UNL     1      49.960   6.213  14.566  0.00  0.00    +0.000 HD
ENDROOT
BRANCH   1  11
ATOM      5  N   UNL     1      51.750   0.257  18.061  0.00  0.00    +0.000 N 
ATOM      6  C   UNL     1      51.365   1.526  17.771  0.00  0.00    +0.000 A 
ATOM      7  N   UNL     1      52.139   2.532  18.069  0.00  0.00    +0.000 NA
ATOM      8  C   UNL     1      51.624   3.736  17.728  0.00  0.00    +0.000 A 
ATOM      9  N   UNL     1      52.270   4.915  17.947  0.00  0.00    +0.000 N 
ATOM     10  C   UNL     1      51.473   5.944  17.512  0.00  0.00    +0.000 A 
ATOM     11  C   UNL     1      50.283   5.429  17.001  0.00  0.00    +0.000 A 
ATOM     12  C   UNL     1      50.416   4.010  17.121  0.00  0.00    +0.000 A 
ATOM     13  C   UNL     1      49.599   2.879  16.768  0.00  0.00    +0.000 A 
ATOM     14  O   UNL     1      48.534   2.962  16.163  0.00  0.00    +0.000 OA
ATOM     15  N   UNL     1      50.137   1.667  17.163  0.00  0.00    +0.000 N 
ATOM     16  H   UNL     1      52.534   0.231  18.706  0.00  0.00    +0.000 HD
ATOM     17  H   UNL     1      51.025  -0.408  18.294  0.00  0.00    +0.000 HD
ATOM     18  H   UNL     1      53.184   4.998  18.367  0.00  0.00    +0.000 HD
ATOM     19  H   UNL     1      49.611   0.850  16.904  0.00  0.00    +0.000 HD
ENDBRANCH   1  11
BRANCH   3  20
ATOM     20  C   UNL     1      48.187   7.371  14.516  0.00  0.00    +0.000 C 
BRANCH  20  21
ATOM     21  C   UNL     1      47.270   6.574  13.618  0.00  0.00    +0.000 A 
ATOM     22  C   UNL     1      46.702   7.167  12.483  0.00  0.00    +0.000 A 
ATOM     23  C   UNL     1      45.831   6.447  11.657  0.00  0.00    +0.000 A 
ATOM     24  C   UNL     1      45.504   5.116  11.949  0.00  0.00    +0.000 A 
ATOM     25  C   UNL     1      46.098   4.509  13.063  0.00  0.00    +0.000 A 
ATOM     26  C   UNL     1      46.963   5.234  13.895  0.00  0.00    +0.000 A 
BRANCH  24  27
ATOM     27  C   UNL     1      44.505   4.371  11.093  0.00  0.00    +0.000 C 
BRANCH  27  28
ATOM     28  N   UNL     1      44.578   4.809   9.714  0.00  0.00    +0.000 N 
ATOM     29  C   UNL     1      45.285   3.928   8.904  0.00  0.00    +0.000 A 
ATOM     30  N   UNL     1      45.264   2.612   9.169  0.00  0.00    +0.000 NA
ATOM     31  C   UNL     1      45.992   1.807   8.377  0.00  0.00    +0.000 A 
ATOM     32  C   UNL     1      46.744   2.262   7.326  0.00  0.00    +0.000 A 
ATOM     33  C   UNL     1      46.696   3.620   7.125  0.00  0.00    +0.000 A 
ATOM     34  N   UNL     1      45.987   4.468   7.899  0.00  0.00    +0.000 NA
ATOM     35  H   UNL     1      44.983   5.727   9.570  0.00  0.00    +0.000 HD
ENDBRANCH  27  28
ENDBRANCH  24  27
ENDBRANCH  20  21
ENDBRANCH   3  20
TORSDOF 5
ENDMDL
MODEL 3
REMARK VINA RESULT:    -7.988      2.766      3.441
REMARK INTER + INTRA:         -11.150
REMARK INTER:                 -10.233
REMARK INTRA:                  -0.917
REMARK UNBOUND:                -0.826
REMARK  Name = 
REMARK  5 active torsions:
REMARK  status: ('A' for Active; 'I' for Inactive)
REMARK    1  A    between atoms: C_7  and  C_8
REMARK    2  A    between atoms: N_10  and  C_11
REMARK    3  A    between atoms: C_11  and  C_12
REMARK    4  A    between atoms: C_15  and  C_16
REMARK    5  A    between atoms: C_16  and  N_17
REMARK                            x       y       z     vdW  Elec       q    Type
REMARK                         _______ _______ _______ _____ _____    ______ ____
ROOT
ATOM      1  C   UNL     1      48.713   6.201  16.531  0.00  0.00    +0.000 C 
ATOM      2  O   UNL     1      49.459   5.229  16.382  0.00  0.00    +0.000 OA
ATOM      3  N   UNL     1      48.249   6.936  15.471  0.00  0.00    +0.000 N 
ATOM      4  H   UNL     1      47.598   7.698  15.628  0.00  0.00    +0.000 HD
ENDROOT
BRANCH   1  11
ATOM      5  N   UNL     1      47.036  10.953  20.990  0.00  0.00    +0.000 N 
ATOM      6  C   UNL     1      47.332   9.899  20.187  0.00  0.00    +0.000 A 
ATOM      7  N   UNL     1      47.357   8.690  20.673  0.00  0.00    +0.000 NA
ATOM      8  C   UNL     1      47.675   7.741  19.761  0.00  0.00    +0.000 A 
ATOM      9  N   UNL     1      47.752   6.414  20.057  0.00  0.00    +0.000 N 
ATOM     10  C   UNL     1      48.116   5.729  18.926  0.00  0.00    +0.000 A 
ATOM     11  C   UNL     1      48.282   6.623  17.870  0.00  0.00    +0.000 A 
ATOM     12  C   UNL     1      47.962   7.904  18.422  0.00  0.00    +0.000 A 
ATOM     13  C   UNL     1      47.889   9.245  17.903  0.00  0.00    +0.000 A 
ATOM     14  O   UNL     1      48.051   9.535  16.721  0.00  0.00    +0.000 OA
ATOM     15  N   UNL     1      47.600  10.192  18.868  0.00  0.00    +0.000 N 
ATOM     16  H   UNL     1      47.081  10.711  21.975  0.00  0.00    +0.000 HD
ATOM     17  H   UNL     1      47.479  11.838  20.780  0.00  0.00    +0.000 HD
ATOM     18  H   UNL     1      47.572   6.020  20.968  0.00  0.00    +0.000 HD
ATOM     19  H   UNL     1      47.508  11.138  18.538  0.00  0.00    +0.000 HD
ENDBRANCH   1  11
BRANCH   3  20
ATOM     20  C   UNL     1      48.609   6.638  14.098  0.00  0.00    +0.000 C 
BRANCH  20  21
ATOM     21  C   UNL     1      47.459   6.075  13.296  0.00  0.00    +0.000 A 
ATOM     22  C   UNL     1      46.932   4.814  13.606  0.00  0.00    +0.000 A 
ATOM     23  C   UNL     1      45.883   4.271  12.855  0.00  0.00    +0.000 A 
ATOM     24  C   UNL     1      45.338   4.977  11.772  0.00  0.00    +0.000 A 
ATOM     25  C   UNL     1      45.838   6.252  11.484  0.00  0.00    +0.000 A 
ATOM     26  C   UNL     1      46.895   6.791  12.231  0.00  0.00    +0.000 A 
BRANCH  24  27
ATOM     27  C   UNL     1      44.256   4.350  10.922  0.00  0.00    +0.000 C 
BRANCH  27  28
ATOM     28  N   UNL     1      44.401   4.738   9.533  0.00  0.00    +0.000 N 
ATOM     29  C   UNL     1      45.168   3.840   8.799  0.00  0.00    +0.000 A 
ATOM     30  N   UNL     1      45.153   2.534   9.113  0.00  0.00    +0.000 NA
ATOM     31  C   UNL     1      45.938   1.714   8.396  0.00  0.00    +0.000 A 
ATOM     32  C   UNL     1      46.743   2.143   7.373  0.00  0.00    +0.000 A 
ATOM     33  C   UNL     1      46.684   3.491   7.117  0.00  0.00    +0.000 A 
ATOM     34  N   UNL     1      45.918   4.354   7.816  0.00  0.00    +0.000 NA
ATOM     35  H   UNL     1      44.799   5.656   9.378  0.00  0.00    +0.000 HD
ENDBRANCH  27  28
ENDBRANCH  24  27
ENDBRANCH  20  21
ENDBRANCH   3  20
TORSDOF 5
ENDMDL
MODEL 4
REMARK VINA RESULT:    -7.888      4.250      9.157
REMARK INTER + INTRA:         -11.020
REMARK INTER:                 -10.308
REMARK INTRA:                  -0.712
REMARK UNBOUND:                -0.826
REMARK  Name = 
REMARK  5 active torsions:
REMARK  status: ('A' for Active; 'I' for Inactive)
REMARK    1  A    between atoms: C_7  and  C_8
REMARK    2  A    between atoms: N_10  and  C_11
REMARK    3  A    between atoms: C_11  and  C_12
REMARK    4  A    between atoms: C_15  and  C_16
REMARK    5  A    between atoms: C_16  and  N_17
REMARK                            x       y       z     vdW  Elec       q    Type
REMARK                         _______ _______ _______ _____ _____    ______ ____
ROOT
ATOM      1  C   UNL     1      47.046   4.109  14.703  0.00  0.00    +0.000 C 
ATOM      2  O   UNL     1      47.401   3.045  14.190  0.00  0.00    +0.000 OA
ATOM      3  N   UNL     1      46.973   4.277  16.062  0.00  0.00    +0.000 N 
ATOM      4  H   UNL     1      46.725   5.181  16.449  0.00  0.00    +0.000 HD
ENDROOT
BRANCH   1  11
ATOM      5  N   UNL     1      42.696   7.458  10.811  0.00  0.00    +0.000 N 
ATOM      6  C   UNL     1      43.656   6.898  11.590  0.00  0.00    +0.000 A 
ATOM      7  N   UNL     1      44.827   7.460  11.697  0.00  0.00    +0.000 NA
ATOM      8  C   UNL     1      45.685   6.788  12.500  0.00  0.00    +0.000 A 
ATOM      9  N   UNL     1      46.957   7.205  12.751  0.00  0.00    +0.000 N 
ATOM     10  C   UNL     1      47.566   6.295  13.578  0.00  0.00    +0.000 A 
ATOM     11  C   UNL     1      46.677   5.263  13.872  0.00  0.00    +0.000 A 
ATOM     12  C   UNL     1      45.467   5.618  13.196  0.00  0.00    +0.000 A 
ATOM     13  C   UNL     1      44.153   5.038  13.091  0.00  0.00    +0.000 A 
ATOM     14  O   UNL     1      43.791   4.039  13.705  0.00  0.00    +0.000 OA
ATOM     15  N   UNL     1      43.315   5.729  12.234  0.00  0.00    +0.000 N 
ATOM     16  H   UNL     1      43.072   8.168  10.190  0.00  0.00    +0.000 HD
ATOM     17  H   UNL     1      42.047   6.834  10.351  0.00  0.00    +0.000 HD
ATOM     18  H   UNL     1      47.369   8.047  12.376  0.00  0.00    +0.000 HD
ATOM     19  H   UNL     1      42.377   5.374  12.160  0.00  0.00    +0.000 HD
ENDBRANCH   1  11
BRANCH   3  20
ATOM     20  C   UNL     1      47.293   3.216  16.996  0.00  0.00    +0.000 C 
BRANCH  20  21
ATOM     21  C   UNL     1      48.770   3.126  17.303  0.00  0.00    +0.000 A 
ATOM     22  C   UNL     1      49.406   4.148  18.019  0.00  0.00    +0.000 A 
ATOM     23  C   UNL     1      50.779   4.089  18.288  0.00  0.00    +0.000 A 
ATOM     24  C   UNL     1      51.549   3.006  17.842  0.00  0.00    +0.000 A 
ATOM     25  C   UNL     1      50.910   1.966  17.157  0.00  0.00    +0.000 A 
ATOM     26  C   UNL     1      49.537   2.030  16.881  0.00  0.00    +0.000 A 
BRANCH  24  27
ATOM     27  C   UNL     1      53.044   2.988  18.072  0.00  0.00    +0.000 C 
BRANCH  27  28
ATOM     28  N   UNL     1      53.414   1.920  18.979  0.00  0.00    +0.000 N 
ATOM     29  C   UNL     1      54.059   0.867  18.340  0.00  0.00    +0.000 A 
ATOM     30  N   UNL     1      54.831   1.109  17.268  0.00  0.00    +0.000 NA
ATOM     31  C   UNL     1      55.405   0.054  16.665  0.00  0.00    +0.000 A 
ATOM     32  C   UNL     1      55.239  -1.239  17.089  0.00  0.00    +0.000 A 
ATOM     33  C   UNL     1      54.442  -1.387  18.198  0.00  0.00    +0.000 A 
ATOM     34  N   UNL     1      53.839  -0.359  18.830  0.00  0.00    +0.000 NA
ATOM     35  H   UNL     1      52.650   1.515  19.509  0.00  0.00    +0.000 HD
ENDBRANCH  27  28
ENDBRANCH  24  27
ENDBRANCH  20  21
ENDBRANCH   3  20
TORSDOF 5
ENDMDL
MODEL 5
REMARK VINA RESULT:    -7.845      2.368      9.172
REMARK INTER + INTRA:         -10.964
REMARK INTER:                 -10.253
REMARK INTRA:                  -0.711
REMARK UNBOUND:                -0.826
REMARK  Name = 
REMARK  5 active torsions:
REMARK  status: ('A' for Active; 'I' for Inactive)
REMARK    1  A    between atoms: C_7  and  C_8
REMARK    2  A    between atoms: N_10  and  C_11
REMARK    3  A    between atoms: C_11  and  C_12
REMARK    4  A    between atoms: C_15  and  C_16
REMARK    5  A    between atoms: C_16  and  N_17
REMARK                            x       y       z     vdW  Elec       q    Type
REMARK                         _______ _______ _______ _____ _____    ______ ____
ROOT
ATOM      1  C   UNL     1      44.115   4.096  10.461  0.00  0.00    +0.000 C 
ATOM      2  O   UNL     1      43.013   3.873  10.969  0.00  0.00    +0.000 OA
ATOM      3  N   UNL     1      44.799   5.263  10.684  0.00  0.00    +0.000 N 
ATOM      4  H   UNL     1      45.725   5.392  10.290  0.00  0.00    +0.000 HD
ENDROOT
BRANCH   1  11
ATOM      5  N   UNL     1      48.193   2.474   5.361  0.00  0.00    +0.000 N 
ATOM      6  C   UNL     1      47.360   2.662   6.417  0.00  0.00    +0.000 A 
ATOM      7  N   UNL     1      46.728   1.651   6.944  0.00  0.00    +0.000 NA
ATOM      8  C   UNL     1      45.929   1.988   7.982  0.00  0.00    +0.000 A 
ATOM      9  N   UNL     1      45.183   1.084   8.677  0.00  0.00    +0.000 N 
ATOM     10  C   UNL     1      44.472   1.747   9.644  0.00  0.00    +0.000 A 
ATOM     11  C   UNL     1      44.754   3.110   9.580  0.00  0.00    +0.000 A 
ATOM     12  C   UNL     1      45.716   3.236   8.529  0.00  0.00    +0.000 A 
ATOM     13  C   UNL     1      46.456   4.329   7.953  0.00  0.00    +0.000 A 
ATOM     14  O   UNL     1      46.422   5.480   8.376  0.00  0.00    +0.000 OA
ATOM     15  N   UNL     1      47.233   3.956   6.871  0.00  0.00    +0.000 N 
ATOM     16  H   UNL     1      48.067   1.564   4.930  0.00  0.00    +0.000 HD
ATOM     17  H   UNL     1      48.268   3.224   4.688  0.00  0.00    +0.000 HD
ATOM     18  H   UNL     1      45.167   0.092   8.491  0.00  0.00    +0.000 HD
ATOM     19  H   UNL     1      47.791   4.686   6.462  0.00  0.00    +0.000 HD
ENDBRANCH   1  11
BRANCH   3  20
ATOM     20  C   UNL     1      44.275   6.327  11.519  0.00  0.00    +0.000 C 
BRANCH  20  21
ATOM     21  C   UNL     1      45.347   7.028  12.321  0.00  0.00    +0.000 A 
ATOM     22  C   UNL     1      46.402   6.297  12.882  0.00  0.00    +0.000 A 
ATOM     23  C   UNL     1      47.387   6.931  13.648  0.00  0.00    +0.000 A 
ATOM     24  C   UNL     1      47.338   8.314  13.874  0.00  0.00    +0.000 A 
ATOM     25  C   UNL     1      46.305   9.053  13.284  0.00  0.00    +0.000 A 
ATOM     26  C   UNL     1      45.314   8.415  12.525  0.00  0.00    +0.000 A 
BRANCH  24  27
ATOM     27  C   UNL     1      48.365   8.977  14.763  0.00  0.00    +0.000 C 
BRANCH  27  28
ATOM     28  N   UNL     1      48.191   8.573  16.144  0.00  0.00    +0.000 N 
ATOM     29  C   UNL     1      49.071   7.567  16.527  0.00  0.00    +0.000 A 
ATOM     30  N   UNL     1      50.296   7.506  15.979  0.00  0.00    +0.000 NA
ATOM     31  C   UNL     1      51.096   6.495  16.358  0.00  0.00    +0.000 A 
ATOM     32  C   UNL     1      50.723   5.537  17.264  0.00  0.00    +0.000 A 
ATOM     33  C   UNL     1      49.458   5.688  17.779  0.00  0.00    +0.000 A 
ATOM     34  N   UNL     1      48.618   6.681  17.422  0.00  0.00    +0.000 NA
ATOM     35  H   UNL     1      47.261   8.256  16.390  0.00  0.00    +0.000 HD
ENDBRANCH  27  28
ENDBRANCH  24  27
ENDBRANCH  20  21
ENDBRANCH   3  20
TORSDOF 5
ENDMDL
MODEL 6
REMARK VINA RESULT:    -7.826      1.785      2.588
REMARK INTER + INTRA:         -10.940
REMARK INTER:                 -10.259
REMARK INTRA:                  -0.681
REMARK UNBOUND:                -0.826
REMARK  Name = 
REMARK  5 active torsions:
REMARK  status: ('A' for Active; 'I' for Inactive)
REMARK    1  A    between atoms: C_7  and  C_8
REMARK    2  A    between atoms: N_10  and  C_11
REMARK    3  A    between atoms: C_11  and  C_12
REMARK    4  A    between atoms: C_15  and  C_16
REMARK    5  A    between atoms: C_16  and  N_17
REMARK                            x       y       z     vdW  Elec       q    Type
REMARK                         _______ _______ _______ _____ _____    ______ ____
ROOT
ATOM      1  C   UNL     1      48.763   7.182  15.989  0.00  0.00    +0.000 C 
ATOM      2  O   UNL     1      49.061   8.377  15.915  0.00  0.00    +0.000 OA
ATOM      3  N   UNL     1      48.135   6.520  14.965  0.00  0.00    +0.000 N 
ATOM      4  H   UNL     1      47.951   5.526  15.042  0.00  0.00    +0.000 HD
ENDROOT
BRANCH   1  11
ATOM      5  N   UNL     1      52.989   3.603  19.811  0.00  0.00    +0.000 N 
ATOM      6  C   UNL     1      52.045   4.318  19.148  0.00  0.00    +0.000 A 
ATOM      7  N   UNL     1      50.825   4.379  19.605  0.00  0.00    +0.000 NA
ATOM      8  C   UNL     1      49.991   5.120  18.839  0.00  0.00    +0.000 A 
ATOM      9  N   UNL     1      48.677   5.317  19.137  0.00  0.00    +0.000 N 
ATOM     10  C   UNL     1      48.111   6.088  18.155  0.00  0.00    +0.000 A 
ATOM     11  C   UNL     1      49.071   6.401  17.194  0.00  0.00    +0.000 A 
ATOM     12  C   UNL     1      50.276   5.796  17.671  0.00  0.00    +0.000 A 
ATOM     13  C   UNL     1      51.639   5.744  17.210  0.00  0.00    +0.000 A 
ATOM     14  O   UNL     1      52.056   6.351  16.228  0.00  0.00    +0.000 OA
ATOM     15  N   UNL     1      52.455   4.949  17.995  0.00  0.00    +0.000 N 
ATOM     16  H   UNL     1      52.584   2.982  20.505  0.00  0.00    +0.000 HD
ATOM     17  H   UNL     1      53.712   3.162  19.259  0.00  0.00    +0.000 HD
ATOM     18  H   UNL     1      48.213   4.943  19.952  0.00  0.00    +0.000 HD
ATOM     19  H   UNL     1      53.423   4.914  17.724  0.00  0.00    +0.000 HD
ENDBRANCH   1  11
BRANCH   3  20
ATOM     20  C   UNL     1      47.760   7.175  13.728  0.00  0.00    +0.000 C 
BRANCH  20  21
ATOM     21  C   UNL     1      46.837   6.337  12.874  0.00  0.00    +0.000 A 
ATOM     22  C   UNL     1      46.393   6.816  11.634  0.00  0.00    +0.000 A 
ATOM     23  C   UNL     1      45.517   6.060  10.846  0.00  0.00    +0.000 A 
ATOM     24  C   UNL     1      45.063   4.807  11.281  0.00  0.00    +0.000 A 
ATOM     25  C   UNL     1      45.533   4.311  12.503  0.00  0.00    +0.000 A 
ATOM     26  C   UNL     1      46.403   5.073  13.296  0.00  0.00    +0.000 A 
BRANCH  24  27
ATOM     27  C   UNL     1      44.060   4.032  10.457  0.00  0.00    +0.000 C 
BRANCH  27  28
ATOM     28  N   UNL     1      44.211   4.327   9.046  0.00  0.00    +0.000 N 
ATOM     29  C   UNL     1      45.117   3.485   8.412  0.00  0.00    +0.000 A 
ATOM     30  N   UNL     1      45.257   2.216   8.830  0.00  0.00    +0.000 NA
ATOM     31  C   UNL     1      46.171   1.454   8.207  0.00  0.00    +0.000 A 
ATOM     32  C   UNL     1      46.955   1.906   7.178  0.00  0.00    +0.000 A 
ATOM     33  C   UNL     1      46.734   3.211   6.812  0.00  0.00    +0.000 A 
ATOM     34  N   UNL     1      45.835   4.017   7.414  0.00  0.00    +0.000 NA
ATOM     35  H   UNL     1      44.493   5.276   8.829  0.00  0.00    +0.000 HD
ENDBRANCH  27  28
ENDBRANCH  24  27
ENDBRANCH  20  21
ENDBRANCH   3  20
TORSDOF 5
ENDMDL
MODEL 7
REMARK VINA RESULT:    -7.655      3.492      8.635
REMARK INTER + INTRA:         -10.719
REMARK INTER:                  -9.931
REMARK INTRA:                  -0.789
REMARK UNBOUND:                -0.826
REMARK  Name = 
REMARK  5 active torsions:
REMARK  status: ('A' for Active; 'I' for Inactive)
REMARK    1  A    between atoms: C_7  and  C_8
REMARK    2  A    between atoms: N_10  and  C_11
REMARK    3  A    between atoms: C_11  and  C_12
REMARK    4  A    between atoms: C_15  and  C_16
REMARK    5  A    between atoms: C_16  and  N_17
REMARK                            x       y       z     vdW  Elec       q    Type
REMARK                         _______ _______ _______ _____ _____    ______ ____
ROOT
ATOM      1  C   UNL     1      48.022   6.806  13.601  0.00  0.00    +0.000 C 
ATOM      2  O   UNL     1      48.990   6.558  12.878  0.00  0.00    +0.000 OA
ATOM      3  N   UNL     1      48.156   7.442  14.809  0.00  0.00    +0.000 N 
ATOM      4  H   UNL     1      47.333   7.674  15.354  0.00  0.00    +0.000 HD
ENDROOT
BRANCH   1  11
ATOM      5  N   UNL     1      43.375   2.199  12.034  0.00  0.00    +0.000 N 
ATOM      6  C   UNL     1      44.208   3.224  12.346  0.00  0.00    +0.000 A 
ATOM      7  N   UNL     1      43.806   4.458  12.224  0.00  0.00    +0.000 NA
ATOM      8  C   UNL     1      44.743   5.374  12.564  0.00  0.00    +0.000 A 
ATOM      9  N   UNL     1      44.528   6.718  12.514  0.00  0.00    +0.000 N 
ATOM     10  C   UNL     1      45.676   7.364  12.895  0.00  0.00    +0.000 A 
ATOM     11  C   UNL     1      46.662   6.426  13.199  0.00  0.00    +0.000 A 
ATOM     12  C   UNL     1      46.029   5.157  13.011  0.00  0.00    +0.000 A 
ATOM     13  C   UNL     1      46.435   3.785  13.173  0.00  0.00    +0.000 A 
ATOM     14  O   UNL     1      47.522   3.438  13.625  0.00  0.00    +0.000 OA
ATOM     15  N   UNL     1      45.468   2.877  12.782  0.00  0.00    +0.000 N 
ATOM     16  H   UNL     1      42.565   2.509  11.506  0.00  0.00    +0.000 HD
ATOM     17  H   UNL     1      43.793   1.357  11.660  0.00  0.00    +0.000 HD
ATOM     18  H   UNL     1      43.660   7.149  12.233  0.00  0.00    +0.000 HD
ATOM     19  H   UNL     1      45.701   1.907  12.912  0.00  0.00    +0.000 HD
ENDBRANCH   1  11
BRANCH   3  20
ATOM     20  C   UNL     1      49.444   7.856  15.333  0.00  0.00    +0.000 C 
BRANCH  20  21
ATOM     21  C   UNL     1      50.083   6.810  16.217  0.00  0.00    +0.000 A 
ATOM     22  C   UNL     1      51.478   6.705  16.292  0.00  0.00    +0.000 A 
ATOM     23  C   UNL     1      52.082   5.725  17.088  0.00  0.00    +0.000 A 
ATOM     24  C   UNL     1      51.303   4.822  17.825  0.00  0.00    +0.000 A 
ATOM     25  C   UNL     1      49.909   4.947  17.780  0.00  0.00    +0.000 A 
ATOM     26  C   UNL     1      49.305   5.924  16.976  0.00  0.00    +0.000 A 
BRANCH  24  27
ATOM     27  C   UNL     1      51.964   3.720  18.623  0.00  0.00    +0.000 C 
BRANCH  27  28
ATOM     28  N   UNL     1      51.725   2.427  18.014  0.00  0.00    +0.000 N 
ATOM     29  C   UNL     1      52.843   1.601  18.043  0.00  0.00    +0.000 A 
ATOM     30  N   UNL     1      53.714   1.691  19.061  0.00  0.00    +0.000 NA
ATOM     31  C   UNL     1      54.796   0.896  19.025  0.00  0.00    +0.000 A 
ATOM     32  C   UNL     1      55.047   0.010  18.010  0.00  0.00    +0.000 A 
ATOM     33  C   UNL     1      54.097  -0.020  17.019  0.00  0.00    +0.000 A 
ATOM     34  N   UNL     1      53.000   0.765  17.009  0.00  0.00    +0.000 NA
ATOM     35  H   UNL     1      51.405   2.451  17.052  0.00  0.00    +0.000 HD
ENDBRANCH  27  28
ENDBRANCH  24  27
ENDBRANCH  20  21
ENDBRANCH   3  20
TORSDOF 5
ENDMDL
MODEL 8
REMARK VINA RESULT:    -7.521      4.099      9.391
REMARK INTER + INTRA:         -10.546
REMARK INTER:                  -9.659
REMARK INTRA:                  -0.888
REMARK UNBOUND:                -0.826
REMARK  Name = 
REMARK  5 active torsions:
REMARK  status: ('A' for Active; 'I' for Inactive)
REMARK    1  A    between atoms: C_7  and  C_8
REMARK    2  A    between atoms: N_10  and  C_11
REMARK    3  A    between atoms: C_11  and  C_12
REMARK    4  A    between atoms: C_15  and  C_16
REMARK    5  A    between atoms: C_16  and  N_17
REMARK                            x       y       z     vdW  Elec       q    Type
REMARK                         _______ _______ _______ _____ _____    ______ ____
ROOT
ATOM      1  C   UNL     1      43.876   4.540  10.421  0.00  0.00    +0.000 C 
ATOM      2  O   UNL     1      42.674   4.500  10.697  0.00  0.00    +0.000 OA
ATOM      3  N   UNL     1      44.666   5.611  10.752  0.00  0.00    +0.000 N 
ATOM      4  H   UNL     1      45.661   5.588  10.554  0.00  0.00    +0.000 HD
ENDROOT
BRANCH   1  11
ATOM      5  N   UNL     1      48.245   2.146   5.898  0.00  0.00    +0.000 N 
ATOM      6  C   UNL     1      47.344   2.494   6.852  0.00  0.00    +0.000 A 
ATOM      7  N   UNL     1      46.616   1.582   7.433  0.00  0.00    +0.000 NA
ATOM      8  C   UNL     1      45.757   2.075   8.356  0.00  0.00    +0.000 A 
ATOM      9  N   UNL     1      44.910   1.294   9.082  0.00  0.00    +0.000 N 
ATOM     10  C   UNL     1      44.163   2.098   9.905  0.00  0.00    +0.000 A 
ATOM     11  C   UNL     1      44.526   3.430   9.714  0.00  0.00    +0.000 A 
ATOM     12  C   UNL     1      45.573   3.387   8.739  0.00  0.00    +0.000 A 
ATOM     13  C   UNL     1      46.416   4.369   8.109  0.00  0.00    +0.000 A 
ATOM     14  O   UNL     1      46.415   5.563   8.396  0.00  0.00    +0.000 OA
ATOM     15  N   UNL     1      47.254   3.837   7.146  0.00  0.00    +0.000 N 
ATOM     16  H   UNL     1      48.102   1.198   5.563  0.00  0.00    +0.000 HD
ATOM     17  H   UNL     1      48.414   2.808   5.154  0.00  0.00    +0.000 HD
ATOM     18  H   UNL     1      44.852   0.289   9.009  0.00  0.00    +0.000 HD
ATOM     19  H   UNL     1      47.883   4.487   6.706  0.00  0.00    +0.000 HD
ENDBRANCH   1  11
BRANCH   3  20
ATOM     20  C   UNL     1      44.149   6.780  11.437  0.00  0.00    +0.000 C 
BRANCH  20  21
ATOM     21  C   UNL     1      45.209   7.821  11.708  0.00  0.00    +0.000 A 
ATOM     22  C   UNL     1      44.881   9.183  11.700  0.00  0.00    +0.000 A 
ATOM     23  C   UNL     1      45.860  10.158  11.925  0.00  0.00    +0.000 A 
ATOM     24  C   UNL     1      47.193   9.793  12.162  0.00  0.00    +0.000 A 
ATOM     25  C   UNL     1      47.517   8.431  12.207  0.00  0.00    +0.000 A 
ATOM     26  C   UNL     1      46.538   7.456  11.972  0.00  0.00    +0.000 A 
BRANCH  24  27
ATOM     27  C   UNL     1      48.256  10.855  12.330  0.00  0.00    +0.000 C 
BRANCH  27  28
ATOM     28  N   UNL     1      48.250  11.382  13.680  0.00  0.00    +0.000 N 
ATOM     29  C   UNL     1      49.268  10.858  14.469  0.00  0.00    +0.000 A 
ATOM     30  N   UNL     1      50.440  10.516  13.908  0.00  0.00    +0.000 NA
ATOM     31  C   UNL     1      51.378   9.982  14.707  0.00  0.00    +0.000 A 
ATOM     32  C   UNL     1      51.197   9.775  16.050  0.00  0.00    +0.000 A 
ATOM     33  C   UNL     1      49.973  10.166  16.536  0.00  0.00    +0.000 A 
ATOM     34  N   UNL     1      48.998  10.697  15.770  0.00  0.00    +0.000 NA
ATOM     35  H   UNL     1      47.387  11.252  14.194  0.00  0.00    +0.000 HD
ENDBRANCH  27  28
ENDBRANCH  24  27
ENDBRANCH  20  21
ENDBRANCH   3  20
TORSDOF 5
ENDMDL
