MODEL 1
REMARK VINA RESULT:    -9.292      0.000      0.000
REMARK INTER + INTRA:         -13.459
REMARK INTER:                 -12.552
REMARK INTRA:                  -0.907
REMARK UNBOUND:                -0.907
REMARK  Name = 
REMARK  6 active torsions:
REMARK  status: ('A' for Active; 'I' for Inactive)
REMARK    1  A    between atoms: C_2  and  C_4
REMARK    2  A    between atoms: N_8  and  C_9
REMARK    3  A    between atoms: C_9  and  C_10
REMARK    4  A    between atoms: C_10  and  C_13
REMARK    5  A    between atoms: C_17  and  C_18
REMARK    6  A    between atoms: C_18  and  C_19
REMARK                            x       y       z     vdW  Elec       q    Type
REMARK                         _______ _______ _______ _____ _____    ______ ____
ROOT
ATOM      1  C   UNL     1      43.449   5.550  12.142  0.00  0.00    +0.000 C 
ATOM      2  F   UNL     1      43.003   6.718  11.592  0.00  0.00    +0.000 F 
ATOM      3  F   UNL     1      42.647   5.324  13.223  0.00  0.00    +0.000 F 
ENDROOT
BRANCH   1   4
ATOM      4  C   UNL     1      44.917   5.607  12.519  0.00  0.00    +0.000 A 
ATOM      5  C   UNL     1      45.731   6.648  12.045  0.00  0.00    +0.000 A 
ATOM      6  C   UNL     1      47.057   6.747  12.463  0.00  0.00    +0.000 A 
ATOM      7  C   UNL     1      47.578   5.819  13.365  0.00  0.00    +0.000 A 
ATOM      8  C   UNL     1      46.783   4.776  13.852  0.00  0.00    +0.000 A 
ATOM      9  C   UNL     1      45.458   4.670  13.417  0.00  0.00    +0.000 A 
BRANCH   8  10
ATOM     10  C   UNL     1      47.339   3.781  14.853  0.00  0.00    +0.000 C 
BRANCH  10  11
ATOM     11  C   UNL     1      47.171   4.293  16.279  0.00  0.00    +0.000 C 
ATOM     12  C   UNL     1      48.366   4.991  16.954  0.00  0.00    +0.000 C 
ATOM     13  N   UNL     1      48.269   4.073  18.096  0.00  0.00    +0.000 NA
ATOM     14  C   UNL     1      47.311   3.223  17.381  0.00  0.00    +0.000 C 
ATOM     15  H   UNL     1      47.895   4.501  18.942  0.00  0.00    +0.000 HD
ENDBRANCH  10  11
ENDBRANCH   8  10
ENDBRANCH   1   4
BRANCH   1  16
ATOM     16  C   UNL     1      43.250   4.411  11.111  0.00  0.00    +0.000 C 
BRANCH  16  21
ATOM     17  C   UNL     1      46.469   2.494   7.685  0.00  0.00    +0.000 A 
ATOM     18  C   UNL     1      45.654   1.847   8.604  0.00  0.00    +0.000 A 
ATOM     19  C   UNL     1      44.727   2.593   9.327  0.00  0.00    +0.000 A 
ATOM     20  C   UNL     1      44.640   3.970   9.136  0.00  0.00    +0.000 A 
ATOM     21  N   UNL     1      43.679   4.752   9.751  0.00  0.00    +0.000 N 
ATOM     22  N   UNL     1      45.453   4.613   8.277  0.00  0.00    +0.000 NA
ATOM     23  C   UNL     1      46.351   3.870   7.575  0.00  0.00    +0.000 A 
ATOM     24  H   UNL     1      43.893   5.735   9.581  0.00  0.00    +0.000 HD
BRANCH  17  26
ATOM     25  N   UNL     1      48.534   2.479   6.414  0.00  0.00    +0.000 N 
ATOM     26  C   UNL     1      47.437   1.775   6.834  0.00  0.00    +0.000 C 
ATOM     27  O   UNL     1      47.286   0.595   6.548  0.00  0.00    +0.000 OA
ATOM     28  H   UNL     1      49.250   1.946   5.932  0.00  0.00    +0.000 HD
ATOM     29  H   UNL     1      48.821   3.345   6.849  0.00  0.00    +0.000 HD
ENDBRANCH  17  26
ENDBRANCH  16  21
ENDBRANCH   1  16
TORSDOF 6
ENDMDL
MODEL 2
REMARK VINA RESULT:    -8.901      2.028      3.062
REMARK INTER + INTRA:         -12.931
REMARK INTER:                 -11.931
REMARK INTRA:                  -1.000
REMARK UNBOUND:                -0.907
REMARK  Name = 
REMARK  6 active torsions:
REMARK  status: ('A' for Active; 'I' for Inactive)
REMARK    1  A    between atoms: C_2  and  C_4
REMARK    2  A    between atoms: N_8  and  C_9
REMARK    3  A    between atoms: C_9  and  C_10
REMARK    4  A    between atoms: C_10  and  C_13
REMARK    5  A    between atoms: C_17  and  C_18
REMARK    6  A    between atoms: C_18  and  C_19
REMARK                            x       y       z     vdW  Elec       q    Type
REMARK                         _______ _______ _______ _____ _____    ______ ____
ROOT
ATOM      1  C   UNL     1      43.417   5.531  12.155  0.00  0.00    +0.000 C 
ATOM      2  F   UNL     1      43.060   6.698  11.541  0.00  0.00    +0.000 F 
ATOM      3  F   UNL     1      42.523   5.364  13.173  0.00  0.00    +0.000 F 
ENDROOT
BRANCH   1   4
ATOM      4  C   UNL     1      44.851   5.547  12.648  0.00  0.00    +0.000 A 
ATOM      5  C   UNL     1      45.389   4.429  13.302  0.00  0.00    +0.000 A 
ATOM      6  C   UNL     1      46.731   4.413  13.677  0.00  0.00    +0.000 A 
ATOM      7  C   UNL     1      47.550   5.507  13.393  0.00  0.00    +0.000 A 
ATOM      8  C   UNL     1      47.034   6.631  12.739  0.00  0.00    +0.000 A 
ATOM      9  C   UNL     1      45.683   6.649  12.380  0.00  0.00    +0.000 A 
BRANCH   8  10
ATOM     10  C   UNL     1      47.928   7.810  12.405  0.00  0.00    +0.000 C 
BRANCH  10  11
ATOM     11  C   UNL     1      49.400   7.428  12.527  0.00  0.00    +0.000 C 
ATOM     12  C   UNL     1      50.357   8.412  13.225  0.00  0.00    +0.000 C 
ATOM     13  N   UNL     1      51.247   8.388  12.057  0.00  0.00    +0.000 NA
ATOM     14  C   UNL     1      50.247   7.667  11.262  0.00  0.00    +0.000 C 
ATOM     15  H   UNL     1      52.113   7.870  12.205  0.00  0.00    +0.000 HD
ENDBRANCH  10  11
ENDBRANCH   8  10
ENDBRANCH   1   4
BRANCH   1  16
ATOM     16  C   UNL     1      43.259   4.370  11.140  0.00  0.00    +0.000 C 
BRANCH  16  21
ATOM     17  C   UNL     1      46.480   2.455   7.717  0.00  0.00    +0.000 A 
ATOM     18  C   UNL     1      45.674   1.807   8.644  0.00  0.00    +0.000 A 
ATOM     19  C   UNL     1      44.743   2.551   9.364  0.00  0.00    +0.000 A 
ATOM     20  C   UNL     1      44.645   3.927   9.164  0.00  0.00    +0.000 A 
ATOM     21  N   UNL     1      43.681   4.705   9.777  0.00  0.00    +0.000 N 
ATOM     22  N   UNL     1      45.451   4.569   8.298  0.00  0.00    +0.000 NA
ATOM     23  C   UNL     1      46.352   3.829   7.598  0.00  0.00    +0.000 A 
ATOM     24  H   UNL     1      43.886   5.688   9.599  0.00  0.00    +0.000 HD
BRANCH  17  26
ATOM     25  N   UNL     1      48.522   2.457   6.407  0.00  0.00    +0.000 N 
ATOM     26  C   UNL     1      47.451   1.737   6.868  0.00  0.00    +0.000 C 
ATOM     27  O   UNL     1      47.327   0.546   6.618  0.00  0.00    +0.000 OA
ATOM     28  H   UNL     1      49.242   1.930   5.926  0.00  0.00    +0.000 HD
ATOM     29  H   UNL     1      48.793   3.343   6.812  0.00  0.00    +0.000 HD
ENDBRANCH  17  26
ENDBRANCH  16  21
ENDBRANCH   1  16
TORSDOF 6
ENDMDL
MODEL 3
REMARK VINA RESULT:    -8.859      0.872      1.300
REMARK INTER + INTRA:         -12.874
REMARK INTER:                 -12.031
REMARK INTRA:                  -0.843
REMARK UNBOUND:                -0.907
REMARK  Name = 
REMARK  6 active torsions:
REMARK  status: ('A' for Active; 'I' for Inactive)
REMARK    1  A    between atoms: C_2  and  C_4
REMARK    2  A    between atoms: N_8  and  C_9
REMARK    3  A    between atoms: C_9  and  C_10
REMARK    4  A    between atoms: C_10  and  C_13
REMARK    5  A    between atoms: C_17  and  C_18
REMARK    6  A    between atoms: C_18  and  C_19
REMARK                            x       y       z     vdW  Elec       q    Type
REMARK                         _______ _______ _______ _____ _____    ______ ____
ROOT
ATOM      1  C   UNL     1      43.096   5.816  11.922  0.00  0.00    +0.000 C 
ATOM      2  F   UNL     1      42.170   6.635  11.340  0.00  0.00    +0.000 F 
ATOM      3  F   UNL     1      42.543   5.421  13.106  0.00  0.00    +0.000 F 
ENDROOT
BRANCH   1   4
ATOM      4  C   UNL     1      44.437   6.499  12.115  0.00  0.00    +0.000 A 
ATOM      5  C   UNL     1      44.669   7.772  11.572  0.00  0.00    +0.000 A 
ATOM      6  C   UNL     1      45.870   8.434  11.823  0.00  0.00    +0.000 A 
ATOM      7  C   UNL     1      46.842   7.839  12.628  0.00  0.00    +0.000 A 
ATOM      8  C   UNL     1      46.629   6.571  13.182  0.00  0.00    +0.000 A 
ATOM      9  C   UNL     1      45.430   5.904  12.913  0.00  0.00    +0.000 A 
BRANCH   8  10
ATOM     10  C   UNL     1      47.673   5.933  14.078  0.00  0.00    +0.000 C 
BRANCH  10  11
ATOM     11  C   UNL     1      47.040   4.889  14.992  0.00  0.00    +0.000 C 
ATOM     12  C   UNL     1      47.751   4.542  16.313  0.00  0.00    +0.000 C 
ATOM     13  N   UNL     1      47.735   3.118  15.959  0.00  0.00    +0.000 NA
ATOM     14  C   UNL     1      47.302   3.423  14.592  0.00  0.00    +0.000 C 
ATOM     15  H   UNL     1      47.065   2.565  16.494  0.00  0.00    +0.000 HD
ENDBRANCH  10  11
ENDBRANCH   8  10
ENDBRANCH   1   4
BRANCH   1  16
ATOM     16  C   UNL     1      43.301   4.578  11.014  0.00  0.00    +0.000 C 
BRANCH  16  21
ATOM     17  C   UNL     1      46.513   2.523   7.664  0.00  0.00    +0.000 A 
ATOM     18  C   UNL     1      45.655   1.911   8.567  0.00  0.00    +0.000 A 
ATOM     19  C   UNL     1      44.742   2.696   9.267  0.00  0.00    +0.000 A 
ATOM     20  C   UNL     1      44.714   4.076   9.071  0.00  0.00    +0.000 A 
ATOM     21  N   UNL     1      43.772   4.897   9.663  0.00  0.00    +0.000 N 
ATOM     22  N   UNL     1      45.571   4.682   8.228  0.00  0.00    +0.000 NA
ATOM     23  C   UNL     1      46.453   3.902   7.547  0.00  0.00    +0.000 A 
ATOM     24  H   UNL     1      44.028   5.870   9.495  0.00  0.00    +0.000 HD
BRANCH  17  26
ATOM     25  N   UNL     1      48.547   2.452   6.343  0.00  0.00    +0.000 N 
ATOM     26  C   UNL     1      47.470   1.763   6.836  0.00  0.00    +0.000 C 
ATOM     27  O   UNL     1      47.330   0.565   6.630  0.00  0.00    +0.000 OA
ATOM     28  H   UNL     1      49.258   1.899   5.878  0.00  0.00    +0.000 HD
ATOM     29  H   UNL     1      48.831   3.348   6.714  0.00  0.00    +0.000 HD
ENDBRANCH  17  26
ENDBRANCH  16  21
ENDBRANCH   1  16
TORSDOF 6
ENDMDL
MODEL 4
REMARK VINA RESULT:    -8.504      2.375      4.032
REMARK INTER + INTRA:         -12.394
REMARK INTER:                 -11.685
REMARK INTRA:                  -0.710
REMARK UNBOUND:                -0.907
REMARK  Name = 
REMARK  6 active torsions:
REMARK  status: ('A' for Active; 'I' for Inactive)
REMARK    1  A    between atoms: C_2  and  C_4
REMARK    2  A    between atoms: N_8  and  C_9
REMARK    3  A    between atoms: C_9  and  C_10
REMARK    4  A    between atoms: C_10  and  C_13
REMARK    5  A    between atoms: C_17  and  C_18
REMARK    6  A    between atoms: C_18  and  C_19
REMARK                            x       y       z     vdW  Elec       q    Type
REMARK                         _______ _______ _______ _____ _____    ______ ____
ROOT
ATOM      1  C   UNL     1      43.329   4.630  12.685  0.00  0.00    +0.000 C 
ATOM      2  F   UNL     1      42.325   5.502  12.376  0.00  0.00    +0.000 F 
ATOM      3  F   UNL     1      42.912   3.972  13.805  0.00  0.00    +0.000 F 
ENDROOT
BRANCH   1   4
ATOM      4  C   UNL     1      44.661   5.326  12.892  0.00  0.00    +0.000 A 
ATOM      5  C   UNL     1      45.735   4.642  13.481  0.00  0.00    +0.000 A 
ATOM      6  C   UNL     1      46.982   5.255  13.592  0.00  0.00    +0.000 A 
ATOM      7  C   UNL     1      47.172   6.549  13.105  0.00  0.00    +0.000 A 
ATOM      8  C   UNL     1      46.115   7.248  12.511  0.00  0.00    +0.000 A 
ATOM      9  C   UNL     1      44.861   6.635  12.418  0.00  0.00    +0.000 A 
BRANCH   8  10
ATOM     10  C   UNL     1      46.325   8.644  11.957  0.00  0.00    +0.000 C 
BRANCH  10  11
ATOM     11  C   UNL     1      45.055   9.478  12.092  0.00  0.00    +0.000 C 
ATOM     12  C   UNL     1      44.090   9.545  10.893  0.00  0.00    +0.000 C 
ATOM     13  N   UNL     1      44.133  11.012  10.929  0.00  0.00    +0.000 NA
ATOM     14  C   UNL     1      45.243  10.995  11.888  0.00  0.00    +0.000 C 
ATOM     15  H   UNL     1      43.281  11.444  11.286  0.00  0.00    +0.000 HD
ENDBRANCH  10  11
ENDBRANCH   8  10
ENDBRANCH   1   4
BRANCH   1  16
ATOM     16  C   UNL     1      43.479   3.617  11.522  0.00  0.00    +0.000 C 
BRANCH  16  21
ATOM     17  C   UNL     1      46.506   2.745   7.542  0.00  0.00    +0.000 A 
ATOM     18  C   UNL     1      45.875   1.850   8.395  0.00  0.00    +0.000 A 
ATOM     19  C   UNL     1      44.952   2.336   9.318  0.00  0.00    +0.000 A 
ATOM     20  C   UNL     1      44.689   3.702   9.388  0.00  0.00    +0.000 A 
ATOM     21  N   UNL     1      43.718   4.236  10.215  0.00  0.00    +0.000 N 
ATOM     22  N   UNL     1      45.327   4.582   8.593  0.00  0.00    +0.000 NA
ATOM     23  C   UNL     1      46.223   4.092   7.693  0.00  0.00    +0.000 A 
ATOM     24  H   UNL     1      43.799   5.253  10.208  0.00  0.00    +0.000 HD
BRANCH  17  26
ATOM     25  N   UNL     1      47.369   2.949   5.284  0.00  0.00    +0.000 N 
ATOM     26  C   UNL     1      47.453   2.313   6.494  0.00  0.00    +0.000 C 
ATOM     27  O   UNL     1      48.296   1.453   6.707  0.00  0.00    +0.000 OA
ATOM     28  H   UNL     1      48.097   2.731   4.612  0.00  0.00    +0.000 HD
ATOM     29  H   UNL     1      46.885   3.829   5.167  0.00  0.00    +0.000 HD
ENDBRANCH  17  26
ENDBRANCH  16  21
ENDBRANCH   1  16
TORSDOF 6
ENDMDL
MODEL 5
REMARK VINA RESULT:    -8.177      1.801      2.348
REMARK INTER + INTRA:         -11.953
REMARK INTER:                 -10.812
REMARK INTRA:                  -1.141
REMARK UNBOUND:                -0.907
REMARK  Name = 
REMARK  6 active torsions:
REMARK  status: ('A' for Active; 'I' for Inactive)
REMARK    1  A    between atoms: C_2  and  C_4
REMARK    2  A    between atoms: N_8  and  C_9
REMARK    3  A    between atoms: C_9  and  C_10
REMARK    4  A    between atoms: C_10  and  C_13
REMARK    5  A    between atoms: C_17  and  C_18
REMARK    6  A    between atoms: C_18  and  C_19
REMARK                            x       y       z     vdW  Elec       q    Type
REMARK                         _______ _______ _______ _____ _____    ______ ____
ROOT
ATOM      1  C   UNL     1      43.676   4.555  12.634  0.00  0.00    +0.000 C 
ATOM      2  F   UNL     1      42.502   5.022  13.151  0.00  0.00    +0.000 F 
ATOM      3  F   UNL     1      44.165   3.683  13.563  0.00  0.00    +0.000 F 
ENDROOT
BRANCH   1   4
ATOM      4  C   UNL     1      44.658   5.669  12.321  0.00  0.00    +0.000 A 
ATOM      5  C   UNL     1      44.208   6.874  11.760  0.00  0.00    +0.000 A 
ATOM      6  C   UNL     1      45.096   7.928  11.554  0.00  0.00    +0.000 A 
ATOM      7  C   UNL     1      46.437   7.793  11.916  0.00  0.00    +0.000 A 
ATOM      8  C   UNL     1      46.906   6.601  12.480  0.00  0.00    +0.000 A 
ATOM      9  C   UNL     1      46.014   5.541  12.669  0.00  0.00    +0.000 A 
BRANCH   8  10
ATOM     10  C   UNL     1      48.357   6.462  12.899  0.00  0.00    +0.000 C 
BRANCH  10  11
ATOM     11  C   UNL     1      48.574   7.023  14.300  0.00  0.00    +0.000 C 
ATOM     12  C   UNL     1      50.019   7.263  14.779  0.00  0.00    +0.000 C 
ATOM     13  N   UNL     1      49.764   6.458  15.979  0.00  0.00    +0.000 NA
ATOM     14  C   UNL     1      48.482   5.991  15.442  0.00  0.00    +0.000 C 
ATOM     15  H   UNL     1      49.682   7.005  16.837  0.00  0.00    +0.000 HD
ENDBRANCH  10  11
ENDBRANCH   8  10
ENDBRANCH   1   4
BRANCH   1  16
ATOM     16  C   UNL     1      43.369   3.788  11.323  0.00  0.00    +0.000 C 
BRANCH  16  21
ATOM     17  C   UNL     1      46.454   2.838   7.405  0.00  0.00    +0.000 A 
ATOM     18  C   UNL     1      46.056   4.050   7.954  0.00  0.00    +0.000 A 
ATOM     19  C   UNL     1      45.331   4.046   9.143  0.00  0.00    +0.000 A 
ATOM     20  C   UNL     1      44.999   2.838   9.753  0.00  0.00    +0.000 A 
ATOM     21  N   UNL     1      44.364   2.768  10.980  0.00  0.00    +0.000 N 
ATOM     22  N   UNL     1      45.344   1.657   9.206  0.00  0.00    +0.000 NA
ATOM     23  C   UNL     1      46.056   1.677   8.047  0.00  0.00    +0.000 A 
ATOM     24  H   UNL     1      44.097   1.800  11.159  0.00  0.00    +0.000 HD
BRANCH  17  26
ATOM     25  N   UNL     1      48.616   2.531   6.351  0.00  0.00    +0.000 N 
ATOM     26  C   UNL     1      47.275   2.751   6.181  0.00  0.00    +0.000 C 
ATOM     27  O   UNL     1      46.776   2.833   5.067  0.00  0.00    +0.000 OA
ATOM     28  H   UNL     1      49.151   2.354   5.507  0.00  0.00    +0.000 HD
ATOM     29  H   UNL     1      49.003   2.190   7.220  0.00  0.00    +0.000 HD
ENDBRANCH  17  26
ENDBRANCH  16  21
ENDBRANCH   1  16
TORSDOF 6
ENDMDL
MODEL 6
REMARK VINA RESULT:    -8.148      3.216      8.033
REMARK INTER + INTRA:         -11.914
REMARK INTER:                 -11.197
REMARK INTRA:                  -0.716
REMARK UNBOUND:                -0.907
REMARK  Name = 
REMARK  6 active torsions:
REMARK  status: ('A' for Active; 'I' for Inactive)
REMARK    1  A    between atoms: C_2  and  C_4
REMARK    2  A    between atoms: N_8  and  C_9
REMARK    3  A    between atoms: C_9  and  C_10
REMARK    4  A    between atoms: C_10  and  C_13
REMARK    5  A    between atoms: C_17  and  C_18
REMARK    6  A    between atoms: C_18  and  C_19
REMARK                            x       y       z     vdW  Elec       q    Type
REMARK                         _______ _______ _______ _____ _____    ______ ____
ROOT
ATOM      1  C   UNL     1      45.658   6.029  11.342  0.00  0.00    +0.000 C 
ATOM      2  F   UNL     1      44.701   6.995  11.213  0.00  0.00    +0.000 F 
ATOM      3  F   UNL     1      46.808   6.585  10.859  0.00  0.00    +0.000 F 
ENDROOT
BRANCH   1   4
ATOM      4  C   UNL     1      45.292   4.748  10.615  0.00  0.00    +0.000 A 
ATOM      5  C   UNL     1      44.533   3.760  11.259  0.00  0.00    +0.000 A 
ATOM      6  C   UNL     1      44.124   2.623  10.563  0.00  0.00    +0.000 A 
ATOM      7  C   UNL     1      44.460   2.469   9.217  0.00  0.00    +0.000 A 
ATOM      8  C   UNL     1      45.214   3.444   8.555  0.00  0.00    +0.000 A 
ATOM      9  C   UNL     1      45.636   4.575   9.263  0.00  0.00    +0.000 A 
BRANCH   8  10
ATOM     10  C   UNL     1      45.557   3.292   7.086  0.00  0.00    +0.000 C 
BRANCH  10  11
ATOM     11  C   UNL     1      47.056   3.081   6.897  0.00  0.00    +0.000 C 
ATOM     12  C   UNL     1      47.597   2.904   5.466  0.00  0.00    +0.000 C 
ATOM     13  N   UNL     1      48.254   1.652   5.859  0.00  0.00    +0.000 NA
ATOM     14  C   UNL     1      47.552   1.642   7.147  0.00  0.00    +0.000 C 
ATOM     15  H   UNL     1      49.268   1.723   5.939  0.00  0.00    +0.000 HD
ENDBRANCH  10  11
ENDBRANCH   8  10
ENDBRANCH   1   4
BRANCH   1  16
ATOM     16  C   UNL     1      45.838   5.707  12.846  0.00  0.00    +0.000 C 
BRANCH  16  21
ATOM     17  C   UNL     1      48.450   4.433  17.008  0.00  0.00    +0.000 A 
ATOM     18  C   UNL     1      47.462   3.736  16.327  0.00  0.00    +0.000 A 
ATOM     19  C   UNL     1      47.013   4.225  15.103  0.00  0.00    +0.000 A 
ATOM     20  C   UNL     1      47.539   5.409  14.590  0.00  0.00    +0.000 A 
ATOM     21  N   UNL     1      47.205   5.898  13.341  0.00  0.00    +0.000 N 
ATOM     22  N   UNL     1      48.468   6.114  15.264  0.00  0.00    +0.000 NA
ATOM     23  C   UNL     1      48.901   5.621  16.455  0.00  0.00    +0.000 A 
ATOM     24  H   UNL     1      47.593   6.835  13.236  0.00  0.00    +0.000 HD
BRANCH  17  26
ATOM     25  N   UNL     1      48.249   3.123  19.039  0.00  0.00    +0.000 N 
ATOM     26  C   UNL     1      49.028   3.956  18.280  0.00  0.00    +0.000 C 
ATOM     27  O   UNL     1      50.162   4.259  18.623  0.00  0.00    +0.000 OA
ATOM     28  H   UNL     1      48.696   2.706  19.849  0.00  0.00    +0.000 HD
ATOM     29  H   UNL     1      47.442   2.644  18.663  0.00  0.00    +0.000 HD
ENDBRANCH  17  26
ENDBRANCH  16  21
ENDBRANCH   1  16
TORSDOF 6
ENDMDL
MODEL 7
REMARK VINA RESULT:    -7.739      3.682      7.402
REMARK INTER + INTRA:         -11.360
REMARK INTER:                 -10.497
REMARK INTRA:                  -0.864
REMARK UNBOUND:                -0.907
REMARK  Name = 
REMARK  6 active torsions:
REMARK  status: ('A' for Active; 'I' for Inactive)
REMARK    1  A    between atoms: C_2  and  C_4
REMARK    2  A    between atoms: N_8  and  C_9
REMARK    3  A    between atoms: C_9  and  C_10
REMARK    4  A    between atoms: C_10  and  C_13
REMARK    5  A    between atoms: C_17  and  C_18
REMARK    6  A    between atoms: C_18  and  C_19
REMARK                            x       y       z     vdW  Elec       q    Type
REMARK                         _______ _______ _______ _____ _____    ______ ____
ROOT
ATOM      1  C   UNL     1      44.391   6.141  11.420  0.00  0.00    +0.000 C 
ATOM      2  F   UNL     1      43.066   6.285  11.717  0.00  0.00    +0.000 F 
ATOM      3  F   UNL     1      44.757   7.301  10.802  0.00  0.00    +0.000 F 
ENDROOT
BRANCH   1   4
ATOM      4  C   UNL     1      44.666   4.921  10.560  0.00  0.00    +0.000 A 
ATOM      5  C   UNL     1      44.034   3.700  10.839  0.00  0.00    +0.000 A 
ATOM      6  C   UNL     1      44.220   2.605   9.996  0.00  0.00    +0.000 A 
ATOM      7  C   UNL     1      45.027   2.723   8.864  0.00  0.00    +0.000 A 
ATOM      8  C   UNL     1      45.664   3.933   8.566  0.00  0.00    +0.000 A 
ATOM      9  C   UNL     1      45.488   5.024   9.424  0.00  0.00    +0.000 A 
BRANCH   8  10
ATOM     10  C   UNL     1      46.520   4.071   7.322  0.00  0.00    +0.000 C 
BRANCH  10  11
ATOM     11  C   UNL     1      46.716   2.719   6.644  0.00  0.00    +0.000 C 
ATOM     12  C   UNL     1      47.961   1.889   7.009  0.00  0.00    +0.000 C 
ATOM     13  N   UNL     1      48.318   1.784   5.589  0.00  0.00    +0.000 NA
ATOM     14  C   UNL     1      47.305   2.779   5.221  0.00  0.00    +0.000 C 
ATOM     15  H   UNL     1      48.159   0.860   5.188  0.00  0.00    +0.000 HD
ENDBRANCH  10  11
ENDBRANCH   8  10
ENDBRANCH   1   4
BRANCH   1  16
ATOM     16  C   UNL     1      45.182   5.996  12.745  0.00  0.00    +0.000 C 
BRANCH  16  21
ATOM     17  C   UNL     1      49.771   8.165  12.741  0.00  0.00    +0.000 A 
ATOM     18  C   UNL     1      49.158   7.373  11.780  0.00  0.00    +0.000 A 
ATOM     19  C   UNL     1      47.817   7.034  11.941  0.00  0.00    +0.000 A 
ATOM     20  C   UNL     1      47.117   7.472  13.064  0.00  0.00    +0.000 A 
ATOM     21  N   UNL     1      45.763   7.250  13.235  0.00  0.00    +0.000 N 
ATOM     22  N   UNL     1      47.715   8.206  14.021  0.00  0.00    +0.000 NA
ATOM     23  C   UNL     1      49.024   8.533  13.848  0.00  0.00    +0.000 A 
ATOM     24  H   UNL     1      45.499   7.528  14.180  0.00  0.00    +0.000 HD
BRANCH  17  26
ATOM     25  N   UNL     1      52.012   7.845  11.872  0.00  0.00    +0.000 N 
ATOM     26  C   UNL     1      51.170   8.622  12.622  0.00  0.00    +0.000 C 
ATOM     27  O   UNL     1      51.550   9.664  13.136  0.00  0.00    +0.000 OA
ATOM     28  H   UNL     1      52.936   8.225  11.697  0.00  0.00    +0.000 HD
ATOM     29  H   UNL     1      51.673   7.147  11.224  0.00  0.00    +0.000 HD
ENDBRANCH  17  26
ENDBRANCH  16  21
ENDBRANCH   1  16
TORSDOF 6
ENDMDL
MODEL 8
REMARK VINA RESULT:    -7.195      3.370      7.532
REMARK INTER + INTRA:         -10.626
REMARK INTER:                  -9.683
REMARK INTRA:                  -0.943
REMARK UNBOUND:                -0.907
REMARK  Name = 
REMARK  6 active torsions:
REMARK  status: ('A' for Active; 'I' for Inactive)
REMARK    1  A    between atoms: C_2  and  C_4
REMARK    2  A    between atoms: N_8  and  C_9
REMARK    3  A    between atoms: C_9  and  C_10
REMARK    4  A    between atoms: C_10  and  C_13
REMARK    5  A    between atoms: C_17  and  C_18
REMARK    6  A    between atoms: C_18  and  C_19
REMARK                            x       y       z     vdW  Elec       q    Type
REMARK                         _______ _______ _______ _____ _____    ______ ____
ROOT
ATOM      1  C   UNL     1      44.686   3.610  12.507  0.00  0.00    +0.000 C 
ATOM      2  F   UNL     1      43.888   2.501  12.498  0.00  0.00    +0.000 F 
ATOM      3  F   UNL     1      44.003   4.547  13.228  0.00  0.00    +0.000 F 
ENDROOT
BRANCH   1   4
ATOM      4  C   UNL     1      45.022   4.096  11.110  0.00  0.00    +0.000 A 
ATOM      5  C   UNL     1      45.257   5.458  10.870  0.00  0.00    +0.000 A 
ATOM      6  C   UNL     1      45.651   5.890   9.604  0.00  0.00    +0.000 A 
ATOM      7  C   UNL     1      45.826   4.967   8.573  0.00  0.00    +0.000 A 
ATOM      8  C   UNL     1      45.600   3.603   8.792  0.00  0.00    +0.000 A 
ATOM      9  C   UNL     1      45.188   3.177  10.058  0.00  0.00    +0.000 A 
BRANCH   8  10
ATOM     10  C   UNL     1      45.814   2.595   7.679  0.00  0.00    +0.000 C 
BRANCH  10  11
ATOM     11  C   UNL     1      47.094   2.900   6.908  0.00  0.00    +0.000 C 
ATOM     12  C   UNL     1      47.073   2.780   5.373  0.00  0.00    +0.000 C 
ATOM     13  N   UNL     1      48.232   1.880   5.418  0.00  0.00    +0.000 NA
ATOM     14  C   UNL     1      48.128   1.757   6.876  0.00  0.00    +0.000 C 
ATOM     15  H   UNL     1      49.101   2.307   5.097  0.00  0.00    +0.000 HD
ENDBRANCH  10  11
ENDBRANCH   8  10
ENDBRANCH   1   4
BRANCH   1  16
ATOM     16  C   UNL     1      46.006   3.264  13.239  0.00  0.00    +0.000 C 
BRANCH  16  21
ATOM     17  C   UNL     1      49.171   7.018  14.529  0.00  0.00    +0.000 A 
ATOM     18  C   UNL     1      48.548   6.753  13.316  0.00  0.00    +0.000 A 
ATOM     19  C   UNL     1      47.583   5.751  13.259  0.00  0.00    +0.000 A 
ATOM     20  C   UNL     1      47.271   5.017  14.402  0.00  0.00    +0.000 A 
ATOM     21  N   UNL     1      46.259   4.075  14.434  0.00  0.00    +0.000 N 
ATOM     22  N   UNL     1      47.899   5.240  15.572  0.00  0.00    +0.000 NA
ATOM     23  C   UNL     1      48.835   6.226  15.614  0.00  0.00    +0.000 A 
ATOM     24  H   UNL     1      46.304   3.570  15.319  0.00  0.00    +0.000 HD
BRANCH  17  26
ATOM     25  N   UNL     1      51.432   7.850  14.254  0.00  0.00    +0.000 N 
ATOM     26  C   UNL     1      50.160   8.102  14.695  0.00  0.00    +0.000 C 
ATOM     27  O   UNL     1      49.850   9.186  15.168  0.00  0.00    +0.000 OA
ATOM     28  H   UNL     1      52.072   8.637  14.263  0.00  0.00    +0.000 HD
ATOM     29  H   UNL     1      51.647   7.090  13.624  0.00  0.00    +0.000 HD
ENDBRANCH  17  26
ENDBRANCH  16  21
ENDBRANCH   1  16
TORSDOF 6
ENDMDL
MODEL 9
REMARK VINA RESULT:    -7.175      3.403      8.155
REMARK INTER + INTRA:         -10.599
REMARK INTER:                  -9.939
REMARK INTRA:                  -0.661
REMARK UNBOUND:                -0.907
REMARK  Name = 
REMARK  6 active torsions:
REMARK  status: ('A' for Active; 'I' for Inactive)
REMARK    1  A    between atoms: C_2  and  C_4
REMARK    2  A    between atoms: N_8  and  C_9
REMARK    3  A    between atoms: C_9  and  C_10
REMARK    4  A    between atoms: C_10  and  C_13
REMARK    5  A    between atoms: C_17  and  C_18
REMARK    6  A    between atoms: C_18  and  C_19
REMARK                            x       y       z     vdW  Elec       q    Type
REMARK                         _______ _______ _______ _____ _____    ______ ____
ROOT
ATOM      1  C   UNL     1      46.463   6.668  12.419  0.00  0.00    +0.000 C 
ATOM      2  F   UNL     1      46.030   7.632  13.284  0.00  0.00    +0.000 F 
ATOM      3  F   UNL     1      47.174   7.329  11.459  0.00  0.00    +0.000 F 
ENDROOT
BRANCH   1   4
ATOM      4  C   UNL     1      45.323   5.858  11.831  0.00  0.00    +0.000 A 
ATOM      5  C   UNL     1      44.094   5.773  12.503  0.00  0.00    +0.000 A 
ATOM      6  C   UNL     1      43.021   5.101  11.920  0.00  0.00    +0.000 A 
ATOM      7  C   UNL     1      43.161   4.519  10.660  0.00  0.00    +0.000 A 
ATOM      8  C   UNL     1      44.377   4.594   9.972  0.00  0.00    +0.000 A 
ATOM      9  C   UNL     1      45.456   5.255  10.568  0.00  0.00    +0.000 A 
BRANCH   8  10
ATOM     10  C   UNL     1      44.524   3.986   8.591  0.00  0.00    +0.000 C 
BRANCH  10  11
ATOM     11  C   UNL     1      45.920   3.402   8.399  0.00  0.00    +0.000 C 
ATOM     12  C   UNL     1      46.497   3.333   6.973  0.00  0.00    +0.000 C 
ATOM     13  N   UNL     1      46.762   1.899   7.140  0.00  0.00    +0.000 NA
ATOM     14  C   UNL     1      45.991   1.862   8.387  0.00  0.00    +0.000 C 
ATOM     15  H   UNL     1      47.750   1.670   7.255  0.00  0.00    +0.000 HD
ENDBRANCH  10  11
ENDBRANCH   8  10
ENDBRANCH   1   4
BRANCH   1  16
ATOM     16  C   UNL     1      47.408   5.707  13.183  0.00  0.00    +0.000 C 
BRANCH  16  21
ATOM     17  C   UNL     1      48.614   4.505  17.965  0.00  0.00    +0.000 A 
ATOM     18  C   UNL     1      48.913   5.643  17.229  0.00  0.00    +0.000 A 
ATOM     19  C   UNL     1      48.321   5.814  15.980  0.00  0.00    +0.000 A 
ATOM     20  C   UNL     1      47.459   4.840  15.479  0.00  0.00    +0.000 A 
ATOM     21  N   UNL     1      46.766   4.993  14.291  0.00  0.00    +0.000 N 
ATOM     22  N   UNL     1      47.195   3.714  16.168  0.00  0.00    +0.000 NA
ATOM     23  C   UNL     1      47.777   3.564  17.388  0.00  0.00    +0.000 A 
ATOM     24  H   UNL     1      46.315   4.110  14.056  0.00  0.00    +0.000 HD
BRANCH  17  26
ATOM     25  N   UNL     1      48.338   3.601  20.199  0.00  0.00    +0.000 N 
ATOM     26  C   UNL     1      49.149   4.271  19.321  0.00  0.00    +0.000 C 
ATOM     27  O   UNL     1      50.277   4.625  19.635  0.00  0.00    +0.000 OA
ATOM     28  H   UNL     1      48.757   3.341  21.086  0.00  0.00    +0.000 HD
ATOM     29  H   UNL     1      47.536   3.066  19.895  0.00  0.00    +0.000 HD
ENDBRANCH  17  26
ENDBRANCH  16  21
ENDBRANCH   1  16
TORSDOF 6
ENDMDL
