MODEL 1
REMARK VINA RESULT:    -9.112      0.000      0.000
REMARK INTER + INTRA:         -12.503
REMARK INTER:                 -11.776
REMARK INTRA:                  -0.727
REMARK UNBOUND:                -0.727
REMARK  Name = 
REMARK  5 active torsions:
REMARK  status: ('A' for Active; 'I' for Inactive)
REMARK    1  A    between atoms: C_2  and  C_4
REMARK    2  A    between atoms: C_7  and  O_8
REMARK    3  A    between atoms: O_8  and  C_9
REMARK    4  A    between atoms: C_9  and  C_10
REMARK    5  A    between atoms: C_15  and  C_16
REMARK                            x       y       z     vdW  Elec       q    Type
REMARK                         _______ _______ _______ _____ _____    ______ ____
ROOT
ATOM      1  C   UNL     1      43.934   4.222  11.486  0.00  0.00    +0.000 C 
ENDROOT
BRANCH   1   2
ATOM      2  C   UNL     1      45.133   4.853  12.165  0.00  0.00    +0.000 A 
ATOM      3  C   UNL     1      45.694   6.041  11.696  0.00  0.00    +0.000 A 
ATOM      4  C   UNL     1      46.790   6.598  12.348  0.00  0.00    +0.000 A 
ATOM      5  C   UNL     1      47.332   5.993  13.492  0.00  0.00    +0.000 A 
ATOM      6 CL   UNL     1      48.761   6.750  14.121  0.00  0.00    +0.000 Cl
ATOM      7  C   UNL     1      46.760   4.823  14.039  0.00  0.00    +0.000 A 
ATOM      8  C   UNL     1      45.652   4.279  13.343  0.00  0.00    +0.000 A 
BRANCH   7   9
ATOM      9  C   UNL     1      47.234   4.175  15.289  0.00  0.00    +0.000 A 
ATOM     10  C   UNL     1      47.105   4.765  16.550  0.00  0.00    +0.000 A 
ATOM     11  C   UNL     1      47.614   4.113  17.675  0.00  0.00    +0.000 A 
ATOM     12  C   UNL     1      48.220   2.874  17.528  0.00  0.00    +0.000 A 
ATOM     13  C   UNL     1      48.309   2.349  16.255  0.00  0.00    +0.000 A 
ATOM     14  N   UNL     1      47.857   2.980  15.148  0.00  0.00    +0.000 NA
ENDBRANCH   7   9
ENDBRANCH   1   2
BRANCH   1  15
ATOM     15  O   UNL     1      43.861   4.628  10.115  0.00  0.00    +0.000 OA
BRANCH  15  19
ATOM     16  C   UNL     1      46.418   2.450   7.738  0.00  0.00    +0.000 A 
ATOM     17  C   UNL     1      45.645   1.796   8.699  0.00  0.00    +0.000 A 
ATOM     18  C   UNL     1      44.785   2.548   9.502  0.00  0.00    +0.000 A 
ATOM     19  C   UNL     1      44.729   3.922   9.310  0.00  0.00    +0.000 A 
ATOM     20  N   UNL     1      45.472   4.577   8.395  0.00  0.00    +0.000 NA
ATOM     21  C   UNL     1      46.307   3.830   7.636  0.00  0.00    +0.000 A 
BRANCH  16  23
ATOM     22  N   UNL     1      48.470   2.441   6.433  0.00  0.00    +0.000 N 
ATOM     23  C   UNL     1      47.357   1.757   6.831  0.00  0.00    +0.000 C 
ATOM     24  O   UNL     1      47.167   0.603   6.478  0.00  0.00    +0.000 OA
ATOM     25  H   UNL     1      49.156   1.908   5.909  0.00  0.00    +0.000 HD
ATOM     26  H   UNL     1      48.790   3.284   6.890  0.00  0.00    +0.000 HD
ENDBRANCH  16  23
ENDBRANCH  15  19
ENDBRANCH   1  15
TORSDOF 5
ENDMDL
MODEL 2
REMARK VINA RESULT:    -8.731      2.137      3.933
REMARK INTER + INTRA:         -12.010
REMARK INTER:                 -11.209
REMARK INTRA:                  -0.801
REMARK UNBOUND:                -0.727
REMARK  Name = 
REMARK  5 active torsions:
REMARK  status: ('A' for Active; 'I' for Inactive)
REMARK    1  A    between atoms: C_2  and  C_4
REMARK    2  A    between atoms: C_7  and  O_8
REMARK    3  A    between atoms: O_8  and  C_9
REMARK    4  A    between atoms: C_9  and  C_10
REMARK    5  A    between atoms: C_15  and  C_16
REMARK                            x       y       z     vdW  Elec       q    Type
REMARK                         _______ _______ _______ _____ _____    ______ ____
ROOT
ATOM      1  C   UNL     1      43.689   4.268  11.206  0.00  0.00    +0.000 C 
ENDROOT
BRANCH   1   2
ATOM      2  C   UNL     1      44.848   4.762  12.048  0.00  0.00    +0.000 A 
ATOM      3  C   UNL     1      45.444   3.953  13.016  0.00  0.00    +0.000 A 
ATOM      4  C   UNL     1      46.513   4.436  13.765  0.00  0.00    +0.000 A 
ATOM      5  C   UNL     1      47.020   5.726  13.550  0.00  0.00    +0.000 A 
ATOM      6 CL   UNL     1      48.278   6.216  14.640  0.00  0.00    +0.000 Cl
ATOM      7  C   UNL     1      46.489   6.559  12.541  0.00  0.00    +0.000 A 
ATOM      8  C   UNL     1      45.396   6.038  11.804  0.00  0.00    +0.000 A 
BRANCH   7   9
ATOM      9  C   UNL     1      47.027   7.903  12.207  0.00  0.00    +0.000 A 
ATOM     10  C   UNL     1      48.354   8.119  11.820  0.00  0.00    +0.000 A 
ATOM     11  C   UNL     1      48.797   9.418  11.564  0.00  0.00    +0.000 A 
ATOM     12  C   UNL     1      47.907  10.475  11.672  0.00  0.00    +0.000 A 
ATOM     13  C   UNL     1      46.612  10.189  12.055  0.00  0.00    +0.000 A 
ATOM     14  N   UNL     1      46.171   8.945  12.343  0.00  0.00    +0.000 NA
ENDBRANCH   7   9
ENDBRANCH   1   2
BRANCH   1  15
ATOM     15  O   UNL     1      43.809   4.741   9.860  0.00  0.00    +0.000 OA
BRANCH  15  19
ATOM     16  C   UNL     1      46.466   2.476   7.682  0.00  0.00    +0.000 A 
ATOM     17  C   UNL     1      45.610   1.851   8.589  0.00  0.00    +0.000 A 
ATOM     18  C   UNL     1      44.717   2.631   9.326  0.00  0.00    +0.000 A 
ATOM     19  C   UNL     1      44.712   4.005   9.123  0.00  0.00    +0.000 A 
ATOM     20  N   UNL     1      45.535   4.633   8.258  0.00  0.00    +0.000 NA
ATOM     21  C   UNL     1      46.400   3.857   7.564  0.00  0.00    +0.000 A 
BRANCH  16  23
ATOM     22  N   UNL     1      48.531   2.450   6.397  0.00  0.00    +0.000 N 
ATOM     23  C   UNL     1      47.447   1.752   6.848  0.00  0.00    +0.000 C 
ATOM     24  O   UNL     1      47.316   0.562   6.598  0.00  0.00    +0.000 OA
ATOM     25  H   UNL     1      49.248   1.906   5.928  0.00  0.00    +0.000 HD
ATOM     26  H   UNL     1      48.806   3.344   6.780  0.00  0.00    +0.000 HD
ENDBRANCH  16  23
ENDBRANCH  15  19
ENDBRANCH   1  15
TORSDOF 5
ENDMDL
MODEL 3
REMARK VINA RESULT:    -8.644      2.393      4.033
REMARK INTER + INTRA:         -11.897
REMARK INTER:                 -11.081
REMARK INTRA:                  -0.816
REMARK UNBOUND:                -0.727
REMARK  Name = 
REMARK  5 active torsions:
REMARK  status: ('A' for Active; 'I' for Inactive)
REMARK    1  A    between atoms: C_2  and  C_4
REMARK    2  A    between atoms: C_7  and  O_8
REMARK    3  A    between atoms: O_8  and  C_9
REMARK    4  A    between atoms: C_9  and  C_10
REMARK    5  A    between atoms: C_15  and  C_16
REMARK                            x       y       z     vdW  Elec       q    Type
REMARK                         _______ _______ _______ _____ _____    ______ ____
ROOT
ATOM      1  C   UNL     1      43.536   4.716  10.721  0.00  0.00    +0.000 C 
ENDROOT
BRANCH   1   2
ATOM      2  C   UNL     1      44.649   5.032  11.700  0.00  0.00    +0.000 A 
ATOM      3  C   UNL     1      44.958   4.174  12.756  0.00  0.00    +0.000 A 
ATOM      4  C   UNL     1      45.992   4.491  13.631  0.00  0.00    +0.000 A 
ATOM      5  C   UNL     1      46.751   5.658  13.458  0.00  0.00    +0.000 A 
ATOM      6 CL   UNL     1      47.928   5.964  14.695  0.00  0.00    +0.000 Cl
ATOM      7  C   UNL     1      46.516   6.526  12.369  0.00  0.00    +0.000 A 
ATOM      8  C   UNL     1      45.448   6.177  11.504  0.00  0.00    +0.000 A 
BRANCH   7   9
ATOM      9  C   UNL     1      47.330   7.735  12.082  0.00  0.00    +0.000 A 
ATOM     10  C   UNL     1      48.672   7.676  11.694  0.00  0.00    +0.000 A 
ATOM     11  C   UNL     1      49.384   8.858  11.483  0.00  0.00    +0.000 A 
ATOM     12  C   UNL     1      48.742  10.077  11.637  0.00  0.00    +0.000 A 
ATOM     13  C   UNL     1      47.415  10.061  12.018  0.00  0.00    +0.000 A 
ATOM     14  N   UNL     1      46.717   8.930  12.263  0.00  0.00    +0.000 NA
ENDBRANCH   7   9
ENDBRANCH   1   2
BRANCH   1  15
ATOM     15  O   UNL     1      43.570   3.333  10.351  0.00  0.00    +0.000 OA
BRANCH  15  19
ATOM     16  C   UNL     1      46.417   2.628   7.464  0.00  0.00    +0.000 A 
ATOM     17  C   UNL     1      45.809   3.882   7.541  0.00  0.00    +0.000 A 
ATOM     18  C   UNL     1      44.841   4.106   8.521  0.00  0.00    +0.000 A 
ATOM     19  C   UNL     1      44.523   3.070   9.390  0.00  0.00    +0.000 A 
ATOM     20  N   UNL     1      45.090   1.848   9.331  0.00  0.00    +0.000 NA
ATOM     21  C   UNL     1      46.017   1.650   8.364  0.00  0.00    +0.000 A 
BRANCH  16  23
ATOM     22  N   UNL     1      47.483   2.994   5.309  0.00  0.00    +0.000 N 
ATOM     23  C   UNL     1      47.455   2.279   6.472  0.00  0.00    +0.000 C 
ATOM     24  O   UNL     1      48.284   1.408   6.696  0.00  0.00    +0.000 OA
ATOM     25  H   UNL     1      48.273   2.819   4.697  0.00  0.00    +0.000 HD
ATOM     26  H   UNL     1      46.992   3.870   5.191  0.00  0.00    +0.000 HD
ENDBRANCH  16  23
ENDBRANCH  15  19
ENDBRANCH   1  15
TORSDOF 5
ENDMDL
MODEL 4
REMARK VINA RESULT:    -8.409      2.763      3.453
REMARK INTER + INTRA:         -11.594
REMARK INTER:                 -10.722
REMARK INTRA:                  -0.872
REMARK UNBOUND:                -0.727
REMARK  Name = 
REMARK  5 active torsions:
REMARK  status: ('A' for Active; 'I' for Inactive)
REMARK    1  A    between atoms: C_2  and  C_4
REMARK    2  A    between atoms: C_7  and  O_8
REMARK    3  A    between atoms: O_8  and  C_9
REMARK    4  A    between atoms: C_9  and  C_10
REMARK    5  A    between atoms: C_15  and  C_16
REMARK                            x       y       z     vdW  Elec       q    Type
REMARK                         _______ _______ _______ _____ _____    ______ ____
ROOT
ATOM      1  C   UNL     1      44.232   3.171  11.420  0.00  0.00    +0.000 C 
ENDROOT
BRANCH   1   2
ATOM      2  C   UNL     1      44.459   4.666  11.524  0.00  0.00    +0.000 A 
ATOM      3  C   UNL     1      43.419   5.576  11.336  0.00  0.00    +0.000 A 
ATOM      4  C   UNL     1      43.661   6.942  11.448  0.00  0.00    +0.000 A 
ATOM      5  C   UNL     1      44.939   7.424  11.770  0.00  0.00    +0.000 A 
ATOM      6 CL   UNL     1      45.100   9.151  11.762  0.00  0.00    +0.000 Cl
ATOM      7  C   UNL     1      46.008   6.538  12.029  0.00  0.00    +0.000 A 
ATOM      8  C   UNL     1      45.727   5.155  11.896  0.00  0.00    +0.000 A 
BRANCH   7   9
ATOM      9  C   UNL     1      47.364   6.977  12.450  0.00  0.00    +0.000 A 
ATOM     10  C   UNL     1      48.298   7.524  11.565  0.00  0.00    +0.000 A 
ATOM     11  C   UNL     1      49.568   7.873  12.027  0.00  0.00    +0.000 A 
ATOM     12  C   UNL     1      49.879   7.693  13.366  0.00  0.00    +0.000 A 
ATOM     13  C   UNL     1      48.908   7.151  14.184  0.00  0.00    +0.000 A 
ATOM     14  N   UNL     1      47.685   6.773  13.751  0.00  0.00    +0.000 NA
ENDBRANCH   7   9
ENDBRANCH   1   2
BRANCH   1  15
ATOM     15  O   UNL     1      43.687   2.833  10.139  0.00  0.00    +0.000 OA
BRANCH  15  19
ATOM     16  C   UNL     1      46.596   2.506   7.246  0.00  0.00    +0.000 A 
ATOM     17  C   UNL     1      45.904   3.709   7.395  0.00  0.00    +0.000 A 
ATOM     18  C   UNL     1      44.916   3.805   8.377  0.00  0.00    +0.000 A 
ATOM     19  C   UNL     1      44.662   2.697   9.174  0.00  0.00    +0.000 A 
ATOM     20  N   UNL     1      45.311   1.521   9.044  0.00  0.00    +0.000 NA
ATOM     21  C   UNL     1      46.255   1.448   8.077  0.00  0.00    +0.000 A 
BRANCH  16  23
ATOM     22  N   UNL     1      47.703   3.138   5.175  0.00  0.00    +0.000 N 
ATOM     23  C   UNL     1      47.662   2.291   6.246  0.00  0.00    +0.000 C 
ATOM     24  O   UNL     1      48.501   1.414   6.387  0.00  0.00    +0.000 OA
ATOM     25  H   UNL     1      48.509   3.047   4.566  0.00  0.00    +0.000 HD
ATOM     26  H   UNL     1      47.199   4.013   5.147  0.00  0.00    +0.000 HD
ENDBRANCH  16  23
ENDBRANCH  15  19
ENDBRANCH   1  15
TORSDOF 5
ENDMDL
MODEL 5
REMARK VINA RESULT:    -7.970      2.735      3.306
REMARK INTER + INTRA:         -11.026
REMARK INTER:                 -10.196
REMARK INTRA:                  -0.830
REMARK UNBOUND:                -0.727
REMARK  Name = 
REMARK  5 active torsions:
REMARK  status: ('A' for Active; 'I' for Inactive)
REMARK    1  A    between atoms: C_2  and  C_4
REMARK    2  A    between atoms: C_7  and  O_8
REMARK    3  A    between atoms: O_8  and  C_9
REMARK    4  A    between atoms: C_9  and  C_10
REMARK    5  A    between atoms: C_15  and  C_16
REMARK                            x       y       z     vdW  Elec       q    Type
REMARK                         _______ _______ _______ _____ _____    ______ ____
ROOT
ATOM      1  C   UNL     1      44.381   4.107  11.514  0.00  0.00    +0.000 C 
ENDROOT
BRANCH   1   2
ATOM      2  C   UNL     1      44.811   5.556  11.630  0.00  0.00    +0.000 A 
ATOM      3  C   UNL     1      43.920   6.602  11.390  0.00  0.00    +0.000 A 
ATOM      4  C   UNL     1      44.345   7.921  11.514  0.00  0.00    +0.000 A 
ATOM      5  C   UNL     1      45.661   8.221  11.901  0.00  0.00    +0.000 A 
ATOM      6 CL   UNL     1      46.063   9.909  11.901  0.00  0.00    +0.000 Cl
ATOM      7  C   UNL     1      46.580   7.196  12.213  0.00  0.00    +0.000 A 
ATOM      8  C   UNL     1      46.115   5.865  12.066  0.00  0.00    +0.000 A 
BRANCH   7   9
ATOM      9  C   UNL     1      47.961   7.442  12.703  0.00  0.00    +0.000 A 
ATOM     10  C   UNL     1      49.005   7.853  11.868  0.00  0.00    +0.000 A 
ATOM     11  C   UNL     1      50.287   8.023  12.394  0.00  0.00    +0.000 A 
ATOM     12  C   UNL     1      50.502   7.805  13.746  0.00  0.00    +0.000 A 
ATOM     13  C   UNL     1      49.426   7.405  14.513  0.00  0.00    +0.000 A 
ATOM     14  N   UNL     1      48.186   7.200  14.017  0.00  0.00    +0.000 NA
ENDBRANCH   7   9
ENDBRANCH   1   2
BRANCH   1  15
ATOM     15  O   UNL     1      43.793   3.858  10.232  0.00  0.00    +0.000 OA
BRANCH  15  19
ATOM     16  C   UNL     1      46.563   2.654   7.437  0.00  0.00    +0.000 A 
ATOM     17  C   UNL     1      46.030   1.720   8.326  0.00  0.00    +0.000 A 
ATOM     18  C   UNL     1      45.095   2.142   9.273  0.00  0.00    +0.000 A 
ATOM     19  C   UNL     1      44.727   3.481   9.290  0.00  0.00    +0.000 A 
ATOM     20  N   UNL     1      45.233   4.405   8.447  0.00  0.00    +0.000 NA
ATOM     21  C   UNL     1      46.147   3.974   7.546  0.00  0.00    +0.000 A 
BRANCH  16  23
ATOM     22  N   UNL     1      47.500   3.024   5.223  0.00  0.00    +0.000 N 
ATOM     23  C   UNL     1      47.554   2.321   6.393  0.00  0.00    +0.000 C 
ATOM     24  O   UNL     1      48.415   1.473   6.579  0.00  0.00    +0.000 OA
ATOM     25  H   UNL     1      48.259   2.861   4.570  0.00  0.00    +0.000 HD
ATOM     26  H   UNL     1      46.982   3.885   5.123  0.00  0.00    +0.000 HD
ENDBRANCH  16  23
ENDBRANCH  15  19
ENDBRANCH   1  15
TORSDOF 5
ENDMDL
MODEL 6
REMARK VINA RESULT:    -7.300      1.926      2.381
REMARK INTER + INTRA:         -10.160
REMARK INTER:                  -9.647
REMARK INTRA:                  -0.514
REMARK UNBOUND:                -0.727
REMARK  Name = 
REMARK  5 active torsions:
REMARK  status: ('A' for Active; 'I' for Inactive)
REMARK    1  A    between atoms: C_2  and  C_4
REMARK    2  A    between atoms: C_7  and  O_8
REMARK    3  A    between atoms: O_8  and  C_9
REMARK    4  A    between atoms: C_9  and  C_10
REMARK    5  A    between atoms: C_15  and  C_16
REMARK                            x       y       z     vdW  Elec       q    Type
REMARK                         _______ _______ _______ _____ _____    ______ ____
ROOT
ATOM      1  C   UNL     1      45.143   4.270  11.852  0.00  0.00    +0.000 C 
ENDROOT
BRANCH   1   2
ATOM      2  C   UNL     1      45.777   5.593  12.234  0.00  0.00    +0.000 A 
ATOM      3  C   UNL     1      45.273   6.805  11.765  0.00  0.00    +0.000 A 
ATOM      4  C   UNL     1      45.873   8.002  12.143  0.00  0.00    +0.000 A 
ATOM      5  C   UNL     1      46.975   8.013  13.012  0.00  0.00    +0.000 A 
ATOM      6 CL   UNL     1      47.676   9.575  13.296  0.00  0.00    +0.000 Cl
ATOM      7  C   UNL     1      47.483   6.815  13.560  0.00  0.00    +0.000 A 
ATOM      8  C   UNL     1      46.852   5.615  13.145  0.00  0.00    +0.000 A 
BRANCH   7   9
ATOM      9  C   UNL     1      48.595   6.759  14.545  0.00  0.00    +0.000 A 
ATOM     10  C   UNL     1      49.792   7.463  14.383  0.00  0.00    +0.000 A 
ATOM     11  C   UNL     1      50.808   7.326  15.330  0.00  0.00    +0.000 A 
ATOM     12  C   UNL     1      50.606   6.512  16.434  0.00  0.00    +0.000 A 
ATOM     13  C   UNL     1      49.398   5.851  16.532  0.00  0.00    +0.000 A 
ATOM     14  N   UNL     1      48.415   5.940  15.609  0.00  0.00    +0.000 NA
ENDBRANCH   7   9
ENDBRANCH   1   2
BRANCH   1  15
ATOM     15  O   UNL     1      44.403   4.401  10.633  0.00  0.00    +0.000 OA
BRANCH  15  19
ATOM     16  C   UNL     1      46.517   3.064   7.365  0.00  0.00    +0.000 A 
ATOM     17  C   UNL     1      45.936   2.141   8.235  0.00  0.00    +0.000 A 
ATOM     18  C   UNL     1      45.227   2.607   9.343  0.00  0.00    +0.000 A 
ATOM     19  C   UNL     1      45.121   3.978   9.535  0.00  0.00    +0.000 A 
ATOM     20  N   UNL     1      45.679   4.891   8.712  0.00  0.00    +0.000 NA
ATOM     21  C   UNL     1      46.373   4.415   7.652  0.00  0.00    +0.000 A 
BRANCH  16  23
ATOM     22  N   UNL     1      48.591   2.323   6.333  0.00  0.00    +0.000 N 
ATOM     23  C   UNL     1      47.285   2.686   6.161  0.00  0.00    +0.000 C 
ATOM     24  O   UNL     1      46.766   2.662   5.055  0.00  0.00    +0.000 OA
ATOM     25  H   UNL     1      49.062   1.955   5.513  0.00  0.00    +0.000 HD
ATOM     26  H   UNL     1      48.981   2.088   7.235  0.00  0.00    +0.000 HD
ENDBRANCH  16  23
ENDBRANCH  15  19
ENDBRANCH   1  15
TORSDOF 5
ENDMDL
MODEL 7
REMARK VINA RESULT:    -6.805      2.327      3.415
REMARK INTER + INTRA:          -9.521
REMARK INTER:                  -8.882
REMARK INTRA:                  -0.640
REMARK UNBOUND:                -0.727
REMARK  Name = 
REMARK  5 active torsions:
REMARK  status: ('A' for Active; 'I' for Inactive)
REMARK    1  A    between atoms: C_2  and  C_4
REMARK    2  A    between atoms: C_7  and  O_8
REMARK    3  A    between atoms: O_8  and  C_9
REMARK    4  A    between atoms: C_9  and  C_10
REMARK    5  A    between atoms: C_15  and  C_16
REMARK                            x       y       z     vdW  Elec       q    Type
REMARK                         _______ _______ _______ _____ _____    ______ ____
ROOT
ATOM      1  C   UNL     1      44.817   6.095  11.035  0.00  0.00    +0.000 C 
ENDROOT
BRANCH   1   2
ATOM      2  C   UNL     1      45.749   5.900  12.214  0.00  0.00    +0.000 A 
ATOM      3  C   UNL     1      45.533   4.893  13.155  0.00  0.00    +0.000 A 
ATOM      4  C   UNL     1      46.414   4.735  14.220  0.00  0.00    +0.000 A 
ATOM      5  C   UNL     1      47.537   5.565  14.356  0.00  0.00    +0.000 A 
ATOM      6 CL   UNL     1      48.472   5.313  15.795  0.00  0.00    +0.000 Cl
ATOM      7  C   UNL     1      47.830   6.559  13.396  0.00  0.00    +0.000 A 
ATOM      8  C   UNL     1      46.906   6.696  12.330  0.00  0.00    +0.000 A 
BRANCH   7   9
ATOM      9  C   UNL     1      49.041   7.419  13.435  0.00  0.00    +0.000 A 
ATOM     10  C   UNL     1      49.453   8.103  14.583  0.00  0.00    +0.000 A 
ATOM     11  C   UNL     1      50.578   8.927  14.531  0.00  0.00    +0.000 A 
ATOM     12  C   UNL     1      51.288   9.037  13.345  0.00  0.00    +0.000 A 
ATOM     13  C   UNL     1      50.827   8.330  12.252  0.00  0.00    +0.000 A 
ATOM     14  N   UNL     1      49.720   7.556  12.271  0.00  0.00    +0.000 NA
ENDBRANCH   7   9
ENDBRANCH   1   2
BRANCH   1  15
ATOM     15  O   UNL     1      44.245   4.845  10.633  0.00  0.00    +0.000 OA
BRANCH  15  19
ATOM     16  C   UNL     1      46.353   2.969   7.637  0.00  0.00    +0.000 A 
ATOM     17  C   UNL     1      45.673   2.203   8.586  0.00  0.00    +0.000 A 
ATOM     18  C   UNL     1      44.967   2.852   9.600  0.00  0.00    +0.000 A 
ATOM     19  C   UNL     1      44.963   4.240   9.623  0.00  0.00    +0.000 A 
ATOM     20  N   UNL     1      45.617   5.002   8.723  0.00  0.00    +0.000 NA
ATOM     21  C   UNL     1      46.306   4.351   7.756  0.00  0.00    +0.000 A 
BRANCH  16  23
ATOM     22  N   UNL     1      48.132   1.521   6.831  0.00  0.00    +0.000 N 
ATOM     23  C   UNL     1      47.127   2.392   6.519  0.00  0.00    +0.000 C 
ATOM     24  O   UNL     1      46.859   2.653   5.356  0.00  0.00    +0.000 OA
ATOM     25  H   UNL     1      48.571   1.048   6.047  0.00  0.00    +0.000 HD
ATOM     26  H   UNL     1      48.223   1.090   7.740  0.00  0.00    +0.000 HD
ENDBRANCH  16  23
ENDBRANCH  15  19
ENDBRANCH   1  15
TORSDOF 5
ENDMDL
MODEL 8
REMARK VINA RESULT:    -6.686      3.413      8.008
REMARK INTER + INTRA:          -9.368
REMARK INTER:                  -8.434
REMARK INTRA:                  -0.933
REMARK UNBOUND:                -0.727
REMARK  Name = 
REMARK  5 active torsions:
REMARK  status: ('A' for Active; 'I' for Inactive)
REMARK    1  A    between atoms: C_2  and  C_4
REMARK    2  A    between atoms: C_7  and  O_8
REMARK    3  A    between atoms: O_8  and  C_9
REMARK    4  A    between atoms: C_9  and  C_10
REMARK    5  A    between atoms: C_15  and  C_16
REMARK                            x       y       z     vdW  Elec       q    Type
REMARK                         _______ _______ _______ _____ _____    ______ ____
ROOT
ATOM      1  C   UNL     1      48.411   7.820  12.582  0.00  0.00    +0.000 C 
ENDROOT
BRANCH   1   2
ATOM      2  C   UNL     1      46.990   7.418  12.242  0.00  0.00    +0.000 A 
ATOM      3  C   UNL     1      45.896   8.154  12.696  0.00  0.00    +0.000 A 
ATOM      4  C   UNL     1      44.604   7.762  12.358  0.00  0.00    +0.000 A 
ATOM      5  C   UNL     1      44.381   6.641  11.543  0.00  0.00    +0.000 A 
ATOM      6 CL   UNL     1      42.714   6.221  11.306  0.00  0.00    +0.000 Cl
ATOM      7  C   UNL     1      45.459   5.901  11.010  0.00  0.00    +0.000 A 
ATOM      8  C   UNL     1      46.759   6.324  11.384  0.00  0.00    +0.000 A 
BRANCH   7   9
ATOM      9  C   UNL     1      45.297   4.754  10.080  0.00  0.00    +0.000 A 
ATOM     10  C   UNL     1      44.780   3.517  10.478  0.00  0.00    +0.000 A 
ATOM     11  C   UNL     1      44.698   2.472   9.555  0.00  0.00    +0.000 A 
ATOM     12  C   UNL     1      45.110   2.683   8.248  0.00  0.00    +0.000 A 
ATOM     13  C   UNL     1      45.607   3.930   7.924  0.00  0.00    +0.000 A 
ATOM     14  N   UNL     1      45.729   4.944   8.809  0.00  0.00    +0.000 NA
ENDBRANCH   7   9
ENDBRANCH   1   2
BRANCH   1  15
ATOM     15  O   UNL     1      49.129   6.711  13.135  0.00  0.00    +0.000 OA
BRANCH  15  19
ATOM     16  C   UNL     1      48.283   6.188  17.128  0.00  0.00    +0.000 A 
ATOM     17  C   UNL     1      48.943   7.345  16.709  0.00  0.00    +0.000 A 
ATOM     18  C   UNL     1      49.229   7.507  15.352  0.00  0.00    +0.000 A 
ATOM     19  C   UNL     1      48.839   6.510  14.467  0.00  0.00    +0.000 A 
ATOM     20  N   UNL     1      48.207   5.380  14.849  0.00  0.00    +0.000 NA
ATOM     21  C   UNL     1      47.952   5.239  16.171  0.00  0.00    +0.000 A 
BRANCH  16  23
ATOM     22  N   UNL     1      46.635   5.554  18.800  0.00  0.00    +0.000 N 
ATOM     23  C   UNL     1      47.926   5.913  18.535  0.00  0.00    +0.000 C 
ATOM     24  O   UNL     1      48.760   5.966  19.426  0.00  0.00    +0.000 OA
ATOM     25  H   UNL     1      46.442   5.256  19.751  0.00  0.00    +0.000 HD
ATOM     26  H   UNL     1      45.989   5.257  18.082  0.00  0.00    +0.000 HD
ENDBRANCH  16  23
ENDBRANCH  15  19
ENDBRANCH   1  15
TORSDOF 5
ENDMDL
MODEL 9
REMARK VINA RESULT:    -6.528      2.921      4.058
REMARK INTER + INTRA:          -9.164
REMARK INTER:                  -8.260
REMARK INTRA:                  -0.903
REMARK UNBOUND:                -0.727
REMARK  Name = 
REMARK  5 active torsions:
REMARK  status: ('A' for Active; 'I' for Inactive)
REMARK    1  A    between atoms: C_2  and  C_4
REMARK    2  A    between atoms: C_7  and  O_8
REMARK    3  A    between atoms: O_8  and  C_9
REMARK    4  A    between atoms: C_9  and  C_10
REMARK    5  A    between atoms: C_15  and  C_16
REMARK                            x       y       z     vdW  Elec       q    Type
REMARK                         _______ _______ _______ _____ _____    ______ ____
ROOT
ATOM      1  C   UNL     1      47.629   7.801  12.271  0.00  0.00    +0.000 C 
ENDROOT
BRANCH   1   2
ATOM      2  C   UNL     1      48.056   7.819  13.725  0.00  0.00    +0.000 A 
ATOM      3  C   UNL     1      48.259   9.016  14.411  0.00  0.00    +0.000 A 
ATOM      4  C   UNL     1      48.642   8.996  15.749  0.00  0.00    +0.000 A 
ATOM      5  C   UNL     1      48.810   7.782  16.432  0.00  0.00    +0.000 A 
ATOM      6 CL   UNL     1      49.396   7.926  18.059  0.00  0.00    +0.000 Cl
ATOM      7  C   UNL     1      48.557   6.546  15.797  0.00  0.00    +0.000 A 
ATOM      8  C   UNL     1      48.178   6.605  14.432  0.00  0.00    +0.000 A 
BRANCH   7   9
ATOM      9  C   UNL     1      48.639   5.230  16.481  0.00  0.00    +0.000 A 
ATOM     10  C   UNL     1      47.521   4.427  16.727  0.00  0.00    +0.000 A 
ATOM     11  C   UNL     1      47.672   3.222  17.414  0.00  0.00    +0.000 A 
ATOM     12  C   UNL     1      48.936   2.824  17.823  0.00  0.00    +0.000 A 
ATOM     13  C   UNL     1      49.995   3.664  17.544  0.00  0.00    +0.000 A 
ATOM     14  N   UNL     1      49.867   4.852  16.913  0.00  0.00    +0.000 NA
ENDBRANCH   7   9
ENDBRANCH   1   2
BRANCH   1  15
ATOM     15  O   UNL     1      46.202   7.863  12.165  0.00  0.00    +0.000 OA
BRANCH  15  19
ATOM     16  C   UNL     1      44.488   4.208  11.367  0.00  0.00    +0.000 A 
ATOM     17  C   UNL     1      44.305   4.797  12.619  0.00  0.00    +0.000 A 
ATOM     18  C   UNL     1      44.897   6.034  12.879  0.00  0.00    +0.000 A 
ATOM     19  C   UNL     1      45.643   6.637  11.875  0.00  0.00    +0.000 A 
ATOM     20  N   UNL     1      45.840   6.086  10.660  0.00  0.00    +0.000 NA
ATOM     21  C   UNL     1      45.268   4.880  10.436  0.00  0.00    +0.000 A 
BRANCH  16  23
ATOM     22  N   UNL     1      44.483   2.243   9.934  0.00  0.00    +0.000 N 
ATOM     23  C   UNL     1      43.907   2.906  10.980  0.00  0.00    +0.000 C 
ATOM     24  O   UNL     1      42.968   2.420  11.594  0.00  0.00    +0.000 OA
ATOM     25  H   UNL     1      44.145   1.302   9.763  0.00  0.00    +0.000 HD
ATOM     26  H   UNL     1      45.395   2.480   9.569  0.00  0.00    +0.000 HD
ENDBRANCH  16  23
ENDBRANCH  15  19
ENDBRANCH   1  15
TORSDOF 5
ENDMDL
