MODEL 1
REMARK VINA RESULT:    -9.522      0.000      0.000
REMARK INTER + INTRA:         -13.885
REMARK INTER:                 -12.862
REMARK INTRA:                  -1.024
REMARK UNBOUND:                -1.024
REMARK  Name = 
REMARK  8 active torsions:
REMARK  status: ('A' for Active; 'I' for Inactive)
REMARK    1  A    between atoms: C_1  and  C_2
REMARK    2  A    between atoms: C_2  and  C_3
REMARK    3  A    between atoms: C_2  and  C_4
REMARK    4  A    between atoms: C_6  and  N_7
REMARK    5  A    between atoms: N_7  and  C_8
REMARK    6  A    between atoms: C_8  and  C_9
REMARK    7  A    between atoms: C_13  and  C_14
REMARK    8  A    between atoms: C_23  and  C_24
REMARK                            x       y       z     vdW  Elec       q    Type
REMARK                         _______ _______ _______ _____ _____    ______ ____
ROOT
ATOM      1  N   UNL     1      43.802   6.760  12.442  0.00  0.00    +0.000 N 
ATOM      2  H   UNL     1      43.303   6.523  13.293  0.00  0.00    +0.000 HD
ENDROOT
BRANCH   1   5
ATOM      3  C   UNL     1      47.499   7.108  12.272  0.00  0.00    +0.000 A 
ATOM      4  C   UNL     1      46.139   7.329  12.027  0.00  0.00    +0.000 A 
ATOM      5  C   UNL     1      45.160   6.539  12.638  0.00  0.00    +0.000 A 
ATOM      6  N   UNL     1      45.487   5.560  13.503  0.00  0.00    +0.000 NA
ATOM      7  C   UNL     1      46.819   5.372  13.759  0.00  0.00    +0.000 A 
ATOM      8  C   UNL     1      47.840   6.106  13.173  0.00  0.00    +0.000 A 
BRANCH   7   9
ATOM      9  C   UNL     1      47.185   4.308  14.752  0.00  0.00    +0.000 C 
ATOM     10  N   UNL     1      47.195   4.699  16.063  0.00  0.00    +0.000 N 
ATOM     11  O   UNL     1      47.463   3.162  14.425  0.00  0.00    +0.000 OA
ATOM     12  H   UNL     1      46.999   5.666  16.298  0.00  0.00    +0.000 HD
ATOM     13  H   UNL     1      47.473   4.040  16.773  0.00  0.00    +0.000 HD
ENDBRANCH   7   9
BRANCH   3  15
ATOM     14  C   UNL     1      48.381   9.434  11.857  0.00  0.00    +0.000 C 
ATOM     15  C   UNL     1      48.543   7.943  11.559  0.00  0.00    +0.000 C 
ATOM     16  C   UNL     1      49.954   7.461  11.905  0.00  0.00    +0.000 C 
ENDBRANCH   3  15
ENDBRANCH   1   5
BRANCH   1  17
ATOM     17  C   UNL     1      43.192   6.316  11.203  0.00  0.00    +0.000 C 
BRANCH  17  18
ATOM     18  C   UNL     1      43.503   4.865  10.940  0.00  0.00    +0.000 A 
ATOM     19  C   UNL     1      42.948   3.855  11.728  0.00  0.00    +0.000 A 
ATOM     20  C   UNL     1      43.222   2.538  11.403  0.00  0.00    +0.000 A 
ATOM     21  N   UNL     1      44.009   2.167  10.370  0.00  0.00    +0.000 NA
ATOM     22  C   UNL     1      44.582   3.145   9.626  0.00  0.00    +0.000 A 
ATOM     23  C   UNL     1      44.342   4.496   9.883  0.00  0.00    +0.000 A 
BRANCH  22  24
ATOM     24  C   UNL     1      45.475   2.693   8.542  0.00  0.00    +0.000 A 
ATOM     25  C   UNL     1      45.937   3.590   7.557  0.00  0.00    +0.000 A 
ATOM     26  C   UNL     1      46.769   3.164   6.514  0.00  0.00    +0.000 A 
ATOM     27  C   UNL     1      47.152   1.829   6.434  0.00  0.00    +0.000 A 
ATOM     28  C   UNL     1      46.704   0.937   7.396  0.00  0.00    +0.000 A 
ATOM     29  F   UNL     1      47.066  -0.351   7.322  0.00  0.00    +0.000 F 
ATOM     30  C   UNL     1      45.879   1.352   8.437  0.00  0.00    +0.000 A 
ENDBRANCH  22  24
ENDBRANCH  17  18
ENDBRANCH   1  17
TORSDOF 6
ENDMDL
MODEL 2
REMARK VINA RESULT:    -8.412      0.779      0.975
REMARK INTER + INTRA:         -12.386
REMARK INTER:                 -12.142
REMARK INTRA:                  -0.244
REMARK UNBOUND:                -1.024
REMARK  Name = 
REMARK  8 active torsions:
REMARK  status: ('A' for Active; 'I' for Inactive)
REMARK    1  A    between atoms: C_1  and  C_2
REMARK    2  A    between atoms: C_2  and  C_3
REMARK    3  A    between atoms: C_2  and  C_4
REMARK    4  A    between atoms: C_6  and  N_7
REMARK    5  A    between atoms: N_7  and  C_8
REMARK    6  A    between atoms: C_8  and  C_9
REMARK    7  A    between atoms: C_13  and  C_14
REMARK    8  A    between atoms: C_23  and  C_24
REMARK                            x       y       z     vdW  Elec       q    Type
REMARK                         _______ _______ _______ _____ _____    ______ ____
ROOT
ATOM      1  N   UNL     1      45.105   7.211  11.107  0.00  0.00    +0.000 N 
ATOM      2  H   UNL     1      45.047   8.210  10.938  0.00  0.00    +0.000 HD
ENDROOT
BRANCH   1   5
ATOM      3  C   UNL     1      48.463   7.481  12.678  0.00  0.00    +0.000 A 
ATOM      4  C   UNL     1      47.368   7.744  11.845  0.00  0.00    +0.000 A 
ATOM      5  C   UNL     1      46.219   6.950  11.895  0.00  0.00    +0.000 A 
ATOM      6  N   UNL     1      46.110   5.925  12.763  0.00  0.00    +0.000 NA
ATOM      7  C   UNL     1      47.173   5.695  13.594  0.00  0.00    +0.000 A 
ATOM      8  C   UNL     1      48.349   6.431  13.584  0.00  0.00    +0.000 A 
BRANCH   7   9
ATOM      9  C   UNL     1      47.040   4.579  14.588  0.00  0.00    +0.000 C 
ATOM     10  N   UNL     1      47.086   4.950  15.904  0.00  0.00    +0.000 N 
ATOM     11  O   UNL     1      46.903   3.409  14.259  0.00  0.00    +0.000 OA
ATOM     12  H   UNL     1      47.242   5.923  16.146  0.00  0.00    +0.000 HD
ATOM     13  H   UNL     1      47.044   4.241  16.620  0.00  0.00    +0.000 HD
ENDBRANCH   7   9
BRANCH   3  15
ATOM     14  C   UNL     1      50.543   8.283  13.856  0.00  0.00    +0.000 C 
ATOM     15  C   UNL     1      49.717   8.323  12.570  0.00  0.00    +0.000 C 
ATOM     16  C   UNL     1      50.555   7.897  11.362  0.00  0.00    +0.000 C 
ENDBRANCH   3  15
ENDBRANCH   1   5
BRANCH   1  17
ATOM     17  C   UNL     1      43.854   6.545  11.419  0.00  0.00    +0.000 C 
BRANCH  17  18
ATOM     18  C   UNL     1      43.923   5.080  11.071  0.00  0.00    +0.000 A 
ATOM     19  C   UNL     1      43.200   4.133  11.797  0.00  0.00    +0.000 A 
ATOM     20  C   UNL     1      43.255   2.809  11.395  0.00  0.00    +0.000 A 
ATOM     21  N   UNL     1      43.982   2.373  10.345  0.00  0.00    +0.000 NA
ATOM     22  C   UNL     1      44.717   3.284   9.660  0.00  0.00    +0.000 A 
ATOM     23  C   UNL     1      44.702   4.639   9.996  0.00  0.00    +0.000 A 
BRANCH  22  24
ATOM     24  C   UNL     1      45.536   2.753   8.553  0.00  0.00    +0.000 A 
ATOM     25  C   UNL     1      45.959   3.584   7.496  0.00  0.00    +0.000 A 
ATOM     26  C   UNL     1      46.719   3.083   6.432  0.00  0.00    +0.000 A 
ATOM     27  C   UNL     1      47.067   1.737   6.403  0.00  0.00    +0.000 A 
ATOM     28  C   UNL     1      46.657   0.908   7.436  0.00  0.00    +0.000 A 
ATOM     29  F   UNL     1      46.986  -0.391   7.412  0.00  0.00    +0.000 F 
ATOM     30  C   UNL     1      45.903   1.398   8.498  0.00  0.00    +0.000 A 
ENDBRANCH  22  24
ENDBRANCH  17  18
ENDBRANCH   1  17
TORSDOF 6
ENDMDL
MODEL 3
REMARK VINA RESULT:    -8.313      2.976      7.091
REMARK INTER + INTRA:         -12.253
REMARK INTER:                 -11.220
REMARK INTRA:                  -1.033
REMARK UNBOUND:                -1.024
REMARK  Name = 
REMARK  8 active torsions:
REMARK  status: ('A' for Active; 'I' for Inactive)
REMARK    1  A    between atoms: C_1  and  C_2
REMARK    2  A    between atoms: C_2  and  C_3
REMARK    3  A    between atoms: C_2  and  C_4
REMARK    4  A    between atoms: C_6  and  N_7
REMARK    5  A    between atoms: N_7  and  C_8
REMARK    6  A    between atoms: C_8  and  C_9
REMARK    7  A    between atoms: C_13  and  C_14
REMARK    8  A    between atoms: C_23  and  C_24
REMARK                            x       y       z     vdW  Elec       q    Type
REMARK                         _______ _______ _______ _____ _____    ______ ____
ROOT
ATOM      1  N   UNL     1      45.394   6.604  10.270  0.00  0.00    +0.000 N 
ATOM      2  H   UNL     1      46.211   6.888   9.740  0.00  0.00    +0.000 HD
ENDROOT
BRANCH   1   5
ATOM      3  C   UNL     1      45.385   3.252   8.663  0.00  0.00    +0.000 A 
ATOM      4  C   UNL     1      45.635   4.612   8.881  0.00  0.00    +0.000 A 
ATOM      5  C   UNL     1      45.131   5.264  10.010  0.00  0.00    +0.000 A 
ATOM      6  N   UNL     1      44.416   4.604  10.942  0.00  0.00    +0.000 NA
ATOM      7  C   UNL     1      44.204   3.267  10.735  0.00  0.00    +0.000 A 
ATOM      8  C   UNL     1      44.658   2.564   9.628  0.00  0.00    +0.000 A 
BRANCH   7   9
ATOM      9  C   UNL     1      43.441   2.521  11.789  0.00  0.00    +0.000 C 
ATOM     10  N   UNL     1      43.574   2.997  13.065  0.00  0.00    +0.000 N 
ATOM     11  O   UNL     1      42.744   1.546  11.541  0.00  0.00    +0.000 OA
ATOM     12  H   UNL     1      44.191   3.781  13.246  0.00  0.00    +0.000 HD
ATOM     13  H   UNL     1      43.119   2.513  13.824  0.00  0.00    +0.000 HD
ENDBRANCH   7   9
BRANCH   3  15
ATOM     14  C   UNL     1      46.732   3.532   6.550  0.00  0.00    +0.000 C 
ATOM     15  C   UNL     1      45.898   2.579   7.406  0.00  0.00    +0.000 C 
ATOM     16  C   UNL     1      46.686   1.313   7.751  0.00  0.00    +0.000 C 
ENDBRANCH   3  15
ENDBRANCH   1   5
BRANCH   1  17
ATOM     17  C   UNL     1      45.327   7.079  11.639  0.00  0.00    +0.000 C 
BRANCH  17  18
ATOM     18  C   UNL     1      46.644   6.877  12.343  0.00  0.00    +0.000 A 
ATOM     19  C   UNL     1      47.843   7.292  11.761  0.00  0.00    +0.000 A 
ATOM     20  C   UNL     1      49.016   7.135  12.480  0.00  0.00    +0.000 A 
ATOM     21  N   UNL     1      49.073   6.589  13.713  0.00  0.00    +0.000 NA
ATOM     22  C   UNL     1      47.916   6.148  14.267  0.00  0.00    +0.000 A 
ATOM     23  C   UNL     1      46.692   6.285  13.609  0.00  0.00    +0.000 A 
BRANCH  22  24
ATOM     24  C   UNL     1      48.035   5.511  15.592  0.00  0.00    +0.000 A 
ATOM     25  C   UNL     1      48.929   6.008  16.561  0.00  0.00    +0.000 A 
ATOM     26  C   UNL     1      49.063   5.396  17.814  0.00  0.00    +0.000 A 
ATOM     27  C   UNL     1      48.305   4.271  18.120  0.00  0.00    +0.000 A 
ATOM     28  C   UNL     1      47.421   3.772  17.175  0.00  0.00    +0.000 A 
ATOM     29  F   UNL     1      46.691   2.685  17.462  0.00  0.00    +0.000 F 
ATOM     30  C   UNL     1      47.281   4.374  15.929  0.00  0.00    +0.000 A 
ENDBRANCH  22  24
ENDBRANCH  17  18
ENDBRANCH   1  17
TORSDOF 6
ENDMDL
MODEL 4
REMARK VINA RESULT:    -8.225      1.485      1.647
REMARK INTER + INTRA:         -12.133
REMARK INTER:                 -11.148
REMARK INTRA:                  -0.985
REMARK UNBOUND:                -1.024
REMARK  Name = 
REMARK  8 active torsions:
REMARK  status: ('A' for Active; 'I' for Inactive)
REMARK    1  A    between atoms: C_1  and  C_2
REMARK    2  A    between atoms: C_2  and  C_3
REMARK    3  A    between atoms: C_2  and  C_4
REMARK    4  A    between atoms: C_6  and  N_7
REMARK    5  A    between atoms: N_7  and  C_8
REMARK    6  A    between atoms: C_8  and  C_9
REMARK    7  A    between atoms: C_13  and  C_14
REMARK    8  A    between atoms: C_23  and  C_24
REMARK                            x       y       z     vdW  Elec       q    Type
REMARK                         _______ _______ _______ _____ _____    ______ ____
ROOT
ATOM      1  N   UNL     1      45.344   7.174  12.700  0.00  0.00    +0.000 N 
ATOM      2  H   UNL     1      44.914   6.523  13.350  0.00  0.00    +0.000 HD
ENDROOT
BRANCH   1   5
ATOM      3  C   UNL     1      48.967   7.950  12.396  0.00  0.00    +0.000 A 
ATOM      4  C   UNL     1      47.602   7.878  12.096  0.00  0.00    +0.000 A 
ATOM      5  C   UNL     1      46.710   7.228  12.955  0.00  0.00    +0.000 A 
ATOM      6  N   UNL     1      47.125   6.675  14.111  0.00  0.00    +0.000 NA
ATOM      7  C   UNL     1      48.457   6.777  14.409  0.00  0.00    +0.000 A 
ATOM      8  C   UNL     1      49.397   7.390  13.594  0.00  0.00    +0.000 A 
BRANCH   7   9
ATOM      9  C   UNL     1      48.915   6.196  15.714  0.00  0.00    +0.000 C 
ATOM     10  N   UNL     1      47.927   5.705  16.524  0.00  0.00    +0.000 N 
ATOM     11  O   UNL     1      50.092   6.159  16.048  0.00  0.00    +0.000 OA
ATOM     12  H   UNL     1      46.958   5.787  16.237  0.00  0.00    +0.000 HD
ATOM     13  H   UNL     1      48.169   5.339  17.432  0.00  0.00    +0.000 HD
ENDBRANCH   7   9
BRANCH   3  15
ATOM     14  C   UNL     1      50.558   9.870  12.022  0.00  0.00    +0.000 C 
ATOM     15  C   UNL     1      49.922   8.615  11.426  0.00  0.00    +0.000 C 
ATOM     16  C   UNL     1      50.991   7.626  10.952  0.00  0.00    +0.000 C 
ENDBRANCH   3  15
ENDBRANCH   1   5
BRANCH   1  17
ATOM     17  C   UNL     1      44.891   7.093  11.325  0.00  0.00    +0.000 C 
BRANCH  17  18
ATOM     18  C   UNL     1      44.593   5.666  10.940  0.00  0.00    +0.000 A 
ATOM     19  C   UNL     1      43.587   4.942  11.582  0.00  0.00    +0.000 A 
ATOM     20  C   UNL     1      43.319   3.655  11.146  0.00  0.00    +0.000 A 
ATOM     21  N   UNL     1      43.983   3.049  10.139  0.00  0.00    +0.000 NA
ATOM     22  C   UNL     1      44.987   3.735   9.538  0.00  0.00    +0.000 A 
ATOM     23  C   UNL     1      45.307   5.042   9.912  0.00  0.00    +0.000 A 
BRANCH  22  24
ATOM     24  C   UNL     1      45.719   3.014   8.479  0.00  0.00    +0.000 A 
ATOM     25  C   UNL     1      46.186   3.684   7.330  0.00  0.00    +0.000 A 
ATOM     26  C   UNL     1      46.863   3.003   6.311  0.00  0.00    +0.000 A 
ATOM     27  C   UNL     1      47.083   1.634   6.421  0.00  0.00    +0.000 A 
ATOM     28  C   UNL     1      46.628   0.962   7.546  0.00  0.00    +0.000 A 
ATOM     29  F   UNL     1      46.833  -0.357   7.656  0.00  0.00    +0.000 F 
ATOM     30  C   UNL     1      45.956   1.632   8.563  0.00  0.00    +0.000 A 
ENDBRANCH  22  24
ENDBRANCH  17  18
ENDBRANCH   1  17
TORSDOF 6
ENDMDL
MODEL 5
REMARK VINA RESULT:    -8.129      1.700      1.911
REMARK INTER + INTRA:         -12.003
REMARK INTER:                 -11.311
REMARK INTRA:                  -0.692
REMARK UNBOUND:                -1.024
REMARK  Name = 
REMARK  8 active torsions:
REMARK  status: ('A' for Active; 'I' for Inactive)
REMARK    1  A    between atoms: C_1  and  C_2
REMARK    2  A    between atoms: C_2  and  C_3
REMARK    3  A    between atoms: C_2  and  C_4
REMARK    4  A    between atoms: C_6  and  N_7
REMARK    5  A    between atoms: N_7  and  C_8
REMARK    6  A    between atoms: C_8  and  C_9
REMARK    7  A    between atoms: C_13  and  C_14
REMARK    8  A    between atoms: C_23  and  C_24
REMARK                            x       y       z     vdW  Elec       q    Type
REMARK                         _______ _______ _______ _____ _____    ______ ____
ROOT
ATOM      1  N   UNL     1      46.299   7.344  11.733  0.00  0.00    +0.000 N 
ATOM      2  H   UNL     1      46.636   8.234  11.380  0.00  0.00    +0.000 HD
ENDROOT
BRANCH   1   5
ATOM      3  C   UNL     1      48.479   7.605  14.733  0.00  0.00    +0.000 A 
ATOM      4  C   UNL     1      47.809   7.948  13.553  0.00  0.00    +0.000 A 
ATOM      5  C   UNL     1      47.005   7.019  12.886  0.00  0.00    +0.000 A 
ATOM      6  N   UNL     1      46.823   5.775  13.367  0.00  0.00    +0.000 NA
ATOM      7  C   UNL     1      47.458   5.458  14.538  0.00  0.00    +0.000 A 
ATOM      8  C   UNL     1      48.284   6.325  15.239  0.00  0.00    +0.000 A 
BRANCH   7   9
ATOM      9  C   UNL     1      47.227   4.086  15.097  0.00  0.00    +0.000 C 
ATOM     10  N   UNL     1      46.724   4.041  16.369  0.00  0.00    +0.000 N 
ATOM     11  O   UNL     1      47.470   3.063  14.470  0.00  0.00    +0.000 OA
ATOM     12  H   UNL     1      46.571   4.905  16.877  0.00  0.00    +0.000 HD
ATOM     13  H   UNL     1      46.585   3.147  16.815  0.00  0.00    +0.000 HD
ENDBRANCH   7   9
BRANCH   3  15
ATOM     14  C   UNL     1      49.183  10.023  14.857  0.00  0.00    +0.000 C 
ATOM     15  C   UNL     1      49.385   8.613  15.410  0.00  0.00    +0.000 C 
ATOM     16  C   UNL     1      49.192   8.582  16.929  0.00  0.00    +0.000 C 
ENDBRANCH   3  15
ENDBRANCH   1   5
BRANCH   1  17
ATOM     17  C   UNL     1      44.862   7.156  11.715  0.00  0.00    +0.000 C 
BRANCH  17  18
ATOM     18  C   UNL     1      44.506   5.766  11.254  0.00  0.00    +0.000 A 
ATOM     19  C   UNL     1      43.437   5.071  11.820  0.00  0.00    +0.000 A 
ATOM     20  C   UNL     1      43.120   3.821  11.315  0.00  0.00    +0.000 A 
ATOM     21  N   UNL     1      43.795   3.224  10.310  0.00  0.00    +0.000 NA
ATOM     22  C   UNL     1      44.859   3.879   9.783  0.00  0.00    +0.000 A 
ATOM     23  C   UNL     1      45.231   5.148  10.229  0.00  0.00    +0.000 A 
BRANCH  22  24
ATOM     24  C   UNL     1      45.598   3.165   8.724  0.00  0.00    +0.000 A 
ATOM     25  C   UNL     1      46.140   3.856   7.622  0.00  0.00    +0.000 A 
ATOM     26  C   UNL     1      46.825   3.183   6.602  0.00  0.00    +0.000 A 
ATOM     27  C   UNL     1      46.976   1.802   6.664  0.00  0.00    +0.000 A 
ATOM     28  C   UNL     1      46.447   1.110   7.743  0.00  0.00    +0.000 A 
ATOM     29  F   UNL     1      46.586  -0.222   7.807  0.00  0.00    +0.000 F 
ATOM     30  C   UNL     1      45.767   1.771   8.761  0.00  0.00    +0.000 A 
ENDBRANCH  22  24
ENDBRANCH  17  18
ENDBRANCH   1  17
TORSDOF 6
ENDMDL
MODEL 6
REMARK VINA RESULT:    -8.030      2.347      3.386
REMARK INTER + INTRA:         -11.870
REMARK INTER:                 -10.947
REMARK INTRA:                  -0.924
REMARK UNBOUND:                -1.024
REMARK  Name = 
REMARK  8 active torsions:
REMARK  status: ('A' for Active; 'I' for Inactive)
REMARK    1  A    between atoms: C_1  and  C_2
REMARK    2  A    between atoms: C_2  and  C_3
REMARK    3  A    between atoms: C_2  and  C_4
REMARK    4  A    between atoms: C_6  and  N_7
REMARK    5  A    between atoms: N_7  and  C_8
REMARK    6  A    between atoms: C_8  and  C_9
REMARK    7  A    between atoms: C_13  and  C_14
REMARK    8  A    between atoms: C_23  and  C_24
REMARK                            x       y       z     vdW  Elec       q    Type
REMARK                         _______ _______ _______ _____ _____    ______ ____
ROOT
ATOM      1  N   UNL     1      45.865   6.287  13.094  0.00  0.00    +0.000 N 
ATOM      2  H   UNL     1      46.514   5.558  12.815  0.00  0.00    +0.000 HD
ENDROOT
BRANCH   1   5
ATOM      3  C   UNL     1      48.220   8.985  12.096  0.00  0.00    +0.000 A 
ATOM      4  C   UNL     1      47.741   7.746  12.539  0.00  0.00    +0.000 A 
ATOM      5  C   UNL     1      46.370   7.518  12.691  0.00  0.00    +0.000 A 
ATOM      6  N   UNL     1      45.462   8.466  12.390  0.00  0.00    +0.000 NA
ATOM      7  C   UNL     1      45.939   9.663  11.928  0.00  0.00    +0.000 A 
ATOM      8  C   UNL     1      47.285   9.963  11.773  0.00  0.00    +0.000 A 
BRANCH   7   9
ATOM      9  C   UNL     1      44.930  10.709  11.556  0.00  0.00    +0.000 C 
ATOM     10  N   UNL     1      45.273  11.516  10.506  0.00  0.00    +0.000 N 
ATOM     11  O   UNL     1      43.866  10.845  12.145  0.00  0.00    +0.000 OA
ATOM     12  H   UNL     1      46.179  11.405  10.064  0.00  0.00    +0.000 HD
ATOM     13  H   UNL     1      44.654  12.264  10.234  0.00  0.00    +0.000 HD
ENDBRANCH   7   9
BRANCH   3  15
ATOM     14  C   UNL     1      50.449   8.003  11.443  0.00  0.00    +0.000 C 
ATOM     15  C   UNL     1      49.711   9.226  11.988  0.00  0.00    +0.000 C 
ATOM     16  C   UNL     1      50.001  10.468  11.142  0.00  0.00    +0.000 C 
ENDBRANCH   3  15
ENDBRANCH   1   5
BRANCH   1  17
ATOM     17  C   UNL     1      44.459   6.003  12.880  0.00  0.00    +0.000 C 
BRANCH  17  18
ATOM     18  C   UNL     1      44.281   4.721  12.107  0.00  0.00    +0.000 A 
ATOM     19  C   UNL     1      43.396   3.734  12.542  0.00  0.00    +0.000 A 
ATOM     20  C   UNL     1      43.230   2.603  11.760  0.00  0.00    +0.000 A 
ATOM     21  N   UNL     1      43.886   2.390  10.600  0.00  0.00    +0.000 NA
ATOM     22  C   UNL     1      44.776   3.328  10.192  0.00  0.00    +0.000 A 
ATOM     23  C   UNL     1      44.988   4.501  10.919  0.00  0.00    +0.000 A 
BRANCH  22  24
ATOM     24  C   UNL     1      45.507   3.028   8.946  0.00  0.00    +0.000 A 
ATOM     25  C   UNL     1      45.792   4.039   8.007  0.00  0.00    +0.000 A 
ATOM     26  C   UNL     1      46.468   3.758   6.813  0.00  0.00    +0.000 A 
ATOM     27  C   UNL     1      46.868   2.455   6.534  0.00  0.00    +0.000 A 
ATOM     28  C   UNL     1      46.593   1.451   7.449  0.00  0.00    +0.000 A 
ATOM     29  F   UNL     1      46.973   0.193   7.185  0.00  0.00    +0.000 F 
ATOM     30  C   UNL     1      45.924   1.722   8.639  0.00  0.00    +0.000 A 
ENDBRANCH  22  24
ENDBRANCH  17  18
ENDBRANCH   1  17
TORSDOF 6
ENDMDL
MODEL 7
REMARK VINA RESULT:    -7.831      2.162      3.214
REMARK INTER + INTRA:         -11.602
REMARK INTER:                 -11.018
REMARK INTRA:                  -0.584
REMARK UNBOUND:                -1.024
REMARK  Name = 
REMARK  8 active torsions:
REMARK  status: ('A' for Active; 'I' for Inactive)
REMARK    1  A    between atoms: C_1  and  C_2
REMARK    2  A    between atoms: C_2  and  C_3
REMARK    3  A    between atoms: C_2  and  C_4
REMARK    4  A    between atoms: C_6  and  N_7
REMARK    5  A    between atoms: N_7  and  C_8
REMARK    6  A    between atoms: C_8  and  C_9
REMARK    7  A    between atoms: C_13  and  C_14
REMARK    8  A    between atoms: C_23  and  C_24
REMARK                            x       y       z     vdW  Elec       q    Type
REMARK                         _______ _______ _______ _____ _____    ______ ____
ROOT
ATOM      1  N   UNL     1      44.543   7.156  10.965  0.00  0.00    +0.000 N 
ATOM      2  H   UNL     1      44.388   8.126  10.713  0.00  0.00    +0.000 HD
ENDROOT
BRANCH   1   5
ATOM      3  C   UNL     1      47.049   5.846  13.378  0.00  0.00    +0.000 A 
ATOM      4  C   UNL     1      45.970   5.890  12.488  0.00  0.00    +0.000 A 
ATOM      5  C   UNL     1      45.587   7.090  11.881  0.00  0.00    +0.000 A 
ATOM      6  N   UNL     1      46.258   8.236  12.105  0.00  0.00    +0.000 NA
ATOM      7  C   UNL     1      47.330   8.176  12.954  0.00  0.00    +0.000 A 
ATOM      8  C   UNL     1      47.751   7.025  13.604  0.00  0.00    +0.000 A 
BRANCH   7   9
ATOM      9  C   UNL     1      48.103   9.443  13.177  0.00  0.00    +0.000 C 
ATOM     10  N   UNL     1      47.378  10.600  13.094  0.00  0.00    +0.000 N 
ATOM     11  O   UNL     1      49.303   9.456  13.413  0.00  0.00    +0.000 OA
ATOM     12  H   UNL     1      46.393  10.559  12.857  0.00  0.00    +0.000 HD
ATOM     13  H   UNL     1      47.848  11.487  13.194  0.00  0.00    +0.000 HD
ENDBRANCH   7   9
BRANCH   3  15
ATOM     14  C   UNL     1      47.180   4.611  15.573  0.00  0.00    +0.000 C 
ATOM     15  C   UNL     1      47.414   4.545  14.063  0.00  0.00    +0.000 C 
ATOM     16  C   UNL     1      46.656   3.371  13.438  0.00  0.00    +0.000 C 
ENDBRANCH   3  15
ENDBRANCH   1   5
BRANCH   1  17
ATOM     17  C   UNL     1      43.353   6.362  11.201  0.00  0.00    +0.000 C 
BRANCH  17  18
ATOM     18  C   UNL     1      43.613   4.904  10.916  0.00  0.00    +0.000 A 
ATOM     19  C   UNL     1      43.050   3.904  11.710  0.00  0.00    +0.000 A 
ATOM     20  C   UNL     1      43.275   2.582  11.365  0.00  0.00    +0.000 A 
ATOM     21  N   UNL     1      44.023   2.198  10.308  0.00  0.00    +0.000 NA
ATOM     22  C   UNL     1      44.605   3.166   9.558  0.00  0.00    +0.000 A 
ATOM     23  C   UNL     1      44.412   4.521   9.834  0.00  0.00    +0.000 A 
BRANCH  22  24
ATOM     24  C   UNL     1      45.455   2.699   8.446  0.00  0.00    +0.000 A 
ATOM     25  C   UNL     1      46.026   1.411   8.457  0.00  0.00    +0.000 A 
ATOM     26  C   UNL     1      46.851   0.968   7.416  0.00  0.00    +0.000 A 
ATOM     27  C   UNL     1      47.123   1.809   6.342  0.00  0.00    +0.000 A 
ATOM     28  C   UNL     1      46.568   3.079   6.319  0.00  0.00    +0.000 A 
ATOM     29  F   UNL     1      46.829   3.897   5.289  0.00  0.00    +0.000 F 
ATOM     30  C   UNL     1      45.746   3.527   7.348  0.00  0.00    +0.000 A 
ENDBRANCH  22  24
ENDBRANCH  17  18
ENDBRANCH   1  17
TORSDOF 6
ENDMDL
MODEL 8
REMARK VINA RESULT:    -7.697      1.730      2.343
REMARK INTER + INTRA:         -11.421
REMARK INTER:                 -10.458
REMARK INTRA:                  -0.963
REMARK UNBOUND:                -1.024
REMARK  Name = 
REMARK  8 active torsions:
REMARK  status: ('A' for Active; 'I' for Inactive)
REMARK    1  A    between atoms: C_1  and  C_2
REMARK    2  A    between atoms: C_2  and  C_3
REMARK    3  A    between atoms: C_2  and  C_4
REMARK    4  A    between atoms: C_6  and  N_7
REMARK    5  A    between atoms: N_7  and  C_8
REMARK    6  A    between atoms: C_8  and  C_9
REMARK    7  A    between atoms: C_13  and  C_14
REMARK    8  A    between atoms: C_23  and  C_24
REMARK                            x       y       z     vdW  Elec       q    Type
REMARK                         _______ _______ _______ _____ _____    ______ ____
ROOT
ATOM      1  N   UNL     1      46.059   3.331  13.457  0.00  0.00    +0.000 N 
ATOM      2  H   UNL     1      46.586   2.905  12.702  0.00  0.00    +0.000 HD
ENDROOT
BRANCH   1   5
ATOM      3  C   UNL     1      47.931   6.480  14.091  0.00  0.00    +0.000 A 
ATOM      4  C   UNL     1      47.164   5.507  13.439  0.00  0.00    +0.000 A 
ATOM      5  C   UNL     1      46.848   4.299  14.068  0.00  0.00    +0.000 A 
ATOM      6  N   UNL     1      47.242   4.040  15.330  0.00  0.00    +0.000 NA
ATOM      7  C   UNL     1      47.965   5.011  15.970  0.00  0.00    +0.000 A 
ATOM      8  C   UNL     1      48.329   6.221  15.398  0.00  0.00    +0.000 A 
BRANCH   7   9
ATOM      9  C   UNL     1      48.372   4.741  17.389  0.00  0.00    +0.000 C 
ATOM     10  N   UNL     1      47.421   4.152  18.176  0.00  0.00    +0.000 N 
ATOM     11  O   UNL     1      49.477   5.029  17.828  0.00  0.00    +0.000 OA
ATOM     12  H   UNL     1      46.501   3.963  17.794  0.00  0.00    +0.000 HD
ATOM     13  H   UNL     1      47.621   3.983  19.150  0.00  0.00    +0.000 HD
ENDBRANCH   7   9
BRANCH   3  15
ATOM     14  C   UNL     1      48.538   7.526  11.879  0.00  0.00    +0.000 C 
ATOM     15  C   UNL     1      48.304   7.759  13.371  0.00  0.00    +0.000 C 
ATOM     16  C   UNL     1      47.246   8.841  13.602  0.00  0.00    +0.000 C 
ENDBRANCH   3  15
ENDBRANCH   1   5
BRANCH   1  17
ATOM     17  C   UNL     1      44.671   3.638  13.170  0.00  0.00    +0.000 C 
BRANCH  17  18
ATOM     18  C   UNL     1      44.474   3.915  11.702  0.00  0.00    +0.000 A 
ATOM     19  C   UNL     1      43.562   4.877  11.266  0.00  0.00    +0.000 A 
ATOM     20  C   UNL     1      43.466   5.130   9.908  0.00  0.00    +0.000 A 
ATOM     21  N   UNL     1      44.197   4.489   8.971  0.00  0.00    +0.000 NA
ATOM     22  C   UNL     1      45.056   3.525   9.387  0.00  0.00    +0.000 A 
ATOM     23  C   UNL     1      45.219   3.223  10.740  0.00  0.00    +0.000 A 
BRANCH  22  24
ATOM     24  C   UNL     1      45.794   2.816   8.324  0.00  0.00    +0.000 A 
ATOM     25  C   UNL     1      46.259   3.496   7.181  0.00  0.00    +0.000 A 
ATOM     26  C   UNL     1      46.943   2.826   6.159  0.00  0.00    +0.000 A 
ATOM     27  C   UNL     1      47.170   1.457   6.259  0.00  0.00    +0.000 A 
ATOM     28  C   UNL     1      46.716   0.775   7.378  0.00  0.00    +0.000 A 
ATOM     29  F   UNL     1      46.928  -0.544   7.479  0.00  0.00    +0.000 F 
ATOM     30  C   UNL     1      46.038   1.434   8.399  0.00  0.00    +0.000 A 
ENDBRANCH  22  24
ENDBRANCH  17  18
ENDBRANCH   1  17
TORSDOF 6
ENDMDL
MODEL 9
REMARK VINA RESULT:    -7.622      2.396      3.219
REMARK INTER + INTRA:         -11.318
REMARK INTER:                 -10.370
REMARK INTRA:                  -0.949
REMARK UNBOUND:                -1.024
REMARK  Name = 
REMARK  8 active torsions:
REMARK  status: ('A' for Active; 'I' for Inactive)
REMARK    1  A    between atoms: C_1  and  C_2
REMARK    2  A    between atoms: C_2  and  C_3
REMARK    3  A    between atoms: C_2  and  C_4
REMARK    4  A    between atoms: C_6  and  N_7
REMARK    5  A    between atoms: N_7  and  C_8
REMARK    6  A    between atoms: C_8  and  C_9
REMARK    7  A    between atoms: C_13  and  C_14
REMARK    8  A    between atoms: C_23  and  C_24
REMARK                            x       y       z     vdW  Elec       q    Type
REMARK                         _______ _______ _______ _____ _____    ______ ____
ROOT
ATOM      1  N   UNL     1      46.930   5.357  13.192  0.00  0.00    +0.000 N 
ATOM      2  H   UNL     1      47.409   4.677  12.611  0.00  0.00    +0.000 HD
ENDROOT
BRANCH   1   5
ATOM      3  C   UNL     1      46.622   8.931  12.215  0.00  0.00    +0.000 A 
ATOM      4  C   UNL     1      46.276   7.642  12.639  0.00  0.00    +0.000 A 
ATOM      5  C   UNL     1      47.239   6.635  12.739  0.00  0.00    +0.000 A 
ATOM      6  N   UNL     1      48.536   6.872  12.462  0.00  0.00    +0.000 NA
ATOM      7  C   UNL     1      48.870   8.143  12.078  0.00  0.00    +0.000 A 
ATOM      8  C   UNL     1      47.962   9.183  11.939  0.00  0.00    +0.000 A 
BRANCH   7   9
ATOM      9  C   UNL     1      50.318   8.421  11.805  0.00  0.00    +0.000 C 
ATOM     10  N   UNL     1      51.028   7.384  11.264  0.00  0.00    +0.000 N 
ATOM     11  O   UNL     1      50.846   9.498  12.049  0.00  0.00    +0.000 OA
ATOM     12  H   UNL     1      50.573   6.491  11.111  0.00  0.00    +0.000 HD
ATOM     13  H   UNL     1      52.017   7.496  11.096  0.00  0.00    +0.000 HD
ENDBRANCH   7   9
BRANCH   3  15
ATOM     14  C   UNL     1      46.113  11.288  11.477  0.00  0.00    +0.000 C 
ATOM     15  C   UNL     1      45.552   9.993  12.065  0.00  0.00    +0.000 C 
ATOM     16  C   UNL     1      44.381   9.469  11.230  0.00  0.00    +0.000 C 
ENDBRANCH   3  15
ENDBRANCH   1   5
BRANCH   1  17
ATOM     17  C   UNL     1      45.554   5.048  13.530  0.00  0.00    +0.000 C 
BRANCH  17  18
ATOM     18  C   UNL     1      44.912   4.210  12.454  0.00  0.00    +0.000 A 
ATOM     19  C   UNL     1      43.638   3.667  12.628  0.00  0.00    +0.000 A 
ATOM     20  C   UNL     1      43.074   2.956  11.583  0.00  0.00    +0.000 A 
ATOM     21  N   UNL     1      43.690   2.743  10.401  0.00  0.00    +0.000 NA
ATOM     22  C   UNL     1      44.944   3.236  10.240  0.00  0.00    +0.000 A 
ATOM     23  C   UNL     1      45.573   3.975  11.244  0.00  0.00    +0.000 A 
BRANCH  22  24
ATOM     24  C   UNL     1      45.597   2.934   8.953  0.00  0.00    +0.000 A 
ATOM     25  C   UNL     1      45.883   3.954   8.024  0.00  0.00    +0.000 A 
ATOM     26  C   UNL     1      46.484   3.673   6.790  0.00  0.00    +0.000 A 
ATOM     27  C   UNL     1      46.809   2.361   6.462  0.00  0.00    +0.000 A 
ATOM     28  C   UNL     1      46.532   1.347   7.366  0.00  0.00    +0.000 A 
ATOM     29  F   UNL     1      46.839   0.080   7.054  0.00  0.00    +0.000 F 
ATOM     30  C   UNL     1      45.937   1.618   8.594  0.00  0.00    +0.000 A 
ENDBRANCH  22  24
ENDBRANCH  17  18
ENDBRANCH   1  17
TORSDOF 6
ENDMDL
