MODEL 1
REMARK VINA RESULT:    -9.388      0.000      0.000
REMARK INTER + INTRA:         -12.902
REMARK INTER:                 -12.132
REMARK INTRA:                  -0.770
REMARK UNBOUND:                -0.770
REMARK  Name = 
REMARK  5 active torsions:
REMARK  status: ('A' for Active; 'I' for Inactive)
REMARK    1  A    between atoms: C_2  and  C_4
REMARK    2  A    between atoms: C_7  and  C_8
REMARK    3  A    between atoms: C_8  and  C_9
REMARK    4  A    between atoms: C_9  and  C_10
REMARK    5  A    between atoms: C_14  and  C_15
REMARK                            x       y       z     vdW  Elec       q    Type
REMARK                         _______ _______ _______ _____ _____    ______ ____
ROOT
ATOM      1  C   UNL     1      43.966   4.694  11.486  0.00  0.00    +0.000 C 
ATOM      2  C   UNL     1      42.753   5.127  12.311  0.00  0.00    +0.000 C 
ATOM      3  C   UNL     1      43.055   5.828  11.025  0.00  0.00    +0.000 C 
ENDROOT
BRANCH   1   4
ATOM      4  C   UNL     1      45.319   5.060  12.095  0.00  0.00    +0.000 A 
ATOM      5  C   UNL     1      46.084   6.137  11.627  0.00  0.00    +0.000 A 
ATOM      6  C   UNL     1      47.217   6.571  12.314  0.00  0.00    +0.000 A 
ATOM      7  C   UNL     1      47.622   5.916  13.478  0.00  0.00    +0.000 A 
ATOM      8  C   UNL     1      46.925   4.798  13.961  0.00  0.00    +0.000 A 
ATOM      9  C   UNL     1      45.788   4.383  13.237  0.00  0.00    +0.000 A 
BRANCH   8  10
ATOM     10  C   UNL     1      47.305   4.116  15.210  0.00  0.00    +0.000 A 
ATOM     11  N   UNL     1      47.874   2.896  15.122  0.00  0.00    +0.000 NA
ATOM     12  C   UNL     1      48.288   2.342  16.275  0.00  0.00    +0.000 A 
ATOM     13  C   UNL     1      48.149   2.945  17.503  0.00  0.00    +0.000 A 
ATOM     14  C   UNL     1      47.542   4.175  17.492  0.00  0.00    +0.000 A 
ATOM     15  N   UNL     1      47.114   4.782  16.371  0.00  0.00    +0.000 NA
ENDBRANCH   8  10
ENDBRANCH   1   4
BRANCH   1  16
ATOM     16  C   UNL     1      43.829   3.314  10.859  0.00  0.00    +0.000 C 
BRANCH  16  20
ATOM     17  C   UNL     1      46.411   2.714   7.522  0.00  0.00    +0.000 A 
ATOM     18  C   UNL     1      45.893   3.988   7.750  0.00  0.00    +0.000 A 
ATOM     19  C   UNL     1      45.002   4.184   8.806  0.00  0.00    +0.000 A 
ATOM     20  C   UNL     1      44.657   3.101   9.615  0.00  0.00    +0.000 A 
ATOM     21  N   UNL     1      45.130   1.850   9.389  0.00  0.00    +0.000 NA
ATOM     22  C   UNL     1      45.983   1.682   8.345  0.00  0.00    +0.000 A 
BRANCH  17  24
ATOM     23  N   UNL     1      47.354   3.214   5.336  0.00  0.00    +0.000 N 
ATOM     24  C   UNL     1      47.383   2.418   6.448  0.00  0.00    +0.000 C 
ATOM     25  O   UNL     1      48.212   1.525   6.562  0.00  0.00    +0.000 OA
ATOM     26  H   UNL     1      48.092   3.066   4.660  0.00  0.00    +0.000 HD
ATOM     27  H   UNL     1      46.876   4.104   5.315  0.00  0.00    +0.000 HD
ENDBRANCH  17  24
ENDBRANCH  16  20
ENDBRANCH   1  16
TORSDOF 5
ENDMDL
MODEL 2
REMARK VINA RESULT:    -8.504      2.179      3.674
REMARK INTER + INTRA:         -11.760
REMARK INTER:                 -10.828
REMARK INTRA:                  -0.933
REMARK UNBOUND:                -0.770
REMARK  Name = 
REMARK  5 active torsions:
REMARK  status: ('A' for Active; 'I' for Inactive)
REMARK    1  A    between atoms: C_2  and  C_4
REMARK    2  A    between atoms: C_7  and  C_8
REMARK    3  A    between atoms: C_8  and  C_9
REMARK    4  A    between atoms: C_9  and  C_10
REMARK    5  A    between atoms: C_14  and  C_15
REMARK                            x       y       z     vdW  Elec       q    Type
REMARK                         _______ _______ _______ _____ _____    ______ ____
ROOT
ATOM      1  C   UNL     1      43.829   4.772  11.505  0.00  0.00    +0.000 C 
ATOM      2  C   UNL     1      42.550   5.267  12.183  0.00  0.00    +0.000 C 
ATOM      3  C   UNL     1      43.034   5.947  10.941  0.00  0.00    +0.000 C 
ENDROOT
BRANCH   1   4
ATOM      4  C   UNL     1      45.117   5.075  12.269  0.00  0.00    +0.000 A 
ATOM      5  C   UNL     1      45.734   4.130  13.101  0.00  0.00    +0.000 A 
ATOM      6  C   UNL     1      47.002   4.357  13.636  0.00  0.00    +0.000 A 
ATOM      7  C   UNL     1      47.671   5.552  13.365  0.00  0.00    +0.000 A 
ATOM      8  C   UNL     1      47.077   6.555  12.583  0.00  0.00    +0.000 A 
ATOM      9  C   UNL     1      45.792   6.294  12.066  0.00  0.00    +0.000 A 
BRANCH   8  10
ATOM     10  C   UNL     1      47.778   7.805  12.247  0.00  0.00    +0.000 A 
ATOM     11  N   UNL     1      49.060   7.726  11.834  0.00  0.00    +0.000 NA
ATOM     12  C   UNL     1      49.640   8.876  11.452  0.00  0.00    +0.000 A 
ATOM     13  C   UNL     1      49.004  10.095  11.474  0.00  0.00    +0.000 A 
ATOM     14  C   UNL     1      47.709  10.077  11.926  0.00  0.00    +0.000 A 
ATOM     15  N   UNL     1      47.074   8.957  12.315  0.00  0.00    +0.000 NA
ENDBRANCH   8  10
ENDBRANCH   1   4
BRANCH   1  16
ATOM     16  C   UNL     1      43.700   3.397  10.865  0.00  0.00    +0.000 C 
BRANCH  16  20
ATOM     17  C   UNL     1      46.403   2.753   7.635  0.00  0.00    +0.000 A 
ATOM     18  C   UNL     1      45.983   4.053   7.910  0.00  0.00    +0.000 A 
ATOM     19  C   UNL     1      45.055   4.270   8.929  0.00  0.00    +0.000 A 
ATOM     20  C   UNL     1      44.574   3.180   9.654  0.00  0.00    +0.000 A 
ATOM     21  N   UNL     1      44.951   1.905   9.380  0.00  0.00    +0.000 NA
ATOM     22  C   UNL     1      45.844   1.720   8.373  0.00  0.00    +0.000 A 
BRANCH  17  24
ATOM     23  N   UNL     1      47.399   3.192   5.458  0.00  0.00    +0.000 N 
ATOM     24  C   UNL     1      47.405   2.431   6.596  0.00  0.00    +0.000 C 
ATOM     25  O   UNL     1      48.237   1.549   6.760  0.00  0.00    +0.000 OA
ATOM     26  H   UNL     1      48.155   3.028   4.807  0.00  0.00    +0.000 HD
ATOM     27  H   UNL     1      46.915   4.076   5.397  0.00  0.00    +0.000 HD
ENDBRANCH  17  24
ENDBRANCH  16  20
ENDBRANCH   1  16
TORSDOF 5
ENDMDL
MODEL 3
REMARK VINA RESULT:    -7.879      2.694      7.451
REMARK INTER + INTRA:         -10.953
REMARK INTER:                 -10.217
REMARK INTRA:                  -0.736
REMARK UNBOUND:                -0.770
REMARK  Name = 
REMARK  5 active torsions:
REMARK  status: ('A' for Active; 'I' for Inactive)
REMARK    1  A    between atoms: C_2  and  C_4
REMARK    2  A    between atoms: C_7  and  C_8
REMARK    3  A    between atoms: C_8  and  C_9
REMARK    4  A    between atoms: C_9  and  C_10
REMARK    5  A    between atoms: C_14  and  C_15
REMARK                            x       y       z     vdW  Elec       q    Type
REMARK                         _______ _______ _______ _____ _____    ______ ____
ROOT
ATOM      1  C   UNL     1      46.336   7.331  12.369  0.00  0.00    +0.000 C 
ATOM      2  C   UNL     1      46.292   8.740  11.773  0.00  0.00    +0.000 C 
ATOM      3  C   UNL     1      45.734   8.503  13.141  0.00  0.00    +0.000 C 
ENDROOT
BRANCH   1   4
ATOM      4  C   UNL     1      45.381   6.330  11.720  0.00  0.00    +0.000 A 
ATOM      5  C   UNL     1      44.004   6.335  11.977  0.00  0.00    +0.000 A 
ATOM      6  C   UNL     1      43.127   5.544  11.235  0.00  0.00    +0.000 A 
ATOM      7  C   UNL     1      43.619   4.711  10.229  0.00  0.00    +0.000 A 
ATOM      8  C   UNL     1      44.996   4.626   9.966  0.00  0.00    +0.000 A 
ATOM      9  C   UNL     1      45.852   5.434  10.741  0.00  0.00    +0.000 A 
BRANCH   8  10
ATOM     10  C   UNL     1      45.537   3.789   8.882  0.00  0.00    +0.000 A 
ATOM     11  N   UNL     1      46.064   4.404   7.804  0.00  0.00    +0.000 NA
ATOM     12  C   UNL     1      46.628   3.611   6.876  0.00  0.00    +0.000 A 
ATOM     13  C   UNL     1      46.676   2.241   6.973  0.00  0.00    +0.000 A 
ATOM     14  C   UNL     1      46.097   1.706   8.096  0.00  0.00    +0.000 A 
ATOM     15  N   UNL     1      45.526   2.448   9.060  0.00  0.00    +0.000 NA
ENDBRANCH   8  10
ENDBRANCH   1   4
BRANCH   1  16
ATOM     16  C   UNL     1      47.737   6.845  12.709  0.00  0.00    +0.000 C 
BRANCH  16  20
ATOM     17  C   UNL     1      47.682   4.401  16.200  0.00  0.00    +0.000 A 
ATOM     18  C   UNL     1      48.294   5.653  16.265  0.00  0.00    +0.000 A 
ATOM     19  C   UNL     1      48.368   6.437  15.113  0.00  0.00    +0.000 A 
ATOM     20  C   UNL     1      47.820   5.955  13.925  0.00  0.00    +0.000 A 
ATOM     21  N   UNL     1      47.247   4.728  13.838  0.00  0.00    +0.000 NA
ATOM     22  C   UNL     1      47.202   3.977  14.969  0.00  0.00    +0.000 A 
BRANCH  17  24
ATOM     23  N   UNL     1      48.542   3.513  18.295  0.00  0.00    +0.000 N 
ATOM     24  C   UNL     1      47.530   3.515  17.373  0.00  0.00    +0.000 C 
ATOM     25  O   UNL     1      46.523   2.840  17.541  0.00  0.00    +0.000 OA
ATOM     26  H   UNL     1      48.374   2.983  19.141  0.00  0.00    +0.000 HD
ATOM     27  H   UNL     1      49.250   4.232  18.328  0.00  0.00    +0.000 HD
ENDBRANCH  17  24
ENDBRANCH  16  20
ENDBRANCH   1  16
TORSDOF 5
ENDMDL
MODEL 4
REMARK VINA RESULT:    -7.726      2.851      7.635
REMARK INTER + INTRA:         -10.755
REMARK INTER:                  -9.867
REMARK INTRA:                  -0.888
REMARK UNBOUND:                -0.770
REMARK  Name = 
REMARK  5 active torsions:
REMARK  status: ('A' for Active; 'I' for Inactive)
REMARK    1  A    between atoms: C_2  and  C_4
REMARK    2  A    between atoms: C_7  and  C_8
REMARK    3  A    between atoms: C_8  and  C_9
REMARK    4  A    between atoms: C_9  and  C_10
REMARK    5  A    between atoms: C_14  and  C_15
REMARK                            x       y       z     vdW  Elec       q    Type
REMARK                         _______ _______ _______ _____ _____    ______ ____
ROOT
ATOM      1  C   UNL     1      46.401   7.240  12.408  0.00  0.00    +0.000 C 
ATOM      2  C   UNL     1      46.455   8.626  11.763  0.00  0.00    +0.000 C 
ATOM      3  C   UNL     1      45.807   8.464  13.101  0.00  0.00    +0.000 C 
ENDROOT
BRANCH   1   4
ATOM      4  C   UNL     1      45.443   6.257  11.737  0.00  0.00    +0.000 A 
ATOM      5  C   UNL     1      44.062   6.275  11.979  0.00  0.00    +0.000 A 
ATOM      6  C   UNL     1      43.185   5.502  11.218  0.00  0.00    +0.000 A 
ATOM      7  C   UNL     1      43.679   4.674  10.209  0.00  0.00    +0.000 A 
ATOM      8  C   UNL     1      45.058   4.576   9.960  0.00  0.00    +0.000 A 
ATOM      9  C   UNL     1      45.914   5.367  10.754  0.00  0.00    +0.000 A 
BRANCH   8  10
ATOM     10  C   UNL     1      45.602   3.744   8.874  0.00  0.00    +0.000 A 
ATOM     11  N   UNL     1      46.160   4.365   7.815  0.00  0.00    +0.000 NA
ATOM     12  C   UNL     1      46.725   3.575   6.885  0.00  0.00    +0.000 A 
ATOM     13  C   UNL     1      46.745   2.203   6.962  0.00  0.00    +0.000 A 
ATOM     14  C   UNL     1      46.137   1.663   8.066  0.00  0.00    +0.000 A 
ATOM     15  N   UNL     1      45.562   2.402   9.032  0.00  0.00    +0.000 NA
ENDBRANCH   8  10
ENDBRANCH   1   4
BRANCH   1  16
ATOM     16  C   UNL     1      47.757   6.708  12.848  0.00  0.00    +0.000 C 
BRANCH  16  20
ATOM     17  C   UNL     1      48.010   4.570  16.525  0.00  0.00    +0.000 A 
ATOM     18  C   UNL     1      47.129   4.118  15.545  0.00  0.00    +0.000 A 
ATOM     19  C   UNL     1      46.996   4.842  14.359  0.00  0.00    +0.000 A 
ATOM     20  C   UNL     1      47.755   5.998  14.180  0.00  0.00    +0.000 A 
ATOM     21  N   UNL     1      48.596   6.467  15.136  0.00  0.00    +0.000 NA
ATOM     22  C   UNL     1      48.695   5.753  16.287  0.00  0.00    +0.000 A 
BRANCH  17  24
ATOM     23  N   UNL     1      47.310   2.921  18.171  0.00  0.00    +0.000 N 
ATOM     24  C   UNL     1      48.239   3.853  17.798  0.00  0.00    +0.000 C 
ATOM     25  O   UNL     1      49.241   4.050  18.473  0.00  0.00    +0.000 OA
ATOM     26  H   UNL     1      47.535   2.366  18.987  0.00  0.00    +0.000 HD
ATOM     27  H   UNL     1      46.624   2.548  17.530  0.00  0.00    +0.000 HD
ENDBRANCH  17  24
ENDBRANCH  16  20
ENDBRANCH   1  16
TORSDOF 5
ENDMDL
MODEL 5
REMARK VINA RESULT:    -7.307      2.419      3.267
REMARK INTER + INTRA:         -10.213
REMARK INTER:                 -10.545
REMARK INTRA:                   0.332
REMARK UNBOUND:                -0.770
REMARK  Name = 
REMARK  5 active torsions:
REMARK  status: ('A' for Active; 'I' for Inactive)
REMARK    1  A    between atoms: C_2  and  C_4
REMARK    2  A    between atoms: C_7  and  C_8
REMARK    3  A    between atoms: C_8  and  C_9
REMARK    4  A    between atoms: C_9  and  C_10
REMARK    5  A    between atoms: C_14  and  C_15
REMARK                            x       y       z     vdW  Elec       q    Type
REMARK                         _______ _______ _______ _____ _____    ______ ____
ROOT
ATOM      1  C   UNL     1      44.266   5.184  11.594  0.00  0.00    +0.000 C 
ATOM      2  C   UNL     1      44.899   4.056  12.411  0.00  0.00    +0.000 C 
ATOM      3  C   UNL     1      43.581   4.621  12.836  0.00  0.00    +0.000 C 
ENDROOT
BRANCH   1   4
ATOM      4  C   UNL     1      44.973   6.534  11.711  0.00  0.00    +0.000 A 
ATOM      5  C   UNL     1      44.351   7.738  11.350  0.00  0.00    +0.000 A 
ATOM      6  C   UNL     1      44.938   8.969  11.642  0.00  0.00    +0.000 A 
ATOM      7  C   UNL     1      46.177   9.019  12.283  0.00  0.00    +0.000 A 
ATOM      8  C   UNL     1      46.868   7.844  12.618  0.00  0.00    +0.000 A 
ATOM      9  C   UNL     1      46.248   6.618  12.302  0.00  0.00    +0.000 A 
BRANCH   8  10
ATOM     10  C   UNL     1      48.155   7.868  13.333  0.00  0.00    +0.000 A 
ATOM     11  N   UNL     1      48.319   7.030  14.377  0.00  0.00    +0.000 NA
ATOM     12  C   UNL     1      49.535   7.017  14.951  0.00  0.00    +0.000 A 
ATOM     13  C   UNL     1      50.582   7.805  14.536  0.00  0.00    +0.000 A 
ATOM     14  C   UNL     1      50.312   8.637  13.479  0.00  0.00    +0.000 A 
ATOM     15  N   UNL     1      49.119   8.690  12.861  0.00  0.00    +0.000 NA
ENDBRANCH   8  10
ENDBRANCH   1   4
BRANCH   1  16
ATOM     16  C   UNL     1      43.791   4.759  10.212  0.00  0.00    +0.000 C 
BRANCH  16  20
ATOM     17  C   UNL     1      46.428   2.498   7.744  0.00  0.00    +0.000 A 
ATOM     18  C   UNL     1      45.626   1.824   8.664  0.00  0.00    +0.000 A 
ATOM     19  C   UNL     1      44.801   2.558   9.517  0.00  0.00    +0.000 A 
ATOM     20  C   UNL     1      44.791   3.950   9.422  0.00  0.00    +0.000 A 
ATOM     21  N   UNL     1      45.586   4.621   8.552  0.00  0.00    +0.000 NA
ATOM     22  C   UNL     1      46.392   3.884   7.744  0.00  0.00    +0.000 A 
BRANCH  17  24
ATOM     23  N   UNL     1      48.348   2.519   6.249  0.00  0.00    +0.000 N 
ATOM     24  C   UNL     1      47.310   1.804   6.781  0.00  0.00    +0.000 C 
ATOM     25  O   UNL     1      47.148   0.624   6.499  0.00  0.00    +0.000 OA
ATOM     26  H   UNL     1      49.001   2.001   5.676  0.00  0.00    +0.000 HD
ATOM     27  H   UNL     1      48.666   3.392   6.645  0.00  0.00    +0.000 HD
ENDBRANCH  17  24
ENDBRANCH  16  20
ENDBRANCH   1  16
TORSDOF 5
ENDMDL
MODEL 6
REMARK VINA RESULT:    -7.086      2.832      4.640
REMARK INTER + INTRA:          -9.928
REMARK INTER:                  -9.001
REMARK INTRA:                  -0.927
REMARK UNBOUND:                -0.770
REMARK  Name = 
REMARK  5 active torsions:
REMARK  status: ('A' for Active; 'I' for Inactive)
REMARK    1  A    between atoms: C_2  and  C_4
REMARK    2  A    between atoms: C_7  and  C_8
REMARK    3  A    between atoms: C_8  and  C_9
REMARK    4  A    between atoms: C_9  and  C_10
REMARK    5  A    between atoms: C_14  and  C_15
REMARK                            x       y       z     vdW  Elec       q    Type
REMARK                         _______ _______ _______ _____ _____    ______ ____
ROOT
ATOM      1  C   UNL     1      47.685   8.038  12.878  0.00  0.00    +0.000 C 
ATOM      2  C   UNL     1      48.347   9.146  12.058  0.00  0.00    +0.000 C 
ATOM      3  C   UNL     1      48.652   7.716  11.741  0.00  0.00    +0.000 C 
ENDROOT
BRANCH   1   4
ATOM      4  C   UNL     1      48.195   7.912  14.314  0.00  0.00    +0.000 A 
ATOM      5  C   UNL     1      48.181   8.990  15.210  0.00  0.00    +0.000 A 
ATOM      6  C   UNL     1      48.470   8.808  16.562  0.00  0.00    +0.000 A 
ATOM      7  C   UNL     1      48.803   7.540  17.042  0.00  0.00    +0.000 A 
ATOM      8  C   UNL     1      48.885   6.437  16.178  0.00  0.00    +0.000 A 
ATOM      9  C   UNL     1      48.593   6.659  14.817  0.00  0.00    +0.000 A 
BRANCH   8  10
ATOM     10  C   UNL     1      49.191   5.081  16.666  0.00  0.00    +0.000 A 
ATOM     11  N   UNL     1      48.256   4.122  16.508  0.00  0.00    +0.000 NA
ATOM     12  C   UNL     1      48.603   2.878  16.884  0.00  0.00    +0.000 A 
ATOM     13  C   UNL     1      49.829   2.557  17.416  0.00  0.00    +0.000 A 
ATOM     14  C   UNL     1      50.706   3.603  17.553  0.00  0.00    +0.000 A 
ATOM     15  N   UNL     1      50.419   4.865  17.189  0.00  0.00    +0.000 NA
ENDBRANCH   8  10
ENDBRANCH   1   4
BRANCH   1  16
ATOM     16  C   UNL     1      46.186   7.910  12.653  0.00  0.00    +0.000 C 
BRANCH  16  20
ATOM     17  C   UNL     1      44.596   4.123  11.517  0.00  0.00    +0.000 A 
ATOM     18  C   UNL     1      44.920   4.342  12.855  0.00  0.00    +0.000 A 
ATOM     19  C   UNL     1      45.494   5.557  13.229  0.00  0.00    +0.000 A 
ATOM     20  C   UNL     1      45.722   6.530  12.256  0.00  0.00    +0.000 A 
ATOM     21  N   UNL     1      45.439   6.321  10.945  0.00  0.00    +0.000 NA
ATOM     22  C   UNL     1      44.896   5.124  10.605  0.00  0.00    +0.000 A 
BRANCH  17  24
ATOM     23  N   UNL     1      44.551   2.235   9.983  0.00  0.00    +0.000 N 
ATOM     24  C   UNL     1      43.957   2.880  11.034  0.00  0.00    +0.000 C 
ATOM     25  O   UNL     1      42.961   2.419  11.575  0.00  0.00    +0.000 OA
ATOM     26  H   UNL     1      44.163   1.334   9.735  0.00  0.00    +0.000 HD
ATOM     27  H   UNL     1      45.495   2.433   9.686  0.00  0.00    +0.000 HD
ENDBRANCH  17  24
ENDBRANCH  16  20
ENDBRANCH   1  16
TORSDOF 5
ENDMDL
MODEL 7
REMARK VINA RESULT:    -6.536      3.309      7.893
REMARK INTER + INTRA:          -9.217
REMARK INTER:                  -8.491
REMARK INTRA:                  -0.726
REMARK UNBOUND:                -0.770
REMARK  Name = 
REMARK  5 active torsions:
REMARK  status: ('A' for Active; 'I' for Inactive)
REMARK    1  A    between atoms: C_2  and  C_4
REMARK    2  A    between atoms: C_7  and  C_8
REMARK    3  A    between atoms: C_8  and  C_9
REMARK    4  A    between atoms: C_9  and  C_10
REMARK    5  A    between atoms: C_14  and  C_15
REMARK                            x       y       z     vdW  Elec       q    Type
REMARK                         _______ _______ _______ _____ _____    ______ ____
ROOT
ATOM      1  C   UNL     1      45.637   6.577  11.782  0.00  0.00    +0.000 C 
ATOM      2  C   UNL     1      44.768   7.760  11.350  0.00  0.00    +0.000 C 
ATOM      3  C   UNL     1      44.767   7.333  12.783  0.00  0.00    +0.000 C 
ENDROOT
BRANCH   1   4
ATOM      4  C   UNL     1      45.152   5.213  11.292  0.00  0.00    +0.000 A 
ATOM      5  C   UNL     1      44.048   4.563  11.861  0.00  0.00    +0.000 A 
ATOM      6  C   UNL     1      43.506   3.417  11.280  0.00  0.00    +0.000 A 
ATOM      7  C   UNL     1      44.077   2.883  10.123  0.00  0.00    +0.000 A 
ATOM      8  C   UNL     1      45.216   3.463   9.543  0.00  0.00    +0.000 A 
ATOM      9  C   UNL     1      45.740   4.616  10.161  0.00  0.00    +0.000 A 
BRANCH   8  10
ATOM     10  C   UNL     1      45.811   2.945   8.299  0.00  0.00    +0.000 A 
ATOM     11  N   UNL     1      45.933   3.788   7.253  0.00  0.00    +0.000 NA
ATOM     12  C   UNL     1      46.560   3.307   6.165  0.00  0.00    +0.000 A 
ATOM     13  C   UNL     1      47.057   2.029   6.074  0.00  0.00    +0.000 A 
ATOM     14  C   UNL     1      46.869   1.242   7.182  0.00  0.00    +0.000 A 
ATOM     15  N   UNL     1      46.256   1.669   8.300  0.00  0.00    +0.000 NA
ENDBRANCH   8  10
ENDBRANCH   1   4
BRANCH   1  16
ATOM     16  C   UNL     1      47.132   6.851  11.723  0.00  0.00    +0.000 C 
BRANCH  16  20
ATOM     17  C   UNL     1      48.696   7.508  15.633  0.00  0.00    +0.000 A 
ATOM     18  C   UNL     1      48.487   8.606  14.799  0.00  0.00    +0.000 A 
ATOM     19  C   UNL     1      48.029   8.398  13.498  0.00  0.00    +0.000 A 
ATOM     20  C   UNL     1      47.783   7.096  13.063  0.00  0.00    +0.000 A 
ATOM     21  N   UNL     1      48.008   6.015  13.852  0.00  0.00    +0.000 NA
ATOM     22  C   UNL     1      48.469   6.244  15.109  0.00  0.00    +0.000 A 
BRANCH  17  24
ATOM     23  N   UNL     1      48.776   6.647  17.907  0.00  0.00    +0.000 N 
ATOM     24  C   UNL     1      49.149   7.633  17.034  0.00  0.00    +0.000 C 
ATOM     25  O   UNL     1      49.865   8.557  17.396  0.00  0.00    +0.000 OA
ATOM     26  H   UNL     1      49.182   6.693  18.833  0.00  0.00    +0.000 HD
ATOM     27  H   UNL     1      48.418   5.755  17.599  0.00  0.00    +0.000 HD
ENDBRANCH  17  24
ENDBRANCH  16  20
ENDBRANCH   1  16
TORSDOF 5
ENDMDL
