MODEL 1
REMARK VINA RESULT:    -9.567      0.000      0.000
REMARK INTER + INTRA:         -14.791
REMARK INTER:                 -13.482
REMARK INTRA:                  -1.309
REMARK UNBOUND:                -1.309
REMARK  Name = 
REMARK  7 active torsions:
REMARK  status: ('A' for Active; 'I' for Inactive)
REMARK    1  A    between atoms: C_2  and  C_4
REMARK    2  A    between atoms: C_7  and  O_8
REMARK    3  A    between atoms: O_8  and  C_9
REMARK    4  A    between atoms: C_9  and  C_10
REMARK    5  A    between atoms: C_10  and  C_13
REMARK    6  A    between atoms: C_17  and  C_18
REMARK    7  A    between atoms: C_22  and  C_23
REMARK                            x       y       z     vdW  Elec       q    Type
REMARK                         _______ _______ _______ _____ _____    ______ ____
ROOT
ATOM      1  C   UNL     1      45.187   5.310  12.359  0.00  0.00    +0.000 A 
ATOM      2  C   UNL     1      45.743   6.129  11.369  0.00  0.00    +0.000 A 
ATOM      3  C   UNL     1      46.991   6.724  11.563  0.00  0.00    +0.000 A 
ATOM      4  C   UNL     1      47.689   6.529  12.756  0.00  0.00    +0.000 A 
ATOM      5  C   UNL     1      47.163   5.721  13.776  0.00  0.00    +0.000 A 
ATOM      6  C   UNL     1      45.919   5.095  13.540  0.00  0.00    +0.000 A 
ENDROOT
BRANCH   5   7
ATOM      7  C   UNL     1      47.861   5.581  15.071  0.00  0.00    +0.000 A 
ATOM      8  C   UNL     1      48.941   6.393  15.421  0.00  0.00    +0.000 A 
ATOM      9  C   UNL     1      49.613   6.168  16.616  0.00  0.00    +0.000 A 
ATOM     10  C   UNL     1      49.192   5.139  17.446  0.00  0.00    +0.000 A 
ATOM     11  C   UNL     1      48.105   4.378  17.045  0.00  0.00    +0.000 A 
ATOM     12  N   UNL     1      47.425   4.577  15.878  0.00  0.00    +0.000 NA
BRANCH  11  13
ATOM     13  C   UNL     1      47.636   3.259  17.926  0.00  0.00    +0.000 C 
ATOM     14  N   UNL     1      48.338   3.075  19.088  0.00  0.00    +0.000 N 
ATOM     15  O   UNL     1      46.684   2.546  17.644  0.00  0.00    +0.000 OA
ATOM     16  H   UNL     1      49.105   3.702  19.315  0.00  0.00    +0.000 HD
ATOM     17  H   UNL     1      48.051   2.353  19.731  0.00  0.00    +0.000 HD
ENDBRANCH  11  13
ENDBRANCH   5   7
BRANCH   1  18
ATOM     18  C   UNL     1      43.788   4.710  12.206  0.00  0.00    +0.000 C 
ATOM     19  F   UNL     1      42.829   5.540  12.719  0.00  0.00    +0.000 F 
ATOM     20  F   UNL     1      43.659   3.537  12.891  0.00  0.00    +0.000 F 
BRANCH  18  21
ATOM     21  C   UNL     1      43.474   4.461  10.719  0.00  0.00    +0.000 C 
BRANCH  21  22
ATOM     22  O   UNL     1      43.609   3.072  10.326  0.00  0.00    +0.000 OA
BRANCH  22  26
ATOM     23  C   UNL     1      46.541   2.622   7.447  0.00  0.00    +0.000 A 
ATOM     24  C   UNL     1      45.935   3.870   7.610  0.00  0.00    +0.000 A 
ATOM     25  C   UNL     1      44.937   4.026   8.581  0.00  0.00    +0.000 A 
ATOM     26  C   UNL     1      44.585   2.925   9.353  0.00  0.00    +0.000 A 
ATOM     27  N   UNL     1      45.155   1.711   9.199  0.00  0.00    +0.000 NA
ATOM     28  C   UNL     1      46.107   1.579   8.248  0.00  0.00    +0.000 A 
BRANCH  23  30
ATOM     29  N   UNL     1      47.632   3.147   5.350  0.00  0.00    +0.000 N 
ATOM     30  C   UNL     1      47.606   2.353   6.462  0.00  0.00    +0.000 C 
ATOM     31  O   UNL     1      48.453   1.492   6.652  0.00  0.00    +0.000 OA
ATOM     32  H   UNL     1      48.431   3.033   4.737  0.00  0.00    +0.000 HD
ATOM     33  H   UNL     1      47.127   4.020   5.299  0.00  0.00    +0.000 HD
ENDBRANCH  23  30
ENDBRANCH  22  26
ENDBRANCH  21  22
ENDBRANCH  18  21
ENDBRANCH   1  18
TORSDOF 7
ENDMDL
MODEL 2
REMARK VINA RESULT:    -9.166      1.697      2.162
REMARK INTER + INTRA:         -14.226
REMARK INTER:                 -13.066
REMARK INTRA:                  -1.159
REMARK UNBOUND:                -1.309
REMARK  Name = 
REMARK  7 active torsions:
REMARK  status: ('A' for Active; 'I' for Inactive)
REMARK    1  A    between atoms: C_2  and  C_4
REMARK    2  A    between atoms: C_7  and  O_8
REMARK    3  A    between atoms: O_8  and  C_9
REMARK    4  A    between atoms: C_9  and  C_10
REMARK    5  A    between atoms: C_10  and  C_13
REMARK    6  A    between atoms: C_17  and  C_18
REMARK    7  A    between atoms: C_22  and  C_23
REMARK                            x       y       z     vdW  Elec       q    Type
REMARK                         _______ _______ _______ _____ _____    ______ ____
ROOT
ATOM      1  C   UNL     1      44.982   5.739  12.287  0.00  0.00    +0.000 A 
ATOM      2  C   UNL     1      45.719   6.611  11.476  0.00  0.00    +0.000 A 
ATOM      3  C   UNL     1      47.045   6.915  11.787  0.00  0.00    +0.000 A 
ATOM      4  C   UNL     1      47.646   6.373  12.925  0.00  0.00    +0.000 A 
ATOM      5  C   UNL     1      46.939   5.501  13.768  0.00  0.00    +0.000 A 
ATOM      6  C   UNL     1      45.613   5.174  13.409  0.00  0.00    +0.000 A 
ENDROOT
BRANCH   5   7
ATOM      7  C   UNL     1      47.546   4.993  15.016  0.00  0.00    +0.000 A 
ATOM      8  C   UNL     1      47.120   3.807  15.616  0.00  0.00    +0.000 A 
ATOM      9  C   UNL     1      47.669   3.414  16.831  0.00  0.00    +0.000 A 
ATOM     10  C   UNL     1      48.639   4.209  17.424  0.00  0.00    +0.000 A 
ATOM     11  C   UNL     1      49.025   5.368  16.769  0.00  0.00    +0.000 A 
ATOM     12  N   UNL     1      48.505   5.777  15.575  0.00  0.00    +0.000 NA
BRANCH  11  13
ATOM     13  C   UNL     1      50.070   6.243  17.395  0.00  0.00    +0.000 C 
ATOM     14  N   UNL     1      51.362   6.006  17.008  0.00  0.00    +0.000 N 
ATOM     15  O   UNL     1      49.802   7.123  18.200  0.00  0.00    +0.000 OA
ATOM     16  H   UNL     1      51.555   5.292  16.312  0.00  0.00    +0.000 HD
ATOM     17  H   UNL     1      52.103   6.583  17.379  0.00  0.00    +0.000 HD
ENDBRANCH  11  13
ENDBRANCH   5   7
BRANCH   1  18
ATOM     18  C   UNL     1      43.505   5.450  12.013  0.00  0.00    +0.000 C 
ATOM     19  F   UNL     1      42.881   6.531  11.450  0.00  0.00    +0.000 F 
ATOM     20  F   UNL     1      42.816   5.189  13.161  0.00  0.00    +0.000 F 
BRANCH  18  21
ATOM     21  C   UNL     1      43.364   4.252  11.057  0.00  0.00    +0.000 C 
BRANCH  21  22
ATOM     22  O   UNL     1      43.469   4.616   9.657  0.00  0.00    +0.000 OA
BRANCH  22  26
ATOM     23  C   UNL     1      46.403   2.424   7.742  0.00  0.00    +0.000 A 
ATOM     24  C   UNL     1      45.553   1.779   8.642  0.00  0.00    +0.000 A 
ATOM     25  C   UNL     1      44.561   2.519   9.299  0.00  0.00    +0.000 A 
ATOM     26  C   UNL     1      44.457   3.877   9.026  0.00  0.00    +0.000 A 
ATOM     27  N   UNL     1      45.279   4.516   8.165  0.00  0.00    +0.000 NA
ATOM     28  C   UNL     1      46.238   3.785   7.553  0.00  0.00    +0.000 A 
BRANCH  23  30
ATOM     29  N   UNL     1      48.490   2.516   6.515  0.00  0.00    +0.000 N 
ATOM     30  C   UNL     1      47.474   1.737   6.994  0.00  0.00    +0.000 C 
ATOM     31  O   UNL     1      47.477   0.523   6.848  0.00  0.00    +0.000 OA
ATOM     32  H   UNL     1      49.276   2.025   6.105  0.00  0.00    +0.000 HD
ATOM     33  H   UNL     1      48.650   3.456   6.847  0.00  0.00    +0.000 HD
ENDBRANCH  23  30
ENDBRANCH  22  26
ENDBRANCH  21  22
ENDBRANCH  18  21
ENDBRANCH   1  18
TORSDOF 7
ENDMDL
MODEL 3
REMARK VINA RESULT:    -9.120      3.287      5.050
REMARK INTER + INTRA:         -14.160
REMARK INTER:                 -12.932
REMARK INTRA:                  -1.229
REMARK UNBOUND:                -1.309
REMARK  Name = 
REMARK  7 active torsions:
REMARK  status: ('A' for Active; 'I' for Inactive)
REMARK    1  A    between atoms: C_2  and  C_4
REMARK    2  A    between atoms: C_7  and  O_8
REMARK    3  A    between atoms: O_8  and  C_9
REMARK    4  A    between atoms: C_9  and  C_10
REMARK    5  A    between atoms: C_10  and  C_13
REMARK    6  A    between atoms: C_17  and  C_18
REMARK    7  A    between atoms: C_22  and  C_23
REMARK                            x       y       z     vdW  Elec       q    Type
REMARK                         _______ _______ _______ _____ _____    ______ ____
ROOT
ATOM      1  C   UNL     1      44.717   5.035  12.966  0.00  0.00    +0.000 A 
ATOM      2  C   UNL     1      45.879   4.398  13.417  0.00  0.00    +0.000 A 
ATOM      3  C   UNL     1      47.071   5.114  13.550  0.00  0.00    +0.000 A 
ATOM      4  C   UNL     1      47.123   6.468  13.213  0.00  0.00    +0.000 A 
ATOM      5  C   UNL     1      45.981   7.141  12.749  0.00  0.00    +0.000 A 
ATOM      6  C   UNL     1      44.778   6.407  12.664  0.00  0.00    +0.000 A 
ENDROOT
BRANCH   5   7
ATOM      7  C   UNL     1      46.055   8.550  12.314  0.00  0.00    +0.000 A 
ATOM      8  C   UNL     1      47.245   9.278  12.362  0.00  0.00    +0.000 A 
ATOM      9  C   UNL     1      47.243  10.624  12.015  0.00  0.00    +0.000 A 
ATOM     10  C   UNL     1      46.055  11.220  11.620  0.00  0.00    +0.000 A 
ATOM     11  C   UNL     1      44.911  10.437  11.581  0.00  0.00    +0.000 A 
ATOM     12  N   UNL     1      44.883   9.113  11.914  0.00  0.00    +0.000 NA
BRANCH  11  13
ATOM     13  C   UNL     1      43.616  11.063  11.159  0.00  0.00    +0.000 C 
ATOM     14  N   UNL     1      42.632  11.108  12.112  0.00  0.00    +0.000 N 
ATOM     15  O   UNL     1      43.431  11.516  10.039  0.00  0.00    +0.000 OA
ATOM     16  H   UNL     1      42.822  10.755  13.046  0.00  0.00    +0.000 HD
ATOM     17  H   UNL     1      41.748  11.541  11.891  0.00  0.00    +0.000 HD
ENDBRANCH  11  13
ENDBRANCH   5   7
BRANCH   1  18
ATOM     18  C   UNL     1      43.419   4.258  12.736  0.00  0.00    +0.000 C 
ATOM     19  F   UNL     1      42.361   5.102  12.534  0.00  0.00    +0.000 F 
ATOM     20  F   UNL     1      43.080   3.500  13.818  0.00  0.00    +0.000 F 
BRANCH  18  21
ATOM     21  C   UNL     1      43.556   3.344  11.504  0.00  0.00    +0.000 C 
BRANCH  21  22
ATOM     22  O   UNL     1      43.578   4.068  10.249  0.00  0.00    +0.000 OA
BRANCH  22  26
ATOM     23  C   UNL     1      46.419   2.471   7.706  0.00  0.00    +0.000 A 
ATOM     24  C   UNL     1      46.224   3.854   7.724  0.00  0.00    +0.000 A 
ATOM     25  C   UNL     1      45.258   4.399   8.580  0.00  0.00    +0.000 A 
ATOM     26  C   UNL     1      44.525   3.538   9.387  0.00  0.00    +0.000 A 
ATOM     27  N   UNL     1      44.696   2.198   9.374  0.00  0.00    +0.000 NA
ATOM     28  C   UNL     1      45.624   1.692   8.531  0.00  0.00    +0.000 A 
BRANCH  23  30
ATOM     29  N   UNL     1      48.512   2.525   6.489  0.00  0.00    +0.000 N 
ATOM     30  C   UNL     1      47.414   1.797   6.850  0.00  0.00    +0.000 C 
ATOM     31  O   UNL     1      47.285   0.628   6.517  0.00  0.00    +0.000 OA
ATOM     32  H   UNL     1      49.243   2.022   6.000  0.00  0.00    +0.000 HD
ATOM     33  H   UNL     1      48.772   3.379   6.963  0.00  0.00    +0.000 HD
ENDBRANCH  23  30
ENDBRANCH  22  26
ENDBRANCH  21  22
ENDBRANCH  18  21
ENDBRANCH   1  18
TORSDOF 7
ENDMDL
MODEL 4
REMARK VINA RESULT:    -8.888      3.145      4.522
REMARK INTER + INTRA:         -13.834
REMARK INTER:                 -12.559
REMARK INTRA:                  -1.274
REMARK UNBOUND:                -1.309
REMARK  Name = 
REMARK  7 active torsions:
REMARK  status: ('A' for Active; 'I' for Inactive)
REMARK    1  A    between atoms: C_2  and  C_4
REMARK    2  A    between atoms: C_7  and  O_8
REMARK    3  A    between atoms: O_8  and  C_9
REMARK    4  A    between atoms: C_9  and  C_10
REMARK    5  A    between atoms: C_10  and  C_13
REMARK    6  A    between atoms: C_17  and  C_18
REMARK    7  A    between atoms: C_22  and  C_23
REMARK                            x       y       z     vdW  Elec       q    Type
REMARK                         _______ _______ _______ _____ _____    ______ ____
ROOT
ATOM      1  C   UNL     1      44.819   5.352  12.685  0.00  0.00    +0.000 A 
ATOM      2  C   UNL     1      45.572   4.335  13.284  0.00  0.00    +0.000 A 
ATOM      3  C   UNL     1      46.914   4.544  13.606  0.00  0.00    +0.000 A 
ATOM      4  C   UNL     1      47.529   5.762  13.311  0.00  0.00    +0.000 A 
ATOM      5  C   UNL     1      46.812   6.804  12.703  0.00  0.00    +0.000 A 
ATOM      6  C   UNL     1      45.445   6.584  12.427  0.00  0.00    +0.000 A 
ENDROOT
BRANCH   5   7
ATOM      7  C   UNL     1      47.482   8.062  12.315  0.00  0.00    +0.000 A 
ATOM      8  C   UNL     1      46.786   9.266  12.199  0.00  0.00    +0.000 A 
ATOM      9  C   UNL     1      47.448  10.405  11.755  0.00  0.00    +0.000 A 
ATOM     10  C   UNL     1      48.796  10.324  11.439  0.00  0.00    +0.000 A 
ATOM     11  C   UNL     1      49.431   9.101  11.590  0.00  0.00    +0.000 A 
ATOM     12  N   UNL     1      48.807   7.967  12.025  0.00  0.00    +0.000 NA
BRANCH  11  13
ATOM     13  C   UNL     1      50.888   8.991  11.251  0.00  0.00    +0.000 C 
ATOM     14  N   UNL     1      51.467   7.770  11.476  0.00  0.00    +0.000 N 
ATOM     15  O   UNL     1      51.535   9.923  10.795  0.00  0.00    +0.000 OA
ATOM     16  H   UNL     1      50.899   7.003  11.823  0.00  0.00    +0.000 HD
ATOM     17  H   UNL     1      52.438   7.633  11.241  0.00  0.00    +0.000 HD
ENDBRANCH  11  13
ENDBRANCH   5   7
BRANCH   1  18
ATOM     18  C   UNL     1      43.370   5.123  12.251  0.00  0.00    +0.000 C 
ATOM     19  F   UNL     1      42.768   6.296  11.883  0.00  0.00    +0.000 F 
ATOM     20  F   UNL     1      42.607   4.624  13.265  0.00  0.00    +0.000 F 
BRANCH  18  21
ATOM     21  C   UNL     1      43.317   4.152  11.057  0.00  0.00    +0.000 C 
BRANCH  21  22
ATOM     22  O   UNL     1      43.745   4.751   9.808  0.00  0.00    +0.000 OA
BRANCH  22  26
ATOM     23  C   UNL     1      46.356   2.278   7.769  0.00  0.00    +0.000 A 
ATOM     24  C   UNL     1      45.542   1.733   8.765  0.00  0.00    +0.000 A 
ATOM     25  C   UNL     1      44.660   2.568   9.463  0.00  0.00    +0.000 A 
ATOM     26  C   UNL     1      44.626   3.918   9.135  0.00  0.00    +0.000 A 
ATOM     27  N   UNL     1      45.413   4.461   8.181  0.00  0.00    +0.000 NA
ATOM     28  C   UNL     1      46.267   3.639   7.529  0.00  0.00    +0.000 A 
BRANCH  23  30
ATOM     29  N   UNL     1      48.430   2.135   6.526  0.00  0.00    +0.000 N 
ATOM     30  C   UNL     1      47.312   1.486   6.971  0.00  0.00    +0.000 C 
ATOM     31  O   UNL     1      47.136   0.296   6.756  0.00  0.00    +0.000 OA
ATOM     32  H   UNL     1      49.134   1.559   6.079  0.00  0.00    +0.000 HD
ATOM     33  H   UNL     1      48.727   3.020   6.909  0.00  0.00    +0.000 HD
ENDBRANCH  23  30
ENDBRANCH  22  26
ENDBRANCH  21  22
ENDBRANCH  18  21
ENDBRANCH   1  18
TORSDOF 7
ENDMDL
MODEL 5
REMARK VINA RESULT:    -8.828      3.450      4.974
REMARK INTER + INTRA:         -13.750
REMARK INTER:                 -12.553
REMARK INTRA:                  -1.197
REMARK UNBOUND:                -1.309
REMARK  Name = 
REMARK  7 active torsions:
REMARK  status: ('A' for Active; 'I' for Inactive)
REMARK    1  A    between atoms: C_2  and  C_4
REMARK    2  A    between atoms: C_7  and  O_8
REMARK    3  A    between atoms: O_8  and  C_9
REMARK    4  A    between atoms: C_9  and  C_10
REMARK    5  A    between atoms: C_10  and  C_13
REMARK    6  A    between atoms: C_17  and  C_18
REMARK    7  A    between atoms: C_22  and  C_23
REMARK                            x       y       z     vdW  Elec       q    Type
REMARK                         _______ _______ _______ _____ _____    ______ ____
ROOT
ATOM      1  C   UNL     1      44.720   5.272  12.830  0.00  0.00    +0.000 A 
ATOM      2  C   UNL     1      45.860   4.542  13.187  0.00  0.00    +0.000 A 
ATOM      3  C   UNL     1      47.097   5.178  13.307  0.00  0.00    +0.000 A 
ATOM      4  C   UNL     1      47.217   6.544  13.049  0.00  0.00    +0.000 A 
ATOM      5  C   UNL     1      46.099   7.310  12.681  0.00  0.00    +0.000 A 
ATOM      6  C   UNL     1      44.852   6.654  12.608  0.00  0.00    +0.000 A 
ENDROOT
BRANCH   5   7
ATOM      7  C   UNL     1      46.240   8.737  12.327  0.00  0.00    +0.000 A 
ATOM      8  C   UNL     1      45.132   9.568  12.150  0.00  0.00    +0.000 A 
ATOM      9  C   UNL     1      45.316  10.884  11.740  0.00  0.00    +0.000 A 
ATOM     10  C   UNL     1      46.604  11.350  11.519  0.00  0.00    +0.000 A 
ATOM     11  C   UNL     1      47.661  10.476  11.725  0.00  0.00    +0.000 A 
ATOM     12  N   UNL     1      47.510   9.181  12.129  0.00  0.00    +0.000 NA
BRANCH  11  13
ATOM     13  C   UNL     1      49.060  10.959  11.488  0.00  0.00    +0.000 C 
ATOM     14  N   UNL     1      49.312  11.483  10.247  0.00  0.00    +0.000 N 
ATOM     15  O   UNL     1      49.935  10.903  12.340  0.00  0.00    +0.000 OA
ATOM     16  H   UNL     1      48.560  11.549   9.568  0.00  0.00    +0.000 HD
ATOM     17  H   UNL     1      50.231  11.847  10.042  0.00  0.00    +0.000 HD
ENDBRANCH  11  13
ENDBRANCH   5   7
BRANCH   1  18
ATOM     18  C   UNL     1      43.369   4.587  12.615  0.00  0.00    +0.000 C 
ATOM     19  F   UNL     1      42.350   5.499  12.560  0.00  0.00    +0.000 F 
ATOM     20  F   UNL     1      43.053   3.748  13.643  0.00  0.00    +0.000 F 
BRANCH  18  21
ATOM     21  C   UNL     1      43.380   3.787  11.299  0.00  0.00    +0.000 C 
BRANCH  21  22
ATOM     22  O   UNL     1      43.782   4.574  10.150  0.00  0.00    +0.000 OA
BRANCH  22  26
ATOM     23  C   UNL     1      46.418   2.487   7.746  0.00  0.00    +0.000 A 
ATOM     24  C   UNL     1      45.679   1.792   8.705  0.00  0.00    +0.000 A 
ATOM     25  C   UNL     1      44.789   2.497   9.527  0.00  0.00    +0.000 A 
ATOM     26  C   UNL     1      44.672   3.870   9.354  0.00  0.00    +0.000 A 
ATOM     27  N   UNL     1      45.387   4.556   8.436  0.00  0.00    +0.000 NA
ATOM     28  C   UNL     1      46.250   3.859   7.663  0.00  0.00    +0.000 A 
BRANCH  23  30
ATOM     29  N   UNL     1      48.465   2.578   6.453  0.00  0.00    +0.000 N 
ATOM     30  C   UNL     1      47.375   1.842   6.826  0.00  0.00    +0.000 C 
ATOM     31  O   UNL     1      47.227   0.687   6.453  0.00  0.00    +0.000 OA
ATOM     32  H   UNL     1      49.173   2.090   5.917  0.00  0.00    +0.000 HD
ATOM     33  H   UNL     1      48.748   3.411   6.948  0.00  0.00    +0.000 HD
ENDBRANCH  23  30
ENDBRANCH  22  26
ENDBRANCH  21  22
ENDBRANCH  18  21
ENDBRANCH   1  18
TORSDOF 7
ENDMDL
MODEL 6
REMARK VINA RESULT:    -8.271      1.513      1.826
REMARK INTER + INTRA:         -12.965
REMARK INTER:                 -11.710
REMARK INTRA:                  -1.255
REMARK UNBOUND:                -1.309
REMARK  Name = 
REMARK  7 active torsions:
REMARK  status: ('A' for Active; 'I' for Inactive)
REMARK    1  A    between atoms: C_2  and  C_4
REMARK    2  A    between atoms: C_7  and  O_8
REMARK    3  A    between atoms: O_8  and  C_9
REMARK    4  A    between atoms: C_9  and  C_10
REMARK    5  A    between atoms: C_10  and  C_13
REMARK    6  A    between atoms: C_17  and  C_18
REMARK    7  A    between atoms: C_22  and  C_23
REMARK                            x       y       z     vdW  Elec       q    Type
REMARK                         _______ _______ _______ _____ _____    ______ ____
ROOT
ATOM      1  C   UNL     1      44.893   5.677  12.298  0.00  0.00    +0.000 A 
ATOM      2  C   UNL     1      44.488   6.790  11.552  0.00  0.00    +0.000 A 
ATOM      3  C   UNL     1      45.253   7.959  11.554  0.00  0.00    +0.000 A 
ATOM      4  C   UNL     1      46.418   8.038  12.318  0.00  0.00    +0.000 A 
ATOM      5  C   UNL     1      46.854   6.947  13.086  0.00  0.00    +0.000 A 
ATOM      6  C   UNL     1      46.087   5.763  13.035  0.00  0.00    +0.000 A 
ENDROOT
BRANCH   5   7
ATOM      7  C   UNL     1      48.040   7.058  13.959  0.00  0.00    +0.000 A 
ATOM      8  C   UNL     1      49.187   7.750  13.565  0.00  0.00    +0.000 A 
ATOM      9  C   UNL     1      50.305   7.758  14.391  0.00  0.00    +0.000 A 
ATOM     10  C   UNL     1      50.257   7.080  15.601  0.00  0.00    +0.000 A 
ATOM     11  C   UNL     1      49.083   6.425  15.938  0.00  0.00    +0.000 A 
ATOM     12  N   UNL     1      47.970   6.402  15.148  0.00  0.00    +0.000 NA
BRANCH  11  13
ATOM     13  C   UNL     1      49.012   5.684  17.240  0.00  0.00    +0.000 C 
ATOM     14  N   UNL     1      47.790   5.673  17.859  0.00  0.00    +0.000 N 
ATOM     15  O   UNL     1      49.974   5.114  17.732  0.00  0.00    +0.000 OA
ATOM     16  H   UNL     1      46.997   6.126  17.412  0.00  0.00    +0.000 HD
ATOM     17  H   UNL     1      47.678   5.167  18.725  0.00  0.00    +0.000 HD
ENDBRANCH  11  13
ENDBRANCH   5   7
BRANCH   1  18
ATOM     18  C   UNL     1      44.034   4.413  12.377  0.00  0.00    +0.000 C 
ATOM     19  F   UNL     1      42.989   4.573  13.247  0.00  0.00    +0.000 F 
ATOM     20  F   UNL     1      44.740   3.346  12.848  0.00  0.00    +0.000 F 
BRANCH  18  21
ATOM     21  C   UNL     1      43.465   4.067  10.989  0.00  0.00    +0.000 C 
BRANCH  21  22
ATOM     22  O   UNL     1      43.800   2.728  10.547  0.00  0.00    +0.000 OA
BRANCH  22  26
ATOM     23  C   UNL     1      46.405   2.825   7.339  0.00  0.00    +0.000 A 
ATOM     24  C   UNL     1      45.756   4.001   7.723  0.00  0.00    +0.000 A 
ATOM     25  C   UNL     1      44.868   3.971   8.805  0.00  0.00    +0.000 A 
ATOM     26  C   UNL     1      44.665   2.765   9.464  0.00  0.00    +0.000 A 
ATOM     27  N   UNL     1      45.278   1.619   9.098  0.00  0.00    +0.000 NA
ATOM     28  C   UNL     1      46.121   1.666   8.042  0.00  0.00    +0.000 A 
BRANCH  23  30
ATOM     29  N   UNL     1      48.665   2.475   6.539  0.00  0.00    +0.000 N 
ATOM     30  C   UNL     1      47.364   2.749   6.220  0.00  0.00    +0.000 C 
ATOM     31  O   UNL     1      47.005   2.877   5.058  0.00  0.00    +0.000 OA
ATOM     32  H   UNL     1      49.292   2.310   5.761  0.00  0.00    +0.000 HD
ATOM     33  H   UNL     1      48.931   2.103   7.439  0.00  0.00    +0.000 HD
ENDBRANCH  23  30
ENDBRANCH  22  26
ENDBRANCH  21  22
ENDBRANCH  18  21
ENDBRANCH   1  18
TORSDOF 7
ENDMDL
MODEL 7
REMARK VINA RESULT:    -8.070      2.785      3.567
REMARK INTER + INTRA:         -12.681
REMARK INTER:                 -11.474
REMARK INTRA:                  -1.206
REMARK UNBOUND:                -1.309
REMARK  Name = 
REMARK  7 active torsions:
REMARK  status: ('A' for Active; 'I' for Inactive)
REMARK    1  A    between atoms: C_2  and  C_4
REMARK    2  A    between atoms: C_7  and  O_8
REMARK    3  A    between atoms: O_8  and  C_9
REMARK    4  A    between atoms: C_9  and  C_10
REMARK    5  A    between atoms: C_10  and  C_13
REMARK    6  A    between atoms: C_17  and  C_18
REMARK    7  A    between atoms: C_22  and  C_23
REMARK                            x       y       z     vdW  Elec       q    Type
REMARK                         _______ _______ _______ _____ _____    ______ ____
ROOT
ATOM      1  C   UNL     1      45.053   5.403  12.198  0.00  0.00    +0.000 A 
ATOM      2  C   UNL     1      44.398   6.506  11.638  0.00  0.00    +0.000 A 
ATOM      3  C   UNL     1      45.001   7.766  11.645  0.00  0.00    +0.000 A 
ATOM      4  C   UNL     1      46.255   7.945  12.231  0.00  0.00    +0.000 A 
ATOM      5  C   UNL     1      46.941   6.866  12.811  0.00  0.00    +0.000 A 
ATOM      6  C   UNL     1      46.330   5.595  12.754  0.00  0.00    +0.000 A 
ENDROOT
BRANCH   5   7
ATOM      7  C   UNL     1      48.229   7.070  13.505  0.00  0.00    +0.000 A 
ATOM      8  C   UNL     1      48.422   6.689  14.833  0.00  0.00    +0.000 A 
ATOM      9  C   UNL     1      49.628   6.975  15.464  0.00  0.00    +0.000 A 
ATOM     10  C   UNL     1      50.623   7.633  14.756  0.00  0.00    +0.000 A 
ATOM     11  C   UNL     1      50.371   7.972  13.435  0.00  0.00    +0.000 A 
ATOM     12  N   UNL     1      49.199   7.702  12.790  0.00  0.00    +0.000 NA
BRANCH  11  13
ATOM     13  C   UNL     1      51.433   8.686  12.653  0.00  0.00    +0.000 C 
ATOM     14  N   UNL     1      52.659   8.783  13.256  0.00  0.00    +0.000 N 
ATOM     15  O   UNL     1      51.236   9.154  11.541  0.00  0.00    +0.000 OA
ATOM     16  H   UNL     1      52.806   8.356  14.165  0.00  0.00    +0.000 HD
ATOM     17  H   UNL     1      53.418   9.231  12.764  0.00  0.00    +0.000 HD
ENDBRANCH  11  13
ENDBRANCH   5   7
BRANCH   1  18
ATOM     18  C   UNL     1      44.382   4.030  12.275  0.00  0.00    +0.000 C 
ATOM     19  F   UNL     1      43.540   3.945  13.350  0.00  0.00    +0.000 F 
ATOM     20  F   UNL     1      45.292   3.028  12.445  0.00  0.00    +0.000 F 
BRANCH  18  21
ATOM     21  C   UNL     1      43.570   3.761  10.995  0.00  0.00    +0.000 C 
BRANCH  21  22
ATOM     22  O   UNL     1      43.829   2.460  10.411  0.00  0.00    +0.000 OA
BRANCH  22  26
ATOM     23  C   UNL     1      46.453   2.754   7.231  0.00  0.00    +0.000 A 
ATOM     24  C   UNL     1      45.734   3.885   7.625  0.00  0.00    +0.000 A 
ATOM     25  C   UNL     1      44.839   3.788   8.699  0.00  0.00    +0.000 A 
ATOM     26  C   UNL     1      44.700   2.563   9.338  0.00  0.00    +0.000 A 
ATOM     27  N   UNL     1      45.381   1.459   8.962  0.00  0.00    +0.000 NA
ATOM     28  C   UNL     1      46.230   1.571   7.915  0.00  0.00    +0.000 A 
BRANCH  23  30
ATOM     29  N   UNL     1      48.724   2.470   6.439  0.00  0.00    +0.000 N 
ATOM     30  C   UNL     1      47.425   2.749   6.121  0.00  0.00    +0.000 C 
ATOM     31  O   UNL     1      47.078   2.940   4.964  0.00  0.00    +0.000 OA
ATOM     32  H   UNL     1      49.362   2.354   5.660  0.00  0.00    +0.000 HD
ATOM     33  H   UNL     1      48.985   2.049   7.319  0.00  0.00    +0.000 HD
ENDBRANCH  23  30
ENDBRANCH  22  26
ENDBRANCH  21  22
ENDBRANCH  18  21
ENDBRANCH   1  18
TORSDOF 7
ENDMDL
MODEL 8
REMARK VINA RESULT:    -7.866      2.756      3.658
REMARK INTER + INTRA:         -12.394
REMARK INTER:                 -11.207
REMARK INTRA:                  -1.188
REMARK UNBOUND:                -1.309
REMARK  Name = 
REMARK  7 active torsions:
REMARK  status: ('A' for Active; 'I' for Inactive)
REMARK    1  A    between atoms: C_2  and  C_4
REMARK    2  A    between atoms: C_7  and  O_8
REMARK    3  A    between atoms: O_8  and  C_9
REMARK    4  A    between atoms: C_9  and  C_10
REMARK    5  A    between atoms: C_10  and  C_13
REMARK    6  A    between atoms: C_17  and  C_18
REMARK    7  A    between atoms: C_22  and  C_23
REMARK                            x       y       z     vdW  Elec       q    Type
REMARK                         _______ _______ _______ _____ _____    ______ ____
ROOT
ATOM      1  C   UNL     1      44.855   5.170  12.661  0.00  0.00    +0.000 A 
ATOM      2  C   UNL     1      45.503   4.028  13.146  0.00  0.00    +0.000 A 
ATOM      3  C   UNL     1      46.821   4.103  13.603  0.00  0.00    +0.000 A 
ATOM      4  C   UNL     1      47.515   5.313  13.561  0.00  0.00    +0.000 A 
ATOM      5  C   UNL     1      46.904   6.479  13.074  0.00  0.00    +0.000 A 
ATOM      6  C   UNL     1      45.558   6.388  12.658  0.00  0.00    +0.000 A 
ENDROOT
BRANCH   5   7
ATOM      7  C   UNL     1      47.664   7.740  12.951  0.00  0.00    +0.000 A 
ATOM      8  C   UNL     1      48.140   8.200  11.722  0.00  0.00    +0.000 A 
ATOM      9  C   UNL     1      48.917   9.351  11.671  0.00  0.00    +0.000 A 
ATOM     10  C   UNL     1      49.202  10.028  12.848  0.00  0.00    +0.000 A 
ATOM     11  C   UNL     1      48.686   9.525  14.033  0.00  0.00    +0.000 A 
ATOM     12  N   UNL     1      47.919   8.399  14.113  0.00  0.00    +0.000 NA
BRANCH  11  13
ATOM     13  C   UNL     1      48.985  10.241  15.317  0.00  0.00    +0.000 C 
ATOM     14  N   UNL     1      49.149   9.448  16.422  0.00  0.00    +0.000 N 
ATOM     15  O   UNL     1      49.085  11.456  15.391  0.00  0.00    +0.000 OA
ATOM     16  H   UNL     1      49.094   8.438  16.327  0.00  0.00    +0.000 HD
ATOM     17  H   UNL     1      49.377   9.874  17.307  0.00  0.00    +0.000 HD
ENDBRANCH  11  13
ENDBRANCH   5   7
BRANCH   1  18
ATOM     18  C   UNL     1      43.441   5.101  12.082  0.00  0.00    +0.000 C 
ATOM     19  F   UNL     1      42.761   6.271  12.282  0.00  0.00    +0.000 F 
ATOM     20  F   UNL     1      42.690   4.135  12.685  0.00  0.00    +0.000 F 
BRANCH  18  21
ATOM     21  C   UNL     1      43.498   4.822  10.568  0.00  0.00    +0.000 C 
BRANCH  21  22
ATOM     22  O   UNL     1      43.505   3.409  10.243  0.00  0.00    +0.000 OA
BRANCH  22  26
ATOM     23  C   UNL     1      46.559   2.505   7.608  0.00  0.00    +0.000 A 
ATOM     24  C   UNL     1      46.109   3.824   7.699  0.00  0.00    +0.000 A 
ATOM     25  C   UNL     1      45.070   4.134   8.586  0.00  0.00    +0.000 A 
ATOM     26  C   UNL     1      44.523   3.111   9.351  0.00  0.00    +0.000 A 
ATOM     27  N   UNL     1      44.942   1.829   9.266  0.00  0.00    +0.000 NA
ATOM     28  C   UNL     1      45.936   1.550   8.393  0.00  0.00    +0.000 A 
BRANCH  23  30
ATOM     29  N   UNL     1      48.660   2.970   6.495  0.00  0.00    +0.000 N 
ATOM     30  C   UNL     1      47.650   2.074   6.713  0.00  0.00    +0.000 C 
ATOM     31  O   UNL     1      47.675   0.954   6.226  0.00  0.00    +0.000 OA
ATOM     32  H   UNL     1      49.459   2.627   5.975  0.00  0.00    +0.000 HD
ATOM     33  H   UNL     1      48.800   3.777   7.085  0.00  0.00    +0.000 HD
ENDBRANCH  23  30
ENDBRANCH  22  26
ENDBRANCH  21  22
ENDBRANCH  18  21
ENDBRANCH   1  18
TORSDOF 7
ENDMDL
MODEL 9
REMARK VINA RESULT:    -7.574      2.810      7.985
REMARK INTER + INTRA:         -11.982
REMARK INTER:                 -10.829
REMARK INTRA:                  -1.154
REMARK UNBOUND:                -1.309
REMARK  Name = 
REMARK  7 active torsions:
REMARK  status: ('A' for Active; 'I' for Inactive)
REMARK    1  A    between atoms: C_2  and  C_4
REMARK    2  A    between atoms: C_7  and  O_8
REMARK    3  A    between atoms: O_8  and  C_9
REMARK    4  A    between atoms: C_9  and  C_10
REMARK    5  A    between atoms: C_10  and  C_13
REMARK    6  A    between atoms: C_17  and  C_18
REMARK    7  A    between atoms: C_22  and  C_23
REMARK                            x       y       z     vdW  Elec       q    Type
REMARK                         _______ _______ _______ _____ _____    ______ ____
ROOT
ATOM      1  C   UNL     1      47.636   8.071  12.161  0.00  0.00    +0.000 A 
ATOM      2  C   UNL     1      46.901   9.263  12.165  0.00  0.00    +0.000 A 
ATOM      3  C   UNL     1      45.506   9.234  12.105  0.00  0.00    +0.000 A 
ATOM      4  C   UNL     1      44.829   8.016  12.017  0.00  0.00    +0.000 A 
ATOM      5  C   UNL     1      45.529   6.800  12.002  0.00  0.00    +0.000 A 
ATOM      6  C   UNL     1      46.936   6.853  12.106  0.00  0.00    +0.000 A 
ENDROOT
BRANCH   5   7
ATOM      7  C   UNL     1      44.819   5.517  11.824  0.00  0.00    +0.000 A 
ATOM      8  C   UNL     1      44.029   4.962  12.833  0.00  0.00    +0.000 A 
ATOM      9  C   UNL     1      43.447   3.715  12.645  0.00  0.00    +0.000 A 
ATOM     10  C   UNL     1      43.657   3.043  11.449  0.00  0.00    +0.000 A 
ATOM     11  C   UNL     1      44.441   3.656  10.483  0.00  0.00    +0.000 A 
ATOM     12  N   UNL     1      45.024   4.880  10.640  0.00  0.00    +0.000 NA
BRANCH  11  13
ATOM     13  C   UNL     1      44.683   2.945   9.186  0.00  0.00    +0.000 C 
ATOM     14  N   UNL     1      44.347   3.636   8.051  0.00  0.00    +0.000 N 
ATOM     15  O   UNL     1      45.155   1.820   9.123  0.00  0.00    +0.000 OA
ATOM     16  H   UNL     1      43.988   4.583   8.128  0.00  0.00    +0.000 HD
ATOM     17  H   UNL     1      44.513   3.216   7.149  0.00  0.00    +0.000 HD
ENDBRANCH  11  13
ENDBRANCH   5   7
BRANCH   1  18
ATOM     18  C   UNL     1      49.166   8.077  12.146  0.00  0.00    +0.000 C 
ATOM     19  F   UNL     1      49.660   9.351  12.082  0.00  0.00    +0.000 F 
ATOM     20  F   UNL     1      49.667   7.436  11.051  0.00  0.00    +0.000 F 
BRANCH  18  21
ATOM     21  C   UNL     1      49.714   7.404  13.417  0.00  0.00    +0.000 C 
BRANCH  21  22
ATOM     22  O   UNL     1      49.085   7.874  14.635  0.00  0.00    +0.000 OA
BRANCH  22  26
ATOM     23  C   UNL     1      47.976   4.708  17.050  0.00  0.00    +0.000 A 
ATOM     24  C   UNL     1      48.518   5.853  17.638  0.00  0.00    +0.000 A 
ATOM     25  C   UNL     1      48.902   6.927  16.823  0.00  0.00    +0.000 A 
ATOM     26  C   UNL     1      48.724   6.813  15.450  0.00  0.00    +0.000 A 
ATOM     27  N   UNL     1      48.211   5.708  14.867  0.00  0.00    +0.000 NA
ATOM     28  C   UNL     1      47.860   4.679  15.671  0.00  0.00    +0.000 A 
BRANCH  23  30
ATOM     29  N   UNL     1      48.264   3.203  18.926  0.00  0.00    +0.000 N 
ATOM     30  C   UNL     1      47.534   3.527  17.817  0.00  0.00    +0.000 C 
ATOM     31  O   UNL     1      46.536   2.896  17.502  0.00  0.00    +0.000 OA
ATOM     32  H   UNL     1      47.889   2.465  19.510  0.00  0.00    +0.000 HD
ATOM     33  H   UNL     1      48.911   3.851  19.353  0.00  0.00    +0.000 HD
ENDBRANCH  23  30
ENDBRANCH  22  26
ENDBRANCH  21  22
ENDBRANCH  18  21
ENDBRANCH   1  18
TORSDOF 7
ENDMDL
