MODEL 1
REMARK VINA RESULT:   -10.402      0.000      0.000
REMARK INTER + INTRA:         -14.428
REMARK INTER:                 -13.442
REMARK INTRA:                  -0.986
REMARK UNBOUND:                -0.986
REMARK  Name = 
REMARK  5 active torsions:
REMARK  status: ('A' for Active; 'I' for Inactive)
REMARK    1  A    between atoms: C_2  and  C_4
REMARK    2  A    between atoms: N_8  and  C_9
REMARK    3  A    between atoms: C_9  and  C_10
REMARK    4  A    between atoms: C_10  and  C_13
REMARK    5  A    between atoms: C_17  and  N_18
REMARK                            x       y       z     vdW  Elec       q    Type
REMARK                         _______ _______ _______ _____ _____    ______ ____
ROOT
ATOM      1  C   UNL     1      43.430   5.555  12.136  0.00  0.00    +0.000 C 
ATOM      2  F   UNL     1      43.051   6.735  11.561  0.00  0.00    +0.000 F 
ATOM      3  F   UNL     1      42.586   5.384  13.199  0.00  0.00    +0.000 F 
ENDROOT
BRANCH   1   4
ATOM      4  C   UNL     1      44.882   5.566  12.572  0.00  0.00    +0.000 A 
ATOM      5  C   UNL     1      45.630   6.751  12.487  0.00  0.00    +0.000 A 
ATOM      6  C   UNL     1      46.946   6.787  12.936  0.00  0.00    +0.000 A 
ATOM      7  C   UNL     1      47.514   5.649  13.502  0.00  0.00    +0.000 A 
ATOM      8  C   UNL     1      46.784   4.458  13.623  0.00  0.00    +0.000 A 
ATOM      9  C   UNL     1      45.477   4.417  13.122  0.00  0.00    +0.000 A 
BRANCH   8  10
ATOM     10  N   UNL     1      47.307   3.337  14.298  0.00  0.00    +0.000 N 
ATOM     11  C   UNL     1      47.739   3.268  15.577  0.00  0.00    +0.000 A 
ATOM     12  C   UNL     1      47.218   4.046  16.645  0.00  0.00    +0.000 A 
ATOM     13  C   UNL     1      47.943   3.681  17.748  0.00  0.00    +0.000 A 
ATOM     14  N   UNL     1      48.802   2.718  17.315  0.00  0.00    +0.000 N 
ATOM     15  N   UNL     1      48.676   2.425  16.010  0.00  0.00    +0.000 NA
ATOM     16  H   UNL     1      47.671   2.629  13.667  0.00  0.00    +0.000 HD
ATOM     17  H   UNL     1      49.499   2.216  17.856  0.00  0.00    +0.000 HD
ENDBRANCH   8  10
ENDBRANCH   1   4
BRANCH   1  18
ATOM     18  C   UNL     1      43.185   4.412  11.112  0.00  0.00    +0.000 C 
BRANCH  18  23
ATOM     19  C   UNL     1      46.484   2.517   7.696  0.00  0.00    +0.000 A 
ATOM     20  C   UNL     1      45.643   1.847   8.579  0.00  0.00    +0.000 A 
ATOM     21  C   UNL     1      44.705   2.577   9.310  0.00  0.00    +0.000 A 
ATOM     22  C   UNL     1      44.632   3.958   9.158  0.00  0.00    +0.000 A 
ATOM     23  N   UNL     1      43.665   4.736   9.763  0.00  0.00    +0.000 N 
ATOM     24  N   UNL     1      45.467   4.619   8.335  0.00  0.00    +0.000 NA
ATOM     25  C   UNL     1      46.376   3.895   7.628  0.00  0.00    +0.000 A 
ATOM     26  H   UNL     1      43.889   5.717   9.600  0.00  0.00    +0.000 HD
BRANCH  19  28
ATOM     27  N   UNL     1      48.560   2.536   6.440  0.00  0.00    +0.000 N 
ATOM     28  C   UNL     1      47.464   1.820   6.839  0.00  0.00    +0.000 C 
ATOM     29  O   UNL     1      47.325   0.643   6.533  0.00  0.00    +0.000 OA
ATOM     30  H   UNL     1      49.283   2.017   5.957  0.00  0.00    +0.000 HD
ATOM     31  H   UNL     1      48.832   3.402   6.886  0.00  0.00    +0.000 HD
ENDBRANCH  19  28
ENDBRANCH  18  23
ENDBRANCH   1  18
TORSDOF 5
ENDMDL
MODEL 2
REMARK VINA RESULT:    -9.146      2.545      3.735
REMARK INTER + INTRA:         -12.805
REMARK INTER:                 -11.804
REMARK INTRA:                  -1.001
REMARK UNBOUND:                -0.986
REMARK  Name = 
REMARK  5 active torsions:
REMARK  status: ('A' for Active; 'I' for Inactive)
REMARK    1  A    between atoms: C_2  and  C_4
REMARK    2  A    between atoms: N_8  and  C_9
REMARK    3  A    between atoms: C_9  and  C_10
REMARK    4  A    between atoms: C_10  and  C_13
REMARK    5  A    between atoms: C_17  and  N_18
REMARK                            x       y       z     vdW  Elec       q    Type
REMARK                         _______ _______ _______ _____ _____    ______ ____
ROOT
ATOM      1  C   UNL     1      43.441   5.604  12.132  0.00  0.00    +0.000 C 
ATOM      2  F   UNL     1      43.026   6.763  11.540  0.00  0.00    +0.000 F 
ATOM      3  F   UNL     1      42.611   5.429  13.205  0.00  0.00    +0.000 F 
ENDROOT
BRANCH   1   4
ATOM      4  C   UNL     1      44.896   5.665  12.557  0.00  0.00    +0.000 A 
ATOM      5  C   UNL     1      45.422   4.674  13.401  0.00  0.00    +0.000 A 
ATOM      6  C   UNL     1      46.767   4.688  13.751  0.00  0.00    +0.000 A 
ATOM      7  C   UNL     1      47.605   5.673  13.236  0.00  0.00    +0.000 A 
ATOM      8  C   UNL     1      47.115   6.661  12.371  0.00  0.00    +0.000 A 
ATOM      9  C   UNL     1      45.748   6.669  12.065  0.00  0.00    +0.000 A 
BRANCH   8  10
ATOM     10  N   UNL     1      47.973   7.593  11.752  0.00  0.00    +0.000 N 
ATOM     11  C   UNL     1      48.299   8.831  12.185  0.00  0.00    +0.000 A 
ATOM     12  C   UNL     1      48.375   9.212  13.551  0.00  0.00    +0.000 A 
ATOM     13  C   UNL     1      48.713  10.539  13.540  0.00  0.00    +0.000 A 
ATOM     14  N   UNL     1      48.852  10.868  12.227  0.00  0.00    +0.000 N 
ATOM     15  N   UNL     1      48.639   9.842  11.386  0.00  0.00    +0.000 NA
ATOM     16  H   UNL     1      48.091   7.424  10.758  0.00  0.00    +0.000 HD
ATOM     17  H   UNL     1      49.093  11.771  11.832  0.00  0.00    +0.000 HD
ENDBRANCH   8  10
ENDBRANCH   1   4
BRANCH   1  18
ATOM     18  C   UNL     1      43.223   4.436  11.132  0.00  0.00    +0.000 C 
BRANCH  18  23
ATOM     19  C   UNL     1      46.507   2.499   7.726  0.00  0.00    +0.000 A 
ATOM     20  C   UNL     1      45.671   1.840   8.621  0.00  0.00    +0.000 A 
ATOM     21  C   UNL     1      44.735   2.579   9.346  0.00  0.00    +0.000 A 
ATOM     22  C   UNL     1      44.661   3.958   9.177  0.00  0.00    +0.000 A 
ATOM     23  N   UNL     1      43.696   4.743   9.777  0.00  0.00    +0.000 N 
ATOM     24  N   UNL     1      45.492   4.609   8.343  0.00  0.00    +0.000 NA
ATOM     25  C   UNL     1      46.399   3.877   7.641  0.00  0.00    +0.000 A 
ATOM     26  H   UNL     1      43.920   5.722   9.600  0.00  0.00    +0.000 HD
BRANCH  19  28
ATOM     27  N   UNL     1      48.536   2.525   6.395  0.00  0.00    +0.000 N 
ATOM     28  C   UNL     1      47.484   1.792   6.873  0.00  0.00    +0.000 C 
ATOM     29  O   UNL     1      47.382   0.595   6.639  0.00  0.00    +0.000 OA
ATOM     30  H   UNL     1      49.262   2.007   5.916  0.00  0.00    +0.000 HD
ATOM     31  H   UNL     1      48.789   3.424   6.782  0.00  0.00    +0.000 HD
ENDBRANCH  19  28
ENDBRANCH  18  23
ENDBRANCH   1  18
TORSDOF 5
ENDMDL
MODEL 3
REMARK VINA RESULT:    -8.733      2.891      3.229
REMARK INTER + INTRA:         -12.272
REMARK INTER:                 -11.299
REMARK INTRA:                  -0.972
REMARK UNBOUND:                -0.986
REMARK  Name = 
REMARK  5 active torsions:
REMARK  status: ('A' for Active; 'I' for Inactive)
REMARK    1  A    between atoms: C_2  and  C_4
REMARK    2  A    between atoms: N_8  and  C_9
REMARK    3  A    between atoms: C_9  and  C_10
REMARK    4  A    between atoms: C_10  and  C_13
REMARK    5  A    between atoms: C_17  and  N_18
REMARK                            x       y       z     vdW  Elec       q    Type
REMARK                         _______ _______ _______ _____ _____    ______ ____
ROOT
ATOM      1  C   UNL     1      44.580   4.813  12.308  0.00  0.00    +0.000 C 
ATOM      2  F   UNL     1      43.967   4.654  13.518  0.00  0.00    +0.000 F 
ATOM      3  F   UNL     1      45.445   3.759  12.200  0.00  0.00    +0.000 F 
ENDROOT
BRANCH   1   4
ATOM      4  C   UNL     1      45.302   6.141  12.198  0.00  0.00    +0.000 A 
ATOM      5  C   UNL     1      44.609   7.339  12.438  0.00  0.00    +0.000 A 
ATOM      6  C   UNL     1      45.275   8.559  12.396  0.00  0.00    +0.000 A 
ATOM      7  C   UNL     1      46.643   8.591  12.145  0.00  0.00    +0.000 A 
ATOM      8  C   UNL     1      47.368   7.411  11.926  0.00  0.00    +0.000 A 
ATOM      9  C   UNL     1      46.680   6.191  11.921  0.00  0.00    +0.000 A 
BRANCH   8  10
ATOM     10  N   UNL     1      48.771   7.420  11.787  0.00  0.00    +0.000 N 
ATOM     11  C   UNL     1      49.696   7.625  12.750  0.00  0.00    +0.000 A 
ATOM     12  C   UNL     1      49.531   7.264  14.114  0.00  0.00    +0.000 A 
ATOM     13  C   UNL     1      50.683   7.663  14.738  0.00  0.00    +0.000 A 
ATOM     14  N   UNL     1      51.464   8.190  13.755  0.00  0.00    +0.000 N 
ATOM     15  N   UNL     1      50.903   8.148  12.535  0.00  0.00    +0.000 NA
ATOM     16  H   UNL     1      49.073   7.600  10.834  0.00  0.00    +0.000 HD
ATOM     17  H   UNL     1      52.392   8.592  13.845  0.00  0.00    +0.000 HD
ENDBRANCH   8  10
ENDBRANCH   1   4
BRANCH   1  18
ATOM     18  C   UNL     1      43.503   4.695  11.194  0.00  0.00    +0.000 C 
BRANCH  18  23
ATOM     19  C   UNL     1      46.538   2.556   7.680  0.00  0.00    +0.000 A 
ATOM     20  C   UNL     1      45.620   1.958   8.537  0.00  0.00    +0.000 A 
ATOM     21  C   UNL     1      44.781   2.766   9.304  0.00  0.00    +0.000 A 
ATOM     22  C   UNL     1      44.881   4.151   9.214  0.00  0.00    +0.000 A 
ATOM     23  N   UNL     1      44.019   5.016   9.858  0.00  0.00    +0.000 N 
ATOM     24  N   UNL     1      45.793   4.738   8.417  0.00  0.00    +0.000 NA
ATOM     25  C   UNL     1      46.604   3.939   7.673  0.00  0.00    +0.000 A 
ATOM     26  H   UNL     1      44.365   5.968   9.738  0.00  0.00    +0.000 HD
BRANCH  19  28
ATOM     27  N   UNL     1      48.455   2.458   6.195  0.00  0.00    +0.000 N 
ATOM     28  C   UNL     1      47.424   1.781   6.787  0.00  0.00    +0.000 C 
ATOM     29  O   UNL     1      47.269   0.578   6.617  0.00  0.00    +0.000 OA
ATOM     30  H   UNL     1      49.126   1.896   5.685  0.00  0.00    +0.000 HD
ATOM     31  H   UNL     1      48.763   3.365   6.519  0.00  0.00    +0.000 HD
ENDBRANCH  19  28
ENDBRANCH  18  23
ENDBRANCH   1  18
TORSDOF 5
ENDMDL
MODEL 4
REMARK VINA RESULT:    -8.487      2.179      2.683
REMARK INTER + INTRA:         -11.954
REMARK INTER:                 -11.255
REMARK INTRA:                  -0.698
REMARK UNBOUND:                -0.986
REMARK  Name = 
REMARK  5 active torsions:
REMARK  status: ('A' for Active; 'I' for Inactive)
REMARK    1  A    between atoms: C_2  and  C_4
REMARK    2  A    between atoms: N_8  and  C_9
REMARK    3  A    between atoms: C_9  and  C_10
REMARK    4  A    between atoms: C_10  and  C_13
REMARK    5  A    between atoms: C_17  and  N_18
REMARK                            x       y       z     vdW  Elec       q    Type
REMARK                         _______ _______ _______ _____ _____    ______ ____
ROOT
ATOM      1  C   UNL     1      43.331   4.660  12.491  0.00  0.00    +0.000 C 
ATOM      2  F   UNL     1      42.212   5.420  12.681  0.00  0.00    +0.000 F 
ATOM      3  F   UNL     1      43.352   3.781  13.538  0.00  0.00    +0.000 F 
ENDROOT
BRANCH   1   4
ATOM      4  C   UNL     1      44.594   5.497  12.438  0.00  0.00    +0.000 A 
ATOM      5  C   UNL     1      44.704   6.544  11.509  0.00  0.00    +0.000 A 
ATOM      6  C   UNL     1      45.834   7.353  11.490  0.00  0.00    +0.000 A 
ATOM      7  C   UNL     1      46.849   7.144  12.419  0.00  0.00    +0.000 A 
ATOM      8  C   UNL     1      46.758   6.123  13.375  0.00  0.00    +0.000 A 
ATOM      9  C   UNL     1      45.639   5.281  13.354  0.00  0.00    +0.000 A 
BRANCH   8  10
ATOM     10  N   UNL     1      47.723   5.975  14.392  0.00  0.00    +0.000 N 
ATOM     11  C   UNL     1      48.585   6.906  14.856  0.00  0.00    +0.000 A 
ATOM     12  C   UNL     1      48.319   8.301  14.894  0.00  0.00    +0.000 A 
ATOM     13  C   UNL     1      49.450   8.873  15.411  0.00  0.00    +0.000 A 
ATOM     14  N   UNL     1      50.291   7.837  15.680  0.00  0.00    +0.000 N 
ATOM     15  N   UNL     1      49.778   6.631  15.384  0.00  0.00    +0.000 NA
ATOM     16  H   UNL     1      47.986   5.007  14.551  0.00  0.00    +0.000 HD
ATOM     17  H   UNL     1      51.228   7.879  16.068  0.00  0.00    +0.000 HD
ENDBRANCH   8  10
ENDBRANCH   1   4
BRANCH   1  18
ATOM     18  C   UNL     1      43.161   3.861  11.169  0.00  0.00    +0.000 C 
BRANCH  18  23
ATOM     19  C   UNL     1      46.451   2.765   7.412  0.00  0.00    +0.000 A 
ATOM     20  C   UNL     1      45.952   3.998   7.818  0.00  0.00    +0.000 A 
ATOM     21  C   UNL     1      45.185   4.071   8.981  0.00  0.00    +0.000 A 
ATOM     22  C   UNL     1      44.918   2.915   9.708  0.00  0.00    +0.000 A 
ATOM     23  N   UNL     1      44.259   2.919  10.921  0.00  0.00    +0.000 N 
ATOM     24  N   UNL     1      45.365   1.712   9.303  0.00  0.00    +0.000 NA
ATOM     25  C   UNL     1      46.113   1.655   8.167  0.00  0.00    +0.000 A 
ATOM     26  H   UNL     1      44.080   1.953  11.196  0.00  0.00    +0.000 HD
BRANCH  19  28
ATOM     27  N   UNL     1      48.638   2.308   6.463  0.00  0.00    +0.000 N 
ATOM     28  C   UNL     1      47.322   2.602   6.230  0.00  0.00    +0.000 C 
ATOM     29  O   UNL     1      46.878   2.685   5.092  0.00  0.00    +0.000 OA
ATOM     30  H   UNL     1      49.196   2.078   5.650  0.00  0.00    +0.000 HD
ATOM     31  H   UNL     1      48.967   1.975   7.359  0.00  0.00    +0.000 HD
ENDBRANCH  19  28
ENDBRANCH  18  23
ENDBRANCH   1  18
TORSDOF 5
ENDMDL
MODEL 5
REMARK VINA RESULT:    -8.222      2.954      7.921
REMARK INTER + INTRA:         -11.612
REMARK INTER:                 -10.808
REMARK INTRA:                  -0.804
REMARK UNBOUND:                -0.986
REMARK  Name = 
REMARK  5 active torsions:
REMARK  status: ('A' for Active; 'I' for Inactive)
REMARK    1  A    between atoms: C_2  and  C_4
REMARK    2  A    between atoms: N_8  and  C_9
REMARK    3  A    between atoms: C_9  and  C_10
REMARK    4  A    between atoms: C_10  and  C_13
REMARK    5  A    between atoms: C_17  and  N_18
REMARK                            x       y       z     vdW  Elec       q    Type
REMARK                         _______ _______ _______ _____ _____    ______ ____
ROOT
ATOM      1  C   UNL     1      45.742   6.377  11.541  0.00  0.00    +0.000 C 
ATOM      2  F   UNL     1      44.906   7.426  11.287  0.00  0.00    +0.000 F 
ATOM      3  F   UNL     1      46.971   6.778  11.095  0.00  0.00    +0.000 F 
ENDROOT
BRANCH   1   4
ATOM      4  C   UNL     1      45.290   5.101  10.857  0.00  0.00    +0.000 A 
ATOM      5  C   UNL     1      44.500   4.173  11.555  0.00  0.00    +0.000 A 
ATOM      6  C   UNL     1      44.033   3.027  10.920  0.00  0.00    +0.000 A 
ATOM      7  C   UNL     1      44.324   2.815   9.576  0.00  0.00    +0.000 A 
ATOM      8  C   UNL     1      45.089   3.735   8.846  0.00  0.00    +0.000 A 
ATOM      9  C   UNL     1      45.598   4.861   9.506  0.00  0.00    +0.000 A 
BRANCH   8  10
ATOM     10  N   UNL     1      45.293   3.590   7.458  0.00  0.00    +0.000 N 
ATOM     11  C   UNL     1      46.369   3.065   6.831  0.00  0.00    +0.000 A 
ATOM     12  C   UNL     1      47.189   2.036   7.366  0.00  0.00    +0.000 A 
ATOM     13  C   UNL     1      48.162   1.822   6.426  0.00  0.00    +0.000 A 
ATOM     14  N   UNL     1      47.872   2.670   5.402  0.00  0.00    +0.000 N 
ATOM     15  N   UNL     1      46.770   3.411   5.608  0.00  0.00    +0.000 NA
ATOM     16  H   UNL     1      44.719   4.219   6.905  0.00  0.00    +0.000 HD
ATOM     17  H   UNL     1      48.380   2.794   4.532  0.00  0.00    +0.000 HD
ENDBRANCH   8  10
ENDBRANCH   1   4
BRANCH   1  18
ATOM     18  C   UNL     1      45.810   6.166  13.079  0.00  0.00    +0.000 C 
BRANCH  18  23
ATOM     19  C   UNL     1      48.512   4.162  16.929  0.00  0.00    +0.000 A 
ATOM     20  C   UNL     1      47.529   3.575  16.140  0.00  0.00    +0.000 A 
ATOM     21  C   UNL     1      47.040   4.270  15.033  0.00  0.00    +0.000 A 
ATOM     22  C   UNL     1      47.529   5.541  14.743  0.00  0.00    +0.000 A 
ATOM     23  N   UNL     1      47.176   6.247  13.611  0.00  0.00    +0.000 N 
ATOM     24  N   UNL     1      48.453   6.132  15.523  0.00  0.00    +0.000 NA
ATOM     25  C   UNL     1      48.921   5.443  16.598  0.00  0.00    +0.000 A 
ATOM     26  H   UNL     1      47.565   7.187  13.681  0.00  0.00    +0.000 HD
BRANCH  19  28
ATOM     27  N   UNL     1      48.309   3.160  19.130  0.00  0.00    +0.000 N 
ATOM     28  C   UNL     1      49.130   3.476  18.082  0.00  0.00    +0.000 C 
ATOM     29  O   UNL     1      50.314   3.166  18.084  0.00  0.00    +0.000 OA
ATOM     30  H   UNL     1      48.713   2.585  19.858  0.00  0.00    +0.000 HD
ATOM     31  H   UNL     1      47.301   3.160  19.046  0.00  0.00    +0.000 HD
ENDBRANCH  19  28
ENDBRANCH  18  23
ENDBRANCH   1  18
TORSDOF 5
ENDMDL
MODEL 6
REMARK VINA RESULT:    -8.183      3.194      8.352
REMARK INTER + INTRA:         -11.561
REMARK INTER:                 -10.921
REMARK INTRA:                  -0.641
REMARK UNBOUND:                -0.986
REMARK  Name = 
REMARK  5 active torsions:
REMARK  status: ('A' for Active; 'I' for Inactive)
REMARK    1  A    between atoms: C_2  and  C_4
REMARK    2  A    between atoms: N_8  and  C_9
REMARK    3  A    between atoms: C_9  and  C_10
REMARK    4  A    between atoms: C_10  and  C_13
REMARK    5  A    between atoms: C_17  and  N_18
REMARK                            x       y       z     vdW  Elec       q    Type
REMARK                         _______ _______ _______ _____ _____    ______ ____
ROOT
ATOM      1  C   UNL     1      45.754   5.842  12.441  0.00  0.00    +0.000 C 
ATOM      2  F   UNL     1      44.813   6.398  13.260  0.00  0.00    +0.000 F 
ATOM      3  F   UNL     1      46.254   6.882  11.707  0.00  0.00    +0.000 F 
ENDROOT
BRANCH   1   4
ATOM      4  C   UNL     1      45.175   4.759  11.551  0.00  0.00    +0.000 A 
ATOM      5  C   UNL     1      44.263   3.831  12.079  0.00  0.00    +0.000 A 
ATOM      6  C   UNL     1      43.682   2.869  11.260  0.00  0.00    +0.000 A 
ATOM      7  C   UNL     1      43.985   2.845   9.901  0.00  0.00    +0.000 A 
ATOM      8  C   UNL     1      44.873   3.774   9.340  0.00  0.00    +0.000 A 
ATOM      9  C   UNL     1      45.491   4.707  10.182  0.00  0.00    +0.000 A 
BRANCH   8  10
ATOM     10  N   UNL     1      45.098   3.833   7.950  0.00  0.00    +0.000 N 
ATOM     11  C   UNL     1      46.112   3.276   7.252  0.00  0.00    +0.000 A 
ATOM     12  C   UNL     1      46.769   2.069   7.612  0.00  0.00    +0.000 A 
ATOM     13  C   UNL     1      47.733   1.882   6.657  0.00  0.00    +0.000 A 
ATOM     14  N   UNL     1      47.591   2.919   5.788  0.00  0.00    +0.000 N 
ATOM     15  N   UNL     1      46.593   3.761   6.107  0.00  0.00    +0.000 NA
ATOM     16  H   UNL     1      44.631   4.618   7.506  0.00  0.00    +0.000 HD
ATOM     17  H   UNL     1      48.137   3.114   4.955  0.00  0.00    +0.000 HD
ENDBRANCH   8  10
ENDBRANCH   1   4
BRANCH   1  18
ATOM     18  C   UNL     1      46.891   5.259  13.325  0.00  0.00    +0.000 C 
BRANCH  18  23
ATOM     19  C   UNL     1      48.581   4.428  18.078  0.00  0.00    +0.000 A 
ATOM     20  C   UNL     1      48.798   5.517  17.241  0.00  0.00    +0.000 A 
ATOM     21  C   UNL     1      48.097   5.599  16.037  0.00  0.00    +0.000 A 
ATOM     22  C   UNL     1      47.206   4.590  15.685  0.00  0.00    +0.000 A 
ATOM     23  N   UNL     1      46.399   4.649  14.566  0.00  0.00    +0.000 N 
ATOM     24  N   UNL     1      47.018   3.514  16.471  0.00  0.00    +0.000 NA
ATOM     25  C   UNL     1      47.707   3.447  17.642  0.00  0.00    +0.000 A 
ATOM     26  H   UNL     1      45.928   3.751  14.458  0.00  0.00    +0.000 HD
BRANCH  19  28
ATOM     27  N   UNL     1      48.518   3.656  20.378  0.00  0.00    +0.000 N 
ATOM     28  C   UNL     1      49.232   4.288  19.396  0.00  0.00    +0.000 C 
ATOM     29  O   UNL     1      50.375   4.682  19.591  0.00  0.00    +0.000 OA
ATOM     30  H   UNL     1      49.016   3.457  21.237  0.00  0.00    +0.000 HD
ATOM     31  H   UNL     1      47.701   3.095  20.176  0.00  0.00    +0.000 HD
ENDBRANCH  19  28
ENDBRANCH  18  23
ENDBRANCH   1  18
TORSDOF 5
ENDMDL
MODEL 7
REMARK VINA RESULT:    -7.740      3.811      6.962
REMARK INTER + INTRA:         -10.989
REMARK INTER:                 -10.250
REMARK INTRA:                  -0.739
REMARK UNBOUND:                -0.986
REMARK  Name = 
REMARK  5 active torsions:
REMARK  status: ('A' for Active; 'I' for Inactive)
REMARK    1  A    between atoms: C_2  and  C_4
REMARK    2  A    between atoms: N_8  and  C_9
REMARK    3  A    between atoms: C_9  and  C_10
REMARK    4  A    between atoms: C_10  and  C_13
REMARK    5  A    between atoms: C_17  and  N_18
REMARK                            x       y       z     vdW  Elec       q    Type
REMARK                         _______ _______ _______ _____ _____    ______ ____
ROOT
ATOM      1  C   UNL     1      43.181   5.700  11.666  0.00  0.00    +0.000 C 
ATOM      2  F   UNL     1      41.901   5.554  12.117  0.00  0.00    +0.000 F 
ATOM      3  F   UNL     1      43.155   6.802  10.855  0.00  0.00    +0.000 F 
ENDROOT
BRANCH   1   4
ATOM      4  C   UNL     1      43.674   4.474  10.923  0.00  0.00    +0.000 A 
ATOM      5  C   UNL     1      43.499   3.198  11.483  0.00  0.00    +0.000 A 
ATOM      6  C   UNL     1      43.896   2.062  10.786  0.00  0.00    +0.000 A 
ATOM      7  C   UNL     1      44.441   2.189   9.512  0.00  0.00    +0.000 A 
ATOM      8  C   UNL     1      44.606   3.447   8.916  0.00  0.00    +0.000 A 
ATOM      9  C   UNL     1      44.250   4.588   9.646  0.00  0.00    +0.000 A 
BRANCH   8  10
ATOM     10  N   UNL     1      45.048   3.581   7.584  0.00  0.00    +0.000 N 
ATOM     11  C   UNL     1      46.210   3.143   7.051  0.00  0.00    +0.000 A 
ATOM     12  C   UNL     1      46.909   1.986   7.485  0.00  0.00    +0.000 A 
ATOM     13  C   UNL     1      48.029   1.921   6.699  0.00  0.00    +0.000 A 
ATOM     14  N   UNL     1      47.934   2.976   5.845  0.00  0.00    +0.000 N 
ATOM     15  N   UNL     1      46.824   3.713   6.014  0.00  0.00    +0.000 NA
ATOM     16  H   UNL     1      44.589   4.339   7.088  0.00  0.00    +0.000 HD
ATOM     17  H   UNL     1      48.588   3.251   5.119  0.00  0.00    +0.000 HD
ENDBRANCH   8  10
ENDBRANCH   1   4
BRANCH   1  18
ATOM     18  C   UNL     1      44.100   5.995  12.884  0.00  0.00    +0.000 C 
BRANCH  18  23
ATOM     19  C   UNL     1      48.666   8.172  12.144  0.00  0.00    +0.000 A 
ATOM     20  C   UNL     1      48.108   7.058  11.527  0.00  0.00    +0.000 A 
ATOM     21  C   UNL     1      46.772   6.741  11.776  0.00  0.00    +0.000 A 
ATOM     22  C   UNL     1      46.023   7.530  12.644  0.00  0.00    +0.000 A 
ATOM     23  N   UNL     1      44.672   7.346  12.859  0.00  0.00    +0.000 N 
ATOM     24  N   UNL     1      46.565   8.588  13.275  0.00  0.00    +0.000 NA
ATOM     25  C   UNL     1      47.869   8.887  13.022  0.00  0.00    +0.000 A 
ATOM     26  H   UNL     1      44.378   7.962  13.617  0.00  0.00    +0.000 HD
BRANCH  19  28
ATOM     27  N   UNL     1      51.056   7.848  12.415  0.00  0.00    +0.000 N 
ATOM     28  C   UNL     1      50.051   8.618  11.893  0.00  0.00    +0.000 C 
ATOM     29  O   UNL     1      50.294   9.606  11.212  0.00  0.00    +0.000 OA
ATOM     30  H   UNL     1      51.998   8.091  12.136  0.00  0.00    +0.000 HD
ATOM     31  H   UNL     1      50.899   6.904  12.742  0.00  0.00    +0.000 HD
ENDBRANCH  19  28
ENDBRANCH  18  23
ENDBRANCH   1  18
TORSDOF 5
ENDMDL
MODEL 8
REMARK VINA RESULT:    -7.461      3.548      8.227
REMARK INTER + INTRA:         -10.627
REMARK INTER:                 -10.016
REMARK INTRA:                  -0.611
REMARK UNBOUND:                -0.986
REMARK  Name = 
REMARK  5 active torsions:
REMARK  status: ('A' for Active; 'I' for Inactive)
REMARK    1  A    between atoms: C_2  and  C_4
REMARK    2  A    between atoms: N_8  and  C_9
REMARK    3  A    between atoms: C_9  and  C_10
REMARK    4  A    between atoms: C_10  and  C_13
REMARK    5  A    between atoms: C_17  and  N_18
REMARK                            x       y       z     vdW  Elec       q    Type
REMARK                         _______ _______ _______ _____ _____    ______ ____
ROOT
ATOM      1  C   UNL     1      46.804   4.433  13.534  0.00  0.00    +0.000 C 
ATOM      2  F   UNL     1      47.808   5.276  13.153  0.00  0.00    +0.000 F 
ATOM      3  F   UNL     1      47.331   3.175  13.434  0.00  0.00    +0.000 F 
ENDROOT
BRANCH   1   4
ATOM      4  C   UNL     1      45.564   4.589  12.675  0.00  0.00    +0.000 A 
ATOM      5  C   UNL     1      44.361   5.024  13.252  0.00  0.00    +0.000 A 
ATOM      6  C   UNL     1      43.233   5.224  12.464  0.00  0.00    +0.000 A 
ATOM      7  C   UNL     1      43.306   5.021  11.089  0.00  0.00    +0.000 A 
ATOM      8  C   UNL     1      44.500   4.611  10.480  0.00  0.00    +0.000 A 
ATOM      9  C   UNL     1      45.617   4.363  11.288  0.00  0.00    +0.000 A 
BRANCH   8  10
ATOM     10  N   UNL     1      44.619   4.515   9.078  0.00  0.00    +0.000 N 
ATOM     11  C   UNL     1      45.336   3.616   8.369  0.00  0.00    +0.000 A 
ATOM     12  C   UNL     1      45.592   2.282   8.785  0.00  0.00    +0.000 A 
ATOM     13  C   UNL     1      46.361   1.733   7.795  0.00  0.00    +0.000 A 
ATOM     14  N   UNL     1      46.495   2.709   6.856  0.00  0.00    +0.000 N 
ATOM     15  N   UNL     1      45.855   3.849   7.164  0.00  0.00    +0.000 NA
ATOM     16  H   UNL     1      44.399   5.384   8.601  0.00  0.00    +0.000 HD
ATOM     17  H   UNL     1      47.006   2.665   5.980  0.00  0.00    +0.000 HD
ENDBRANCH   8  10
ENDBRANCH   1   4
BRANCH   1  18
ATOM     18  C   UNL     1      46.464   4.718  15.023  0.00  0.00    +0.000 C 
BRANCH  18  23
ATOM     19  C   UNL     1      50.653   3.600  17.732  0.00  0.00    +0.000 A 
ATOM     20  C   UNL     1      50.072   4.837  17.473  0.00  0.00    +0.000 A 
ATOM     21  C   UNL     1      48.830   4.885  16.840  0.00  0.00    +0.000 A 
ATOM     22  C   UNL     1      48.198   3.703  16.464  0.00  0.00    +0.000 A 
ATOM     23  N   UNL     1      46.925   3.661  15.931  0.00  0.00    +0.000 N 
ATOM     24  N   UNL     1      48.770   2.503  16.677  0.00  0.00    +0.000 NA
ATOM     25  C   UNL     1      49.982   2.471  17.296  0.00  0.00    +0.000 A 
ATOM     26  H   UNL     1      46.732   2.706  15.629  0.00  0.00    +0.000 HD
BRANCH  19  28
ATOM     27  N   UNL     1      52.463   2.192  18.527  0.00  0.00    +0.000 N 
ATOM     28  C   UNL     1      51.935   3.452  18.451  0.00  0.00    +0.000 C 
ATOM     29  O   UNL     1      52.522   4.418  18.921  0.00  0.00    +0.000 OA
ATOM     30  H   UNL     1      53.396   2.119  18.912  0.00  0.00    +0.000 HD
ATOM     31  H   UNL     1      52.148   1.437  17.931  0.00  0.00    +0.000 HD
ENDBRANCH  19  28
ENDBRANCH  18  23
ENDBRANCH   1  18
TORSDOF 5
ENDMDL
