MODEL 1
REMARK VINA RESULT:    -9.211      0.000      0.000
REMARK INTER + INTRA:         -13.189
REMARK INTER:                 -11.903
REMARK INTRA:                  -1.286
REMARK UNBOUND:                -1.286
REMARK  Name = 
REMARK  5 active torsions:
REMARK  status: ('A' for Active; 'I' for Inactive)
REMARK    1  A    between atoms: C_2  and  C_4
REMARK    2  A    between atoms: N_8  and  C_9
REMARK    3  A    between atoms: C_9  and  C_10
REMARK    4  A    between atoms: C_14  and  C_15
REMARK    5  A    between atoms: C_19  and  C_20
REMARK                            x       y       z     vdW  Elec       q    Type
REMARK                         _______ _______ _______ _____ _____    ______ ____
ROOT
ATOM      1  C   UNL     1      43.838   4.942  11.400  0.00  0.00    +0.000 C 
ATOM      2  C   UNL     1      42.471   5.184  12.043  0.00  0.00    +0.000 C 
ATOM      3  C   UNL     1      42.988   6.148  11.033  0.00  0.00    +0.000 C 
ENDROOT
BRANCH   1   8
ATOM      4  C   UNL     1      46.566   2.781   7.516  0.00  0.00    +0.000 A 
ATOM      5  C   UNL     1      46.245   4.119   7.721  0.00  0.00    +0.000 A 
ATOM      6  C   UNL     1      45.385   4.465   8.765  0.00  0.00    +0.000 A 
ATOM      7  C   UNL     1      44.854   3.473   9.581  0.00  0.00    +0.000 A 
ATOM      8  N   UNL     1      43.921   3.722  10.589  0.00  0.00    +0.000 N 
ATOM      9  N   UNL     1      45.151   2.169   9.385  0.00  0.00    +0.000 NA
ATOM     10  C   UNL     1      45.988   1.846   8.364  0.00  0.00    +0.000 A 
ATOM     11  H   UNL     1      43.762   2.836  11.062  0.00  0.00    +0.000 HD
BRANCH   4  13
ATOM     12  N   UNL     1      47.342   2.982   5.229  0.00  0.00    +0.000 N 
ATOM     13  C   UNL     1      47.442   2.318   6.426  0.00  0.00    +0.000 C 
ATOM     14  O   UNL     1      48.248   1.411   6.578  0.00  0.00    +0.000 OA
ATOM     15  H   UNL     1      48.004   2.713   4.508  0.00  0.00    +0.000 HD
ATOM     16  H   UNL     1      46.884   3.875   5.130  0.00  0.00    +0.000 HD
ENDBRANCH   4  13
ENDBRANCH   1   8
BRANCH   1  17
ATOM     17  C   UNL     1      45.074   5.234  12.250  0.00  0.00    +0.000 A 
ATOM     18  C   UNL     1      45.488   4.354  13.261  0.00  0.00    +0.000 A 
ATOM     19  C   UNL     1      46.702   4.535  13.920  0.00  0.00    +0.000 A 
ATOM     20  C   UNL     1      47.531   5.604  13.576  0.00  0.00    +0.000 A 
ATOM     21  C   UNL     1      47.152   6.530  12.593  0.00  0.00    +0.000 A 
ATOM     22  C   UNL     1      45.902   6.342  11.977  0.00  0.00    +0.000 A 
BRANCH  21  23
ATOM     23  C   UNL     1      48.053   7.617  12.165  0.00  0.00    +0.000 A 
ATOM     24  C   UNL     1      47.648   8.954  12.177  0.00  0.00    +0.000 A 
ATOM     25  N   UNL     1      48.420  10.007  11.816  0.00  0.00    +0.000 NA
ATOM     26  C   UNL     1      49.682   9.731  11.426  0.00  0.00    +0.000 A 
ATOM     27  C   UNL     1      50.210   8.450  11.382  0.00  0.00    +0.000 A 
ATOM     28  C   UNL     1      49.376   7.387  11.760  0.00  0.00    +0.000 A 
BRANCH  27  29
ATOM     29  C   UNL     1      51.624   8.221  10.950  0.00  0.00    +0.000 C 
ATOM     30  F   UNL     1      52.127   9.219  10.172  0.00  0.00    +0.000 F 
ATOM     31  F   UNL     1      52.478   8.105  12.005  0.00  0.00    +0.000 F 
ATOM     32  F   UNL     1      51.768   7.077  10.226  0.00  0.00    +0.000 F 
ENDBRANCH  27  29
ENDBRANCH  21  23
ENDBRANCH   1  17
TORSDOF 5
ENDMDL
MODEL 2
REMARK VINA RESULT:    -9.160      3.577      4.633
REMARK INTER + INTRA:         -13.123
REMARK INTER:                 -12.557
REMARK INTRA:                  -0.566
REMARK UNBOUND:                -1.286
REMARK  Name = 
REMARK  5 active torsions:
REMARK  status: ('A' for Active; 'I' for Inactive)
REMARK    1  A    between atoms: C_2  and  C_4
REMARK    2  A    between atoms: N_8  and  C_9
REMARK    3  A    between atoms: C_9  and  C_10
REMARK    4  A    between atoms: C_14  and  C_15
REMARK    5  A    between atoms: C_19  and  C_20
REMARK                            x       y       z     vdW  Elec       q    Type
REMARK                         _______ _______ _______ _____ _____    ______ ____
ROOT
ATOM      1  C   UNL     1      43.915   4.803  11.528  0.00  0.00    +0.000 C 
ATOM      2  C   UNL     1      42.863   4.764  12.638  0.00  0.00    +0.000 C 
ATOM      3  C   UNL     1      42.705   5.723  11.510  0.00  0.00    +0.000 C 
ENDROOT
BRANCH   1   8
ATOM      4  C   UNL     1      46.461   2.719   7.481  0.00  0.00    +0.000 A 
ATOM      5  C   UNL     1      46.066   4.037   7.681  0.00  0.00    +0.000 A 
ATOM      6  C   UNL     1      45.272   4.355   8.784  0.00  0.00    +0.000 A 
ATOM      7  C   UNL     1      44.880   3.354   9.665  0.00  0.00    +0.000 A 
ATOM      8  N   UNL     1      44.017   3.568  10.741  0.00  0.00    +0.000 N 
ATOM      9  N   UNL     1      45.250   2.068   9.476  0.00  0.00    +0.000 NA
ATOM     10  C   UNL     1      46.021   1.772   8.396  0.00  0.00    +0.000 A 
ATOM     11  H   UNL     1      43.960   2.688  11.247  0.00  0.00    +0.000 HD
BRANCH   4  13
ATOM     12  N   UNL     1      47.142   3.005   5.173  0.00  0.00    +0.000 N 
ATOM     13  C   UNL     1      47.276   2.285   6.333  0.00  0.00    +0.000 C 
ATOM     14  O   UNL     1      48.062   1.351   6.407  0.00  0.00    +0.000 OA
ATOM     15  H   UNL     1      47.764   2.753   4.412  0.00  0.00    +0.000 HD
ATOM     16  H   UNL     1      46.705   3.914   5.135  0.00  0.00    +0.000 HD
ENDBRANCH   4  13
ENDBRANCH   1   8
BRANCH   1  17
ATOM     17  C   UNL     1      45.252   5.470  11.852  0.00  0.00    +0.000 A 
ATOM     18  C   UNL     1      45.756   6.514  11.061  0.00  0.00    +0.000 A 
ATOM     19  C   UNL     1      46.886   7.230  11.451  0.00  0.00    +0.000 A 
ATOM     20  C   UNL     1      47.535   6.917  12.646  0.00  0.00    +0.000 A 
ATOM     21  C   UNL     1      47.089   5.863  13.459  0.00  0.00    +0.000 A 
ATOM     22  C   UNL     1      45.972   5.134  13.017  0.00  0.00    +0.000 A 
BRANCH  21  23
ATOM     23  C   UNL     1      47.718   5.573  14.762  0.00  0.00    +0.000 A 
ATOM     24  C   UNL     1      48.513   6.514  15.420  0.00  0.00    +0.000 A 
ATOM     25  N   UNL     1      49.111   6.329  16.622  0.00  0.00    +0.000 NA
ATOM     26  C   UNL     1      48.905   5.140  17.226  0.00  0.00    +0.000 A 
ATOM     27  C   UNL     1      48.128   4.128  16.687  0.00  0.00    +0.000 A 
ATOM     28  C   UNL     1      47.530   4.358  15.438  0.00  0.00    +0.000 A 
BRANCH  27  29
ATOM     29  C   UNL     1      47.935   2.839  17.421  0.00  0.00    +0.000 C 
ATOM     30  F   UNL     1      46.628   2.507  17.611  0.00  0.00    +0.000 F 
ATOM     31  F   UNL     1      48.497   1.781  16.774  0.00  0.00    +0.000 F 
ATOM     32  F   UNL     1      48.497   2.857  18.661  0.00  0.00    +0.000 F 
ENDBRANCH  27  29
ENDBRANCH  21  23
ENDBRANCH   1  17
TORSDOF 5
ENDMDL
MODEL 3
REMARK VINA RESULT:    -9.021      3.625      5.027
REMARK INTER + INTRA:         -12.944
REMARK INTER:                 -11.898
REMARK INTRA:                  -1.046
REMARK UNBOUND:                -1.286
REMARK  Name = 
REMARK  5 active torsions:
REMARK  status: ('A' for Active; 'I' for Inactive)
REMARK    1  A    between atoms: C_2  and  C_4
REMARK    2  A    between atoms: N_8  and  C_9
REMARK    3  A    between atoms: C_9  and  C_10
REMARK    4  A    between atoms: C_14  and  C_15
REMARK    5  A    between atoms: C_19  and  C_20
REMARK                            x       y       z     vdW  Elec       q    Type
REMARK                         _______ _______ _______ _____ _____    ______ ____
ROOT
ATOM      1  C   UNL     1      43.986   4.855  11.549  0.00  0.00    +0.000 C 
ATOM      2  C   UNL     1      42.738   4.991  12.423  0.00  0.00    +0.000 C 
ATOM      3  C   UNL     1      42.972   5.965  11.323  0.00  0.00    +0.000 C 
ENDROOT
BRANCH   1   8
ATOM      4  C   UNL     1      46.476   2.692   7.510  0.00  0.00    +0.000 A 
ATOM      5  C   UNL     1      46.136   4.025   7.715  0.00  0.00    +0.000 A 
ATOM      6  C   UNL     1      45.347   4.368   8.814  0.00  0.00    +0.000 A 
ATOM      7  C   UNL     1      44.904   3.379   9.684  0.00  0.00    +0.000 A 
ATOM      8  N   UNL     1      44.042   3.623  10.754  0.00  0.00    +0.000 N 
ATOM      9  N   UNL     1      45.220   2.080   9.489  0.00  0.00    +0.000 NA
ATOM     10  C   UNL     1      45.988   1.759   8.414  0.00  0.00    +0.000 A 
ATOM     11  H   UNL     1      43.942   2.742  11.252  0.00  0.00    +0.000 HD
BRANCH   4  13
ATOM     12  N   UNL     1      47.263   3.017   5.240  0.00  0.00    +0.000 N 
ATOM     13  C   UNL     1      47.282   2.232   6.365  0.00  0.00    +0.000 C 
ATOM     14  O   UNL     1      47.966   1.219   6.415  0.00  0.00    +0.000 OA
ATOM     15  H   UNL     1      47.882   2.738   4.486  0.00  0.00    +0.000 HD
ATOM     16  H   UNL     1      46.922   3.966   5.236  0.00  0.00    +0.000 HD
ENDBRANCH   4  13
ENDBRANCH   1   8
BRANCH   1  17
ATOM     17  C   UNL     1      45.319   5.287  12.159  0.00  0.00    +0.000 A 
ATOM     18  C   UNL     1      45.996   6.426  11.699  0.00  0.00    +0.000 A 
ATOM     19  C   UNL     1      47.121   6.912  12.362  0.00  0.00    +0.000 A 
ATOM     20  C   UNL     1      47.591   6.266  13.506  0.00  0.00    +0.000 A 
ATOM     21  C   UNL     1      46.969   5.106  13.992  0.00  0.00    +0.000 A 
ATOM     22  C   UNL     1      45.862   4.618  13.275  0.00  0.00    +0.000 A 
BRANCH  21  23
ATOM     23  C   UNL     1      47.408   4.459  15.244  0.00  0.00    +0.000 A 
ATOM     24  C   UNL     1      47.833   3.129  15.272  0.00  0.00    +0.000 A 
ATOM     25  N   UNL     1      48.264   2.471  16.376  0.00  0.00    +0.000 NA
ATOM     26  C   UNL     1      48.290   3.170  17.530  0.00  0.00    +0.000 A 
ATOM     27  C   UNL     1      47.908   4.498  17.633  0.00  0.00    +0.000 A 
ATOM     28  C   UNL     1      47.463   5.141  16.468  0.00  0.00    +0.000 A 
BRANCH  27  29
ATOM     29  C   UNL     1      47.975   5.212  18.945  0.00  0.00    +0.000 C 
ATOM     30  F   UNL     1      48.373   4.422  19.980  0.00  0.00    +0.000 F 
ATOM     31  F   UNL     1      48.844   6.261  18.923  0.00  0.00    +0.000 F 
ATOM     32  F   UNL     1      46.773   5.733  19.317  0.00  0.00    +0.000 F 
ENDBRANCH  27  29
ENDBRANCH  21  23
ENDBRANCH   1  17
TORSDOF 5
ENDMDL
MODEL 4
REMARK VINA RESULT:    -8.234      1.939      2.358
REMARK INTER + INTRA:         -11.927
REMARK INTER:                 -10.728
REMARK INTRA:                  -1.199
REMARK UNBOUND:                -1.286
REMARK  Name = 
REMARK  5 active torsions:
REMARK  status: ('A' for Active; 'I' for Inactive)
REMARK    1  A    between atoms: C_2  and  C_4
REMARK    2  A    between atoms: N_8  and  C_9
REMARK    3  A    between atoms: C_9  and  C_10
REMARK    4  A    between atoms: C_14  and  C_15
REMARK    5  A    between atoms: C_19  and  C_20
REMARK                            x       y       z     vdW  Elec       q    Type
REMARK                         _______ _______ _______ _____ _____    ______ ____
ROOT
ATOM      1  C   UNL     1      43.808   4.964  11.339  0.00  0.00    +0.000 C 
ATOM      2  C   UNL     1      42.441   5.358  11.903  0.00  0.00    +0.000 C 
ATOM      3  C   UNL     1      43.141   6.278  10.965  0.00  0.00    +0.000 C 
ENDROOT
BRANCH   1   8
ATOM      4  C   UNL     1      46.417   2.669   7.451  0.00  0.00    +0.000 A 
ATOM      5  C   UNL     1      46.223   4.025   7.693  0.00  0.00    +0.000 A 
ATOM      6  C   UNL     1      45.373   4.420   8.727  0.00  0.00    +0.000 A 
ATOM      7  C   UNL     1      44.726   3.460   9.496  0.00  0.00    +0.000 A 
ATOM      8  N   UNL     1      43.794   3.768  10.489  0.00  0.00    +0.000 N 
ATOM      9  N   UNL     1      44.899   2.141   9.263  0.00  0.00    +0.000 NA
ATOM     10  C   UNL     1      45.729   1.769   8.252  0.00  0.00    +0.000 A 
ATOM     11  H   UNL     1      43.537   2.888  10.928  0.00  0.00    +0.000 HD
BRANCH   4  13
ATOM     12  N   UNL     1      47.375   2.934   5.240  0.00  0.00    +0.000 N 
ATOM     13  C   UNL     1      47.274   2.157   6.367  0.00  0.00    +0.000 C 
ATOM     14  O   UNL     1      47.897   1.109   6.468  0.00  0.00    +0.000 OA
ATOM     15  H   UNL     1      48.028   2.616   4.531  0.00  0.00    +0.000 HD
ATOM     16  H   UNL     1      47.087   3.900   5.208  0.00  0.00    +0.000 HD
ENDBRANCH   4  13
ENDBRANCH   1   8
BRANCH   1  17
ATOM     17  C   UNL     1      45.010   5.072  12.276  0.00  0.00    +0.000 A 
ATOM     18  C   UNL     1      45.463   3.967  13.012  0.00  0.00    +0.000 A 
ATOM     19  C   UNL     1      46.654   4.022  13.734  0.00  0.00    +0.000 A 
ATOM     20  C   UNL     1      47.420   5.189  13.731  0.00  0.00    +0.000 A 
ATOM     21  C   UNL     1      46.997   6.333  13.037  0.00  0.00    +0.000 A 
ATOM     22  C   UNL     1      45.771   6.257  12.353  0.00  0.00    +0.000 A 
BRANCH  21  23
ATOM     23  C   UNL     1      47.835   7.545  12.962  0.00  0.00    +0.000 A 
ATOM     24  C   UNL     1      48.147   8.148  11.741  0.00  0.00    +0.000 A 
ATOM     25  N   UNL     1      48.895   9.268  11.592  0.00  0.00    +0.000 NA
ATOM     26  C   UNL     1      49.360   9.843  12.721  0.00  0.00    +0.000 A 
ATOM     27  C   UNL     1      49.111   9.354  13.993  0.00  0.00    +0.000 A 
ATOM     28  C   UNL     1      48.336   8.189  14.103  0.00  0.00    +0.000 A 
BRANCH  27  29
ATOM     29  C   UNL     1      49.650  10.053  15.200  0.00  0.00    +0.000 C 
ATOM     30  F   UNL     1      49.477   9.359  16.358  0.00  0.00    +0.000 F 
ATOM     31  F   UNL     1      50.988  10.295  15.108  0.00  0.00    +0.000 F 
ATOM     32  F   UNL     1      49.067  11.266  15.402  0.00  0.00    +0.000 F 
ENDBRANCH  27  29
ENDBRANCH  21  23
ENDBRANCH   1  17
TORSDOF 5
ENDMDL
MODEL 5
REMARK VINA RESULT:    -7.570      4.129      7.602
REMARK INTER + INTRA:         -11.068
REMARK INTER:                 -10.805
REMARK INTRA:                  -0.263
REMARK UNBOUND:                -1.286
REMARK  Name = 
REMARK  5 active torsions:
REMARK  status: ('A' for Active; 'I' for Inactive)
REMARK    1  A    between atoms: C_2  and  C_4
REMARK    2  A    between atoms: N_8  and  C_9
REMARK    3  A    between atoms: C_9  and  C_10
REMARK    4  A    between atoms: C_14  and  C_15
REMARK    5  A    between atoms: C_19  and  C_20
REMARK                            x       y       z     vdW  Elec       q    Type
REMARK                         _______ _______ _______ _____ _____    ______ ____
ROOT
ATOM      1  C   UNL     1      48.451   7.913  12.867  0.00  0.00    +0.000 C 
ATOM      2  C   UNL     1      49.613   7.368  12.033  0.00  0.00    +0.000 C 
ATOM      3  C   UNL     1      49.330   8.830  12.032  0.00  0.00    +0.000 C 
ENDROOT
BRANCH   1   8
ATOM      4  C   UNL     1      47.963   4.320  16.616  0.00  0.00    +0.000 A 
ATOM      5  C   UNL     1      47.215   4.479  15.454  0.00  0.00    +0.000 A 
ATOM      6  C   UNL     1      47.432   5.597  14.647  0.00  0.00    +0.000 A 
ATOM      7  C   UNL     1      48.384   6.541  15.016  0.00  0.00    +0.000 A 
ATOM      8  N   UNL     1      48.602   7.729  14.315  0.00  0.00    +0.000 N 
ATOM      9  N   UNL     1      49.109   6.403  16.147  0.00  0.00    +0.000 NA
ATOM     10  C   UNL     1      48.886   5.310  16.924  0.00  0.00    +0.000 A 
ATOM     11  H   UNL     1      49.390   8.189  14.763  0.00  0.00    +0.000 HD
BRANCH   4  13
ATOM     12  N   UNL     1      48.869   2.843  18.310  0.00  0.00    +0.000 N 
ATOM     13  C   UNL     1      47.786   3.188  17.542  0.00  0.00    +0.000 C 
ATOM     14  O   UNL     1      46.720   2.598  17.654  0.00  0.00    +0.000 OA
ATOM     15  H   UNL     1      48.718   2.116  19.002  0.00  0.00    +0.000 HD
ATOM     16  H   UNL     1      49.672   3.441  18.432  0.00  0.00    +0.000 HD
ENDBRANCH   4  13
ENDBRANCH   1   8
BRANCH   1  17
ATOM     17  C   UNL     1      47.037   7.682  12.335  0.00  0.00    +0.000 A 
ATOM     18  C   UNL     1      46.064   8.691  12.388  0.00  0.00    +0.000 A 
ATOM     19  C   UNL     1      44.832   8.538  11.755  0.00  0.00    +0.000 A 
ATOM     20  C   UNL     1      44.550   7.367  11.050  0.00  0.00    +0.000 A 
ATOM     21  C   UNL     1      45.476   6.314  10.991  0.00  0.00    +0.000 A 
ATOM     22  C   UNL     1      46.692   6.484  11.675  0.00  0.00    +0.000 A 
BRANCH  21  23
ATOM     23  C   UNL     1      45.221   5.105  10.185  0.00  0.00    +0.000 A 
ATOM     24  C   UNL     1      44.222   4.191  10.529  0.00  0.00    +0.000 A 
ATOM     25  N   UNL     1      43.918   3.068   9.834  0.00  0.00    +0.000 NA
ATOM     26  C   UNL     1      44.636   2.831   8.716  0.00  0.00    +0.000 A 
ATOM     27  C   UNL     1      45.643   3.665   8.258  0.00  0.00    +0.000 A 
ATOM     28  C   UNL     1      45.930   4.815   9.010  0.00  0.00    +0.000 A 
BRANCH  27  29
ATOM     29  C   UNL     1      46.389   3.344   7.002  0.00  0.00    +0.000 C 
ATOM     30  F   UNL     1      46.798   4.444   6.312  0.00  0.00    +0.000 F 
ATOM     31  F   UNL     1      47.514   2.613   7.237  0.00  0.00    +0.000 F 
ATOM     32  F   UNL     1      45.646   2.612   6.128  0.00  0.00    +0.000 F 
ENDBRANCH  27  29
ENDBRANCH  21  23
ENDBRANCH   1  17
TORSDOF 5
ENDMDL
MODEL 6
REMARK VINA RESULT:    -7.534      4.717      8.337
REMARK INTER + INTRA:         -11.022
REMARK INTER:                  -9.837
REMARK INTRA:                  -1.185
REMARK UNBOUND:                -1.286
REMARK  Name = 
REMARK  5 active torsions:
REMARK  status: ('A' for Active; 'I' for Inactive)
REMARK    1  A    between atoms: C_2  and  C_4
REMARK    2  A    between atoms: N_8  and  C_9
REMARK    3  A    between atoms: C_9  and  C_10
REMARK    4  A    between atoms: C_14  and  C_15
REMARK    5  A    between atoms: C_19  and  C_20
REMARK                            x       y       z     vdW  Elec       q    Type
REMARK                         _______ _______ _______ _____ _____    ______ ____
ROOT
ATOM      1  C   UNL     1      48.985   8.269  12.926  0.00  0.00    +0.000 C 
ATOM      2  C   UNL     1      49.938   8.565  11.767  0.00  0.00    +0.000 C 
ATOM      3  C   UNL     1      49.612   9.642  12.742  0.00  0.00    +0.000 C 
ENDROOT
BRANCH   1   8
ATOM      4  C   UNL     1      48.449   6.698  17.871  0.00  0.00    +0.000 A 
ATOM      5  C   UNL     1      48.373   7.985  17.349  0.00  0.00    +0.000 A 
ATOM      6  C   UNL     1      48.682   8.198  16.004  0.00  0.00    +0.000 A 
ATOM      7  C   UNL     1      49.068   7.128  15.205  0.00  0.00    +0.000 A 
ATOM      8  N   UNL     1      49.477   7.265  13.878  0.00  0.00    +0.000 N 
ATOM      9  N   UNL     1      49.155   5.875  15.704  0.00  0.00    +0.000 NA
ATOM     10  C   UNL     1      48.853   5.682  17.016  0.00  0.00    +0.000 A 
ATOM     11  H   UNL     1      49.634   6.326  13.524  0.00  0.00    +0.000 HD
BRANCH   4  13
ATOM     12  N   UNL     1      47.196   5.442  19.522  0.00  0.00    +0.000 N 
ATOM     13  C   UNL     1      48.168   6.381  19.282  0.00  0.00    +0.000 C 
ATOM     14  O   UNL     1      48.786   6.898  20.202  0.00  0.00    +0.000 OA
ATOM     15  H   UNL     1      47.064   5.169  20.490  0.00  0.00    +0.000 HD
ATOM     16  H   UNL     1      46.841   4.821  18.811  0.00  0.00    +0.000 HD
ENDBRANCH   4  13
ENDBRANCH   1   8
BRANCH   1  17
ATOM     17  C   UNL     1      47.495   8.170  12.602  0.00  0.00    +0.000 A 
ATOM     18  C   UNL     1      46.653   9.288  12.695  0.00  0.00    +0.000 A 
ATOM     19  C   UNL     1      45.336   9.237  12.241  0.00  0.00    +0.000 A 
ATOM     20  C   UNL     1      44.836   8.061  11.680  0.00  0.00    +0.000 A 
ATOM     21  C   UNL     1      45.627   6.905  11.590  0.00  0.00    +0.000 A 
ATOM     22  C   UNL     1      46.937   6.978  12.095  0.00  0.00    +0.000 A 
BRANCH  21  23
ATOM     23  C   UNL     1      45.135   5.681  10.929  0.00  0.00    +0.000 A 
ATOM     24  C   UNL     1      44.027   4.981  11.411  0.00  0.00    +0.000 A 
ATOM     25  N   UNL     1      43.507   3.861  10.853  0.00  0.00    +0.000 NA
ATOM     26  C   UNL     1      44.110   3.403   9.735  0.00  0.00    +0.000 A 
ATOM     27  C   UNL     1      45.207   4.012   9.148  0.00  0.00    +0.000 A 
ATOM     28  C   UNL     1      45.717   5.167   9.761  0.00  0.00    +0.000 A 
BRANCH  27  29
ATOM     29  C   UNL     1      45.815   3.454   7.901  0.00  0.00    +0.000 C 
ATOM     30  F   UNL     1      46.387   2.230   8.071  0.00  0.00    +0.000 F 
ATOM     31  F   UNL     1      44.903   3.302   6.900  0.00  0.00    +0.000 F 
ATOM     32  F   UNL     1      46.793   4.254   7.395  0.00  0.00    +0.000 F 
ENDBRANCH  27  29
ENDBRANCH  21  23
ENDBRANCH   1  17
TORSDOF 5
ENDMDL
MODEL 7
REMARK VINA RESULT:    -7.004      6.247      8.699
REMARK INTER + INTRA:         -10.338
REMARK INTER:                  -9.403
REMARK INTRA:                  -0.935
REMARK UNBOUND:                -1.286
REMARK  Name = 
REMARK  5 active torsions:
REMARK  status: ('A' for Active; 'I' for Inactive)
REMARK    1  A    between atoms: C_2  and  C_4
REMARK    2  A    between atoms: N_8  and  C_9
REMARK    3  A    between atoms: C_9  and  C_10
REMARK    4  A    between atoms: C_14  and  C_15
REMARK    5  A    between atoms: C_19  and  C_20
REMARK                            x       y       z     vdW  Elec       q    Type
REMARK                         _______ _______ _______ _____ _____    ______ ____
ROOT
ATOM      1  C   UNL     1      48.566   5.049  17.534  0.00  0.00    +0.000 C 
ATOM      2  C   UNL     1      47.437   5.379  18.513  0.00  0.00    +0.000 C 
ATOM      3  C   UNL     1      47.358   4.139  17.693  0.00  0.00    +0.000 C 
ENDROOT
BRANCH   1   8
ATOM      4  C   UNL     1      52.499   1.625  17.611  0.00  0.00    +0.000 A 
ATOM      5  C   UNL     1      51.140   1.392  17.429  0.00  0.00    +0.000 A 
ATOM      6  C   UNL     1      50.238   2.447  17.578  0.00  0.00    +0.000 A 
ATOM      7  C   UNL     1      50.704   3.713  17.913  0.00  0.00    +0.000 A 
ATOM      8  N   UNL     1      49.867   4.800  18.167  0.00  0.00    +0.000 N 
ATOM      9  N   UNL     1      52.021   3.948  18.103  0.00  0.00    +0.000 NA
ATOM     10  C   UNL     1      52.888   2.911  17.956  0.00  0.00    +0.000 A 
ATOM     11  H   UNL     1      50.471   5.602  18.319  0.00  0.00    +0.000 HD
BRANCH   4  13
ATOM     12  N   UNL     1      53.353  -0.539  18.292  0.00  0.00    +0.000 N 
ATOM     13  C   UNL     1      53.521   0.569  17.501  0.00  0.00    +0.000 C 
ATOM     14  O   UNL     1      54.460   0.650  16.721  0.00  0.00    +0.000 OA
ATOM     15  H   UNL     1      54.014  -1.296  18.153  0.00  0.00    +0.000 HD
ATOM     16  H   UNL     1      52.485  -0.759  18.757  0.00  0.00    +0.000 HD
ENDBRANCH   4  13
ENDBRANCH   1   8
BRANCH   1  17
ATOM     17  C   UNL     1      48.626   5.852  16.236  0.00  0.00    +0.000 A 
ATOM     18  C   UNL     1      49.726   6.670  15.936  0.00  0.00    +0.000 A 
ATOM     19  C   UNL     1      49.857   7.269  14.684  0.00  0.00    +0.000 A 
ATOM     20  C   UNL     1      48.887   7.058  13.703  0.00  0.00    +0.000 A 
ATOM     21  C   UNL     1      47.753   6.273  13.961  0.00  0.00    +0.000 A 
ATOM     22  C   UNL     1      47.630   5.718  15.247  0.00  0.00    +0.000 A 
BRANCH  21  23
ATOM     23  C   UNL     1      46.761   5.979  12.909  0.00  0.00    +0.000 A 
ATOM     24  C   UNL     1      46.937   6.411  11.593  0.00  0.00    +0.000 A 
ATOM     25  N   UNL     1      46.081   6.169  10.571  0.00  0.00    +0.000 NA
ATOM     26  C   UNL     1      44.981   5.441  10.857  0.00  0.00    +0.000 A 
ATOM     27  C   UNL     1      44.697   4.942  12.118  0.00  0.00    +0.000 A 
ATOM     28  C   UNL     1      45.607   5.219  13.150  0.00  0.00    +0.000 A 
BRANCH  27  29
ATOM     29  C   UNL     1      43.463   4.131  12.358  0.00  0.00    +0.000 C 
ATOM     30  F   UNL     1      42.652   4.032  11.269  0.00  0.00    +0.000 F 
ATOM     31  F   UNL     1      43.745   2.851  12.729  0.00  0.00    +0.000 F 
ATOM     32  F   UNL     1      42.689   4.645  13.353  0.00  0.00    +0.000 F 
ENDBRANCH  27  29
ENDBRANCH  21  23
ENDBRANCH   1  17
TORSDOF 5
ENDMDL
MODEL 8
REMARK VINA RESULT:    -6.819      4.618      7.104
REMARK INTER + INTRA:         -10.098
REMARK INTER:                  -8.784
REMARK INTRA:                  -1.314
REMARK UNBOUND:                -1.286
REMARK  Name = 
REMARK  5 active torsions:
REMARK  status: ('A' for Active; 'I' for Inactive)
REMARK    1  A    between atoms: C_2  and  C_4
REMARK    2  A    between atoms: N_8  and  C_9
REMARK    3  A    between atoms: C_9  and  C_10
REMARK    4  A    between atoms: C_14  and  C_15
REMARK    5  A    between atoms: C_19  and  C_20
REMARK                            x       y       z     vdW  Elec       q    Type
REMARK                         _______ _______ _______ _____ _____    ______ ____
ROOT
ATOM      1  C   UNL     1      49.020   8.507  12.398  0.00  0.00    +0.000 C 
ATOM      2  C   UNL     1      49.953   9.333  11.511  0.00  0.00    +0.000 C 
ATOM      3  C   UNL     1      50.251   7.894  11.750  0.00  0.00    +0.000 C 
ENDROOT
BRANCH   1   8
ATOM      4  C   UNL     1      44.833   5.412  12.699  0.00  0.00    +0.000 A 
ATOM      5  C   UNL     1      46.179   5.073  12.780  0.00  0.00    +0.000 A 
ATOM      6  C   UNL     1      47.147   6.049  12.539  0.00  0.00    +0.000 A 
ATOM      7  C   UNL     1      46.759   7.343  12.215  0.00  0.00    +0.000 A 
ATOM      8  N   UNL     1      47.658   8.355  11.874  0.00  0.00    +0.000 N 
ATOM      9  N   UNL     1      45.454   7.682  12.123  0.00  0.00    +0.000 NA
ATOM     10  C   UNL     1      44.521   6.721  12.359  0.00  0.00    +0.000 A 
ATOM     11  H   UNL     1      47.109   9.202  11.753  0.00  0.00    +0.000 HD
BRANCH   4  13
ATOM     12  N   UNL     1      44.046   3.120  12.730  0.00  0.00    +0.000 N 
ATOM     13  C   UNL     1      43.742   4.445  12.911  0.00  0.00    +0.000 C 
ATOM     14  O   UNL     1      42.623   4.792  13.265  0.00  0.00    +0.000 OA
ATOM     15  H   UNL     1      43.314   2.454  12.955  0.00  0.00    +0.000 HD
ATOM     16  H   UNL     1      44.993   2.773  12.682  0.00  0.00    +0.000 HD
ENDBRANCH   4  13
ENDBRANCH   1   8
BRANCH   1  17
ATOM     17  C   UNL     1      49.106   8.731  13.907  0.00  0.00    +0.000 A 
ATOM     18  C   UNL     1      49.004  10.017  14.460  0.00  0.00    +0.000 A 
ATOM     19  C   UNL     1      48.915  10.203  15.838  0.00  0.00    +0.000 A 
ATOM     20  C   UNL     1      48.925   9.101  16.694  0.00  0.00    +0.000 A 
ATOM     21  C   UNL     1      49.055   7.795  16.195  0.00  0.00    +0.000 A 
ATOM     22  C   UNL     1      49.184   7.645  14.803  0.00  0.00    +0.000 A 
BRANCH  21  23
ATOM     23  C   UNL     1      48.988   6.618  17.083  0.00  0.00    +0.000 A 
ATOM     24  C   UNL     1      49.295   6.706  18.442  0.00  0.00    +0.000 A 
ATOM     25  N   UNL     1      49.242   5.677  19.323  0.00  0.00    +0.000 NA
ATOM     26  C   UNL     1      48.850   4.481  18.837  0.00  0.00    +0.000 A 
ATOM     27  C   UNL     1      48.505   4.264  17.513  0.00  0.00    +0.000 A 
ATOM     28  C   UNL     1      48.577   5.355  16.633  0.00  0.00    +0.000 A 
BRANCH  27  29
ATOM     29  C   UNL     1      48.066   2.912  17.049  0.00  0.00    +0.000 C 
ATOM     30  F   UNL     1      47.080   2.364  17.812  0.00  0.00    +0.000 F 
ATOM     31  F   UNL     1      47.585   2.929  15.775  0.00  0.00    +0.000 F 
ATOM     32  F   UNL     1      49.083   2.006  17.050  0.00  0.00    +0.000 F 
ENDBRANCH  27  29
ENDBRANCH  21  23
ENDBRANCH   1  17
TORSDOF 5
ENDMDL
MODEL 9
REMARK VINA RESULT:    -6.742      5.416      8.531
REMARK INTER + INTRA:          -9.999
REMARK INTER:                  -8.853
REMARK INTRA:                  -1.146
REMARK UNBOUND:                -1.286
REMARK  Name = 
REMARK  5 active torsions:
REMARK  status: ('A' for Active; 'I' for Inactive)
REMARK    1  A    between atoms: C_2  and  C_4
REMARK    2  A    between atoms: N_8  and  C_9
REMARK    3  A    between atoms: C_9  and  C_10
REMARK    4  A    between atoms: C_14  and  C_15
REMARK    5  A    between atoms: C_19  and  C_20
REMARK                            x       y       z     vdW  Elec       q    Type
REMARK                         _______ _______ _______ _____ _____    ______ ____
ROOT
ATOM      1  C   UNL     1      49.258   8.396  16.356  0.00  0.00    +0.000 C 
ATOM      2  C   UNL     1      49.111   9.877  16.709  0.00  0.00    +0.000 C 
ATOM      3  C   UNL     1      48.030   8.923  17.080  0.00  0.00    +0.000 C 
ENDROOT
BRANCH   1   8
ATOM      4  C   UNL     1      51.077   3.645  17.504  0.00  0.00    +0.000 A 
ATOM      5  C   UNL     1      49.759   4.079  17.416  0.00  0.00    +0.000 A 
ATOM      6  C   UNL     1      49.496   5.436  17.224  0.00  0.00    +0.000 A 
ATOM      7  C   UNL     1      50.550   6.338  17.130  0.00  0.00    +0.000 A 
ATOM      8  N   UNL     1      50.375   7.719  17.026  0.00  0.00    +0.000 N 
ATOM      9  N   UNL     1      51.834   5.929  17.223  0.00  0.00    +0.000 NA
ATOM     10  C   UNL     1      52.076   4.605  17.412  0.00  0.00    +0.000 A 
ATOM     11  H   UNL     1      51.302   8.120  16.906  0.00  0.00    +0.000 HD
BRANCH   4  13
ATOM     12  N   UNL     1      52.519   2.009  18.562  0.00  0.00    +0.000 N 
ATOM     13  C   UNL     1      51.451   2.238  17.731  0.00  0.00    +0.000 C 
ATOM     14  O   UNL     1      50.826   1.309  17.237  0.00  0.00    +0.000 OA
ATOM     15  H   UNL     1      52.721   1.038  18.779  0.00  0.00    +0.000 HD
ATOM     16  H   UNL     1      52.902   2.712  19.175  0.00  0.00    +0.000 HD
ENDBRANCH   4  13
ENDBRANCH   1   8
BRANCH   1  17
ATOM     17  C   UNL     1      49.049   7.999  14.895  0.00  0.00    +0.000 A 
ATOM     18  C   UNL     1      49.949   8.398  13.896  0.00  0.00    +0.000 A 
ATOM     19  C   UNL     1      49.850   7.899  12.598  0.00  0.00    +0.000 A 
ATOM     20  C   UNL     1      48.847   6.985  12.275  0.00  0.00    +0.000 A 
ATOM     21  C   UNL     1      47.903   6.576  13.230  0.00  0.00    +0.000 A 
ATOM     22  C   UNL     1      48.005   7.130  14.518  0.00  0.00    +0.000 A 
BRANCH  21  23
ATOM     23  C   UNL     1      46.886   5.552  12.922  0.00  0.00    +0.000 A 
ATOM     24  C   UNL     1      46.956   4.264  13.457  0.00  0.00    +0.000 A 
ATOM     25  N   UNL     1      46.056   3.276  13.234  0.00  0.00    +0.000 NA
ATOM     26  C   UNL     1      45.007   3.576  12.440  0.00  0.00    +0.000 A 
ATOM     27  C   UNL     1      44.814   4.819  11.859  0.00  0.00    +0.000 A 
ATOM     28  C   UNL     1      45.772   5.813  12.111  0.00  0.00    +0.000 A 
BRANCH  27  29
ATOM     29  C   UNL     1      43.619   5.082  10.999  0.00  0.00    +0.000 C 
ATOM     30  F   UNL     1      43.220   6.384  11.000  0.00  0.00    +0.000 F 
ATOM     31  F   UNL     1      43.837   4.762   9.693  0.00  0.00    +0.000 F 
ATOM     32  F   UNL     1      42.531   4.359  11.383  0.00  0.00    +0.000 F 
ENDBRANCH  27  29
ENDBRANCH  21  23
ENDBRANCH   1  17
TORSDOF 5
ENDMDL
