MODEL 1
REMARK VINA RESULT:    -9.776      0.000      0.000
REMARK INTER + INTRA:         -13.165
REMARK INTER:                 -12.920
REMARK INTRA:                  -0.245
REMARK UNBOUND:                -0.245
REMARK  Name = 
REMARK  7 active torsions:
REMARK  status: ('A' for Active; 'I' for Inactive)
REMARK    1  A    between atoms: C_1  and  C_2
REMARK    2  A    between atoms: C_2  and  N_3
REMARK    3  A    between atoms: C_2  and  C_16
REMARK    4  A    between atoms: C_4  and  C_6
REMARK    5  A    between atoms: C_19  and  S_20
REMARK    6  A    between atoms: S_20  and  C_21
REMARK    7  A    between atoms: C_24  and  O_25
REMARK                            x       y       z     vdW  Elec       q    Type
REMARK                         _______ _______ _______ _____ _____    ______ ____
ROOT
ATOM      1  C   UNL     1      45.390   8.313  12.786  0.00  0.00    +0.000 C 
ATOM      2  C   UNL     1      46.445   7.214  12.685  0.00  0.00    +0.000 C 
ENDROOT
BRANCH   2   3
ATOM      3  C   UNL     1      45.916   6.003  11.942  0.00  0.00    +0.000 A 
ATOM      4  C   UNL     1      45.566   4.814  12.586  0.00  0.00    +0.000 A 
ATOM      5  C   UNL     1      45.110   3.725  11.843  0.00  0.00    +0.000 A 
ATOM      6  C   UNL     1      45.006   3.851  10.465  0.00  0.00    +0.000 A 
ATOM      7  N   UNL     1      45.300   4.997   9.811  0.00  0.00    +0.000 NA
ATOM      8  C   UNL     1      45.745   6.037  10.559  0.00  0.00    +0.000 A 
BRANCH   6   9
ATOM      9  S   UNL     1      44.424   2.473   9.494  0.00  0.00    +0.000 S 
BRANCH   9  10
ATOM     10  C   UNL     1      45.714   2.338   8.278  0.00  0.00    +0.000 A 
ATOM     11  C   UNL     1      46.027   3.388   7.415  0.00  0.00    +0.000 A 
ATOM     12  C   UNL     1      47.015   3.222   6.444  0.00  0.00    +0.000 A 
ATOM     13  C   UNL     1      47.656   1.997   6.369  0.00  0.00    +0.000 A 
ATOM     14  N   UNL     1      47.388   0.959   7.176  0.00  0.00    +0.000 NA
ATOM     15  C   UNL     1      46.419   1.150   8.106  0.00  0.00    +0.000 A 
BRANCH  13  16
ATOM     16  O   UNL     1      48.622   1.764   5.436  0.00  0.00    +0.000 OA
ATOM     17  H   UNL     1      48.190   1.437   4.634  0.00  0.00    +0.000 HD
ENDBRANCH  13  16
ENDBRANCH   9  10
ENDBRANCH   6   9
ENDBRANCH   2   3
BRANCH   2  18
ATOM     18  N   UNL     1      46.938   6.873  14.010  0.00  0.00    +0.000 N 
ATOM     19  C   UNL     1      48.265   6.597  14.251  0.00  0.00    +0.000 C 
ATOM     20  O   UNL     1      49.111   6.664  13.368  0.00  0.00    +0.000 OA
ATOM     21  H   UNL     1      46.299   6.747  14.790  0.00  0.00    +0.000 HD
BRANCH  19  22
ATOM     22  C   UNL     1      48.574   6.264  15.660  0.00  0.00    +0.000 A 
ATOM     23  N   UNL     1      49.292   7.147  16.382  0.00  0.00    +0.000 NA
ATOM     24  S   UNL     1      49.599   6.513  17.881  0.00  0.00    +0.000 S 
ATOM     25  C   UNL     1      48.772   5.047  17.634  0.00  0.00    +0.000 A 
ATOM     26  N   UNL     1      48.698   4.055  18.561  0.00  0.00    +0.000 NA
ATOM     27  C   UNL     1      48.038   3.017  18.161  0.00  0.00    +0.000 A 
ATOM     28  N   UNL     1      47.442   2.899  16.931  0.00  0.00    +0.000 N 
ATOM     29  C   UNL     1      47.446   3.901  15.983  0.00  0.00    +0.000 A 
ATOM     30  O   UNL     1      46.805   3.769  14.949  0.00  0.00    +0.000 OA
ATOM     31  C   UNL     1      48.221   5.060  16.366  0.00  0.00    +0.000 A 
ATOM     32  H   UNL     1      46.908   2.077  16.689  0.00  0.00    +0.000 HD
ENDBRANCH  19  22
ENDBRANCH   2  18
TORSDOF 6
ENDMDL
MODEL 2
REMARK VINA RESULT:    -8.930      1.969      2.565
REMARK INTER + INTRA:         -12.047
REMARK INTER:                 -11.234
REMARK INTRA:                  -0.812
REMARK UNBOUND:                -0.245
REMARK  Name = 
REMARK  7 active torsions:
REMARK  status: ('A' for Active; 'I' for Inactive)
REMARK    1  A    between atoms: C_1  and  C_2
REMARK    2  A    between atoms: C_2  and  N_3
REMARK    3  A    between atoms: C_2  and  C_16
REMARK    4  A    between atoms: C_4  and  C_6
REMARK    5  A    between atoms: C_19  and  S_20
REMARK    6  A    between atoms: S_20  and  C_21
REMARK    7  A    between atoms: C_24  and  O_25
REMARK                            x       y       z     vdW  Elec       q    Type
REMARK                         _______ _______ _______ _____ _____    ______ ____
ROOT
ATOM      1  C   UNL     1      47.170   8.500  13.770  0.00  0.00    +0.000 C 
ATOM      2  C   UNL     1      47.650   7.058  13.626  0.00  0.00    +0.000 C 
ENDROOT
BRANCH   2   3
ATOM      3  C   UNL     1      46.788   6.279  12.653  0.00  0.00    +0.000 A 
ATOM      4  C   UNL     1      46.443   6.765  11.390  0.00  0.00    +0.000 A 
ATOM      5  C   UNL     1      45.623   6.010  10.551  0.00  0.00    +0.000 A 
ATOM      6  C   UNL     1      45.170   4.775  10.991  0.00  0.00    +0.000 A 
ATOM      7  N   UNL     1      45.513   4.255  12.190  0.00  0.00    +0.000 NA
ATOM      8  C   UNL     1      46.307   5.013  12.987  0.00  0.00    +0.000 A 
BRANCH   6   9
ATOM      9  S   UNL     1      44.123   3.791   9.935  0.00  0.00    +0.000 S 
BRANCH   9  10
ATOM     10  C   UNL     1      45.319   3.079   8.829  0.00  0.00    +0.000 A 
ATOM     11  C   UNL     1      45.973   3.842   7.861  0.00  0.00    +0.000 A 
ATOM     12  C   UNL     1      46.869   3.233   6.982  0.00  0.00    +0.000 A 
ATOM     13  C   UNL     1      47.076   1.870   7.103  0.00  0.00    +0.000 A 
ATOM     14  N   UNL     1      46.469   1.096   8.017  0.00  0.00    +0.000 NA
ATOM     15  C   UNL     1      45.600   1.716   8.853  0.00  0.00    +0.000 A 
BRANCH  13  16
ATOM     16  O   UNL     1      47.930   1.210   6.268  0.00  0.00    +0.000 OA
ATOM     17  H   UNL     1      48.834   1.401   6.555  0.00  0.00    +0.000 HD
ENDBRANCH  13  16
ENDBRANCH   9  10
ENDBRANCH   6   9
ENDBRANCH   2   3
BRANCH   2  18
ATOM     18  N   UNL     1      47.716   6.422  14.932  0.00  0.00    +0.000 N 
ATOM     19  C   UNL     1      48.902   6.263  15.614  0.00  0.00    +0.000 C 
ATOM     20  O   UNL     1      49.964   6.687  15.173  0.00  0.00    +0.000 OA
ATOM     21  H   UNL     1      46.893   5.998  15.350  0.00  0.00    +0.000 HD
BRANCH  19  22
ATOM     22  C   UNL     1      48.769   5.588  16.923  0.00  0.00    +0.000 A 
ATOM     23  N   UNL     1      49.005   4.262  16.985  0.00  0.00    +0.000 NA
ATOM     24  S   UNL     1      48.693   3.716  18.517  0.00  0.00    +0.000 S 
ATOM     25  C   UNL     1      48.250   5.227  19.163  0.00  0.00    +0.000 A 
ATOM     26  N   UNL     1      47.844   5.410  20.448  0.00  0.00    +0.000 NA
ATOM     27  C   UNL     1      47.535   6.634  20.727  0.00  0.00    +0.000 A 
ATOM     28  N   UNL     1      47.611   7.679  19.840  0.00  0.00    +0.000 N 
ATOM     29  C   UNL     1      48.068   7.547  18.545  0.00  0.00    +0.000 A 
ATOM     30  O   UNL     1      48.210   8.538  17.841  0.00  0.00    +0.000 OA
ATOM     31  C   UNL     1      48.373   6.183  18.173  0.00  0.00    +0.000 A 
ATOM     32  H   UNL     1      47.391   8.622  20.126  0.00  0.00    +0.000 HD
ENDBRANCH  19  22
ENDBRANCH   2  18
TORSDOF 6
ENDMDL
MODEL 3
REMARK VINA RESULT:    -8.572      1.709      2.000
REMARK INTER + INTRA:         -11.574
REMARK INTER:                 -10.774
REMARK INTRA:                  -0.800
REMARK UNBOUND:                -0.245
REMARK  Name = 
REMARK  7 active torsions:
REMARK  status: ('A' for Active; 'I' for Inactive)
REMARK    1  A    between atoms: C_1  and  C_2
REMARK    2  A    between atoms: C_2  and  N_3
REMARK    3  A    between atoms: C_2  and  C_16
REMARK    4  A    between atoms: C_4  and  C_6
REMARK    5  A    between atoms: C_19  and  S_20
REMARK    6  A    between atoms: S_20  and  C_21
REMARK    7  A    between atoms: C_24  and  O_25
REMARK                            x       y       z     vdW  Elec       q    Type
REMARK                         _______ _______ _______ _____ _____    ______ ____
ROOT
ATOM      1  C   UNL     1      48.399   8.599  13.086  0.00  0.00    +0.000 C 
ATOM      2  C   UNL     1      48.297   7.146  13.543  0.00  0.00    +0.000 C 
ENDROOT
BRANCH   2   3
ATOM      3  C   UNL     1      47.238   6.391  12.764  0.00  0.00    +0.000 A 
ATOM      4  C   UNL     1      46.633   5.226  13.242  0.00  0.00    +0.000 A 
ATOM      5  C   UNL     1      45.684   4.563  12.465  0.00  0.00    +0.000 A 
ATOM      6  C   UNL     1      45.350   5.085  11.224  0.00  0.00    +0.000 A 
ATOM      7  N   UNL     1      45.886   6.230  10.744  0.00  0.00    +0.000 NA
ATOM      8  C   UNL     1      46.809   6.851  11.519  0.00  0.00    +0.000 A 
BRANCH   6   9
ATOM      9  S   UNL     1      44.137   4.256  10.214  0.00  0.00    +0.000 S 
BRANCH   9  10
ATOM     10  C   UNL     1      45.180   3.352   9.093  0.00  0.00    +0.000 A 
ATOM     11  C   UNL     1      45.834   3.976   8.030  0.00  0.00    +0.000 A 
ATOM     12  C   UNL     1      46.605   3.221   7.146  0.00  0.00    +0.000 A 
ATOM     13  C   UNL     1      46.689   1.855   7.357  0.00  0.00    +0.000 A 
ATOM     14  N   UNL     1      46.076   1.212   8.363  0.00  0.00    +0.000 NA
ATOM     15  C   UNL     1      45.331   1.973   9.203  0.00  0.00    +0.000 A 
BRANCH  13  16
ATOM     16  O   UNL     1      47.415   1.057   6.523  0.00  0.00    +0.000 OA
ATOM     17  H   UNL     1      48.351   1.271   6.646  0.00  0.00    +0.000 HD
ENDBRANCH  13  16
ENDBRANCH   9  10
ENDBRANCH   6   9
ENDBRANCH   2   3
BRANCH   2  18
ATOM     18  N   UNL     1      48.067   7.090  14.978  0.00  0.00    +0.000 N 
ATOM     19  C   UNL     1      49.077   6.818  15.874  0.00  0.00    +0.000 C 
ATOM     20  O   UNL     1      50.235   6.649  15.512  0.00  0.00    +0.000 OA
ATOM     21  H   UNL     1      47.129   7.169  15.362  0.00  0.00    +0.000 HD
BRANCH  19  22
ATOM     22  C   UNL     1      48.648   6.796  17.290  0.00  0.00    +0.000 A 
ATOM     23  N   UNL     1      48.207   7.944  17.841  0.00  0.00    +0.000 NA
ATOM     24  S   UNL     1      47.889   7.698  19.448  0.00  0.00    +0.000 S 
ATOM     25  C   UNL     1      48.307   6.049  19.468  0.00  0.00    +0.000 A 
ATOM     26  N   UNL     1      48.270   5.273  20.584  0.00  0.00    +0.000 NA
ATOM     27  C   UNL     1      48.648   4.052  20.382  0.00  0.00    +0.000 A 
ATOM     28  N   UNL     1      49.040   3.549  19.167  0.00  0.00    +0.000 N 
ATOM     29  C   UNL     1      49.040   4.286  18.001  0.00  0.00    +0.000 A 
ATOM     30  O   UNL     1      49.300   3.745  16.934  0.00  0.00    +0.000 OA
ATOM     31  C   UNL     1      48.678   5.673  18.190  0.00  0.00    +0.000 A 
ATOM     32  H   UNL     1      49.289   2.576  19.063  0.00  0.00    +0.000 HD
ENDBRANCH  19  22
ENDBRANCH   2  18
TORSDOF 6
ENDMDL
MODEL 4
REMARK VINA RESULT:    -8.379      2.756      4.110
REMARK INTER + INTRA:         -11.319
REMARK INTER:                 -10.343
REMARK INTRA:                  -0.976
REMARK UNBOUND:                -0.245
REMARK  Name = 
REMARK  7 active torsions:
REMARK  status: ('A' for Active; 'I' for Inactive)
REMARK    1  A    between atoms: C_1  and  C_2
REMARK    2  A    between atoms: C_2  and  N_3
REMARK    3  A    between atoms: C_2  and  C_16
REMARK    4  A    between atoms: C_4  and  C_6
REMARK    5  A    between atoms: C_19  and  S_20
REMARK    6  A    between atoms: S_20  and  C_21
REMARK    7  A    between atoms: C_24  and  O_25
REMARK                            x       y       z     vdW  Elec       q    Type
REMARK                         _______ _______ _______ _____ _____    ______ ____
ROOT
ATOM      1  C   UNL     1      47.080   4.897  14.803  0.00  0.00    +0.000 C 
ATOM      2  C   UNL     1      46.633   5.818  13.671  0.00  0.00    +0.000 C 
ENDROOT
BRANCH   2   3
ATOM      3  C   UNL     1      46.046   5.034  12.515  0.00  0.00    +0.000 A 
ATOM      4  C   UNL     1      45.750   5.615  11.279  0.00  0.00    +0.000 A 
ATOM      5  C   UNL     1      45.185   4.845  10.263  0.00  0.00    +0.000 A 
ATOM      6  C   UNL     1      44.935   3.501  10.499  0.00  0.00    +0.000 A 
ATOM      7  N   UNL     1      45.243   2.896  11.668  0.00  0.00    +0.000 NA
ATOM      8  C   UNL     1      45.786   3.670  12.641  0.00  0.00    +0.000 A 
BRANCH   6   9
ATOM      9  S   UNL     1      44.217   2.496   9.214  0.00  0.00    +0.000 S 
BRANCH   9  10
ATOM     10  C   UNL     1      45.586   2.342   8.090  0.00  0.00    +0.000 A 
ATOM     11  C   UNL     1      45.897   3.341   7.167  0.00  0.00    +0.000 A 
ATOM     12  C   UNL     1      46.950   3.158   6.271  0.00  0.00    +0.000 A 
ATOM     13  C   UNL     1      47.657   1.970   6.330  0.00  0.00    +0.000 A 
ATOM     14  N   UNL     1      47.394   0.981   7.199  0.00  0.00    +0.000 NA
ATOM     15  C   UNL     1      46.361   1.186   8.053  0.00  0.00    +0.000 A 
BRANCH  13  16
ATOM     16  O   UNL     1      48.691   1.722   5.475  0.00  0.00    +0.000 OA
ATOM     17  H   UNL     1      49.353   1.200   5.951  0.00  0.00    +0.000 HD
ENDBRANCH  13  16
ENDBRANCH   9  10
ENDBRANCH   6   9
ENDBRANCH   2   3
BRANCH   2  18
ATOM     18  N   UNL     1      47.737   6.667  13.254  0.00  0.00    +0.000 N 
ATOM     19  C   UNL     1      47.644   8.041  13.244  0.00  0.00    +0.000 C 
ATOM     20  O   UNL     1      46.637   8.625  13.626  0.00  0.00    +0.000 OA
ATOM     21  H   UNL     1      48.591   6.268  12.876  0.00  0.00    +0.000 HD
BRANCH  19  22
ATOM     22  C   UNL     1      48.868   8.733  12.782  0.00  0.00    +0.000 A 
ATOM     23  N   UNL     1      48.760   9.607  11.761  0.00  0.00    +0.000 NA
ATOM     24  S   UNL     1      50.265  10.170  11.355  0.00  0.00    +0.000 S 
ATOM     25  C   UNL     1      51.115   9.286  12.535  0.00  0.00    +0.000 A 
ATOM     26  N   UNL     1      52.467   9.322  12.677  0.00  0.00    +0.000 NA
ATOM     27  C   UNL     1      52.911   8.559  13.622  0.00  0.00    +0.000 A 
ATOM     28  N   UNL     1      52.122   7.785  14.435  0.00  0.00    +0.000 N 
ATOM     29  C   UNL     1      50.744   7.761  14.360  0.00  0.00    +0.000 A 
ATOM     30  O   UNL     1      50.097   7.129  15.185  0.00  0.00    +0.000 OA
ATOM     31  C   UNL     1      50.207   8.557  13.279  0.00  0.00    +0.000 A 
ATOM     32  H   UNL     1      52.524   7.237  15.182  0.00  0.00    +0.000 HD
ENDBRANCH  19  22
ENDBRANCH   2  18
TORSDOF 6
ENDMDL
MODEL 5
REMARK VINA RESULT:    -8.172      3.111      7.964
REMARK INTER + INTRA:         -11.045
REMARK INTER:                 -10.112
REMARK INTRA:                  -0.933
REMARK UNBOUND:                -0.245
REMARK  Name = 
REMARK  7 active torsions:
REMARK  status: ('A' for Active; 'I' for Inactive)
REMARK    1  A    between atoms: C_1  and  C_2
REMARK    2  A    between atoms: C_2  and  N_3
REMARK    3  A    between atoms: C_2  and  C_16
REMARK    4  A    between atoms: C_4  and  C_6
REMARK    5  A    between atoms: C_19  and  S_20
REMARK    6  A    between atoms: S_20  and  C_21
REMARK    7  A    between atoms: C_24  and  O_25
REMARK                            x       y       z     vdW  Elec       q    Type
REMARK                         _______ _______ _______ _____ _____    ______ ____
ROOT
ATOM      1  C   UNL     1      49.906   7.770  12.033  0.00  0.00    +0.000 C 
ATOM      2  C   UNL     1      48.632   7.439  12.806  0.00  0.00    +0.000 C 
ENDROOT
BRANCH   2   3
ATOM      3  C   UNL     1      48.942   6.955  14.208  0.00  0.00    +0.000 A 
ATOM      4  C   UNL     1      50.082   7.353  14.912  0.00  0.00    +0.000 A 
ATOM      5  C   UNL     1      50.324   6.851  16.190  0.00  0.00    +0.000 A 
ATOM      6  C   UNL     1      49.414   5.964  16.746  0.00  0.00    +0.000 A 
ATOM      7  N   UNL     1      48.282   5.586  16.111  0.00  0.00    +0.000 NA
ATOM      8  C   UNL     1      48.074   6.086  14.868  0.00  0.00    +0.000 A 
BRANCH   6   9
ATOM      9  S   UNL     1      49.701   5.311  18.380  0.00  0.00    +0.000 S 
BRANCH   9  10
ATOM     10  C   UNL     1      50.564   3.803  18.003  0.00  0.00    +0.000 A 
ATOM     11  C   UNL     1      51.921   3.641  18.284  0.00  0.00    +0.000 A 
ATOM     12  C   UNL     1      52.570   2.458  17.928  0.00  0.00    +0.000 A 
ATOM     13  C   UNL     1      51.831   1.474  17.294  0.00  0.00    +0.000 A 
ATOM     14  N   UNL     1      50.525   1.586  17.003  0.00  0.00    +0.000 NA
ATOM     15  C   UNL     1      49.924   2.749  17.357  0.00  0.00    +0.000 A 
BRANCH  13  16
ATOM     16  O   UNL     1      52.406   0.299  16.909  0.00  0.00    +0.000 OA
ATOM     17  H   UNL     1      53.361   0.375  17.047  0.00  0.00    +0.000 HD
ENDBRANCH  13  16
ENDBRANCH   9  10
ENDBRANCH   6   9
ENDBRANCH   2   3
BRANCH   2  18
ATOM     18  N   UNL     1      47.831   6.481  12.060  0.00  0.00    +0.000 N 
ATOM     19  C   UNL     1      46.530   6.741  11.691  0.00  0.00    +0.000 C 
ATOM     20  O   UNL     1      45.989   7.813  11.937  0.00  0.00    +0.000 OA
ATOM     21  H   UNL     1      48.183   5.550  11.857  0.00  0.00    +0.000 HD
BRANCH  19  22
ATOM     22  C   UNL     1      45.876   5.644  10.944  0.00  0.00    +0.000 A 
ATOM     23  N   UNL     1      46.010   5.616   9.603  0.00  0.00    +0.000 NA
ATOM     24  S   UNL     1      45.111   4.370   8.984  0.00  0.00    +0.000 S 
ATOM     25  C   UNL     1      44.524   3.808  10.479  0.00  0.00    +0.000 A 
ATOM     26  N   UNL     1      43.666   2.760  10.609  0.00  0.00    +0.000 NA
ATOM     27  C   UNL     1      43.330   2.511  11.832  0.00  0.00    +0.000 A 
ATOM     28  N   UNL     1      43.787   3.207  12.923  0.00  0.00    +0.000 N 
ATOM     29  C   UNL     1      44.698   4.240  12.841  0.00  0.00    +0.000 A 
ATOM     30  O   UNL     1      45.143   4.747  13.862  0.00  0.00    +0.000 OA
ATOM     31  C   UNL     1      45.059   4.589  11.486  0.00  0.00    +0.000 A 
ATOM     32  H   UNL     1      43.516   2.943  13.859  0.00  0.00    +0.000 HD
ENDBRANCH  19  22
ENDBRANCH   2  18
TORSDOF 6
ENDMDL
MODEL 6
REMARK VINA RESULT:    -7.948      2.885      4.623
REMARK INTER + INTRA:         -10.749
REMARK INTER:                  -9.743
REMARK INTRA:                  -1.006
REMARK UNBOUND:                -0.245
REMARK  Name = 
REMARK  7 active torsions:
REMARK  status: ('A' for Active; 'I' for Inactive)
REMARK    1  A    between atoms: C_1  and  C_2
REMARK    2  A    between atoms: C_2  and  N_3
REMARK    3  A    between atoms: C_2  and  C_16
REMARK    4  A    between atoms: C_4  and  C_6
REMARK    5  A    between atoms: C_19  and  S_20
REMARK    6  A    between atoms: S_20  and  C_21
REMARK    7  A    between atoms: C_24  and  O_25
REMARK                            x       y       z     vdW  Elec       q    Type
REMARK                         _______ _______ _______ _____ _____    ______ ____
ROOT
ATOM      1  C   UNL     1      47.469   4.736  15.195  0.00  0.00    +0.000 C 
ATOM      2  C   UNL     1      47.268   5.876  14.200  0.00  0.00    +0.000 C 
ENDROOT
BRANCH   2   3
ATOM      3  C   UNL     1      46.513   5.414  12.969  0.00  0.00    +0.000 A 
ATOM      4  C   UNL     1      46.420   6.182  11.806  0.00  0.00    +0.000 A 
ATOM      5  C   UNL     1      45.688   5.712  10.716  0.00  0.00    +0.000 A 
ATOM      6  C   UNL     1      45.068   4.474  10.807  0.00  0.00    +0.000 A 
ATOM      7  N   UNL     1      45.168   3.687  11.902  0.00  0.00    +0.000 NA
ATOM      8  C   UNL     1      45.881   4.171  12.948  0.00  0.00    +0.000 A 
BRANCH   6   9
ATOM      9  S   UNL     1      44.129   3.851   9.426  0.00  0.00    +0.000 S 
BRANCH   9  10
ATOM     10  C   UNL     1      45.413   3.118   8.438  0.00  0.00    +0.000 A 
ATOM     11  C   UNL     1      45.733   1.764   8.534  0.00  0.00    +0.000 A 
ATOM     12  C   UNL     1      46.780   1.240   7.775  0.00  0.00    +0.000 A 
ATOM     13  C   UNL     1      47.476   2.100   6.943  0.00  0.00    +0.000 A 
ATOM     14  N   UNL     1      47.204   3.409   6.819  0.00  0.00    +0.000 NA
ATOM     15  C   UNL     1      46.185   3.889   7.573  0.00  0.00    +0.000 A 
BRANCH  13  16
ATOM     16  O   UNL     1      48.517   1.655   6.182  0.00  0.00    +0.000 OA
ATOM     17  H   UNL     1      48.822   2.392   5.634  0.00  0.00    +0.000 HD
ENDBRANCH  13  16
ENDBRANCH   9  10
ENDBRANCH   6   9
ENDBRANCH   2   3
BRANCH   2  18
ATOM     18  N   UNL     1      48.549   6.477  13.864  0.00  0.00    +0.000 N 
ATOM     19  C   UNL     1      49.075   7.531  14.578  0.00  0.00    +0.000 C 
ATOM     20  O   UNL     1      48.510   7.993  15.561  0.00  0.00    +0.000 OA
ATOM     21  H   UNL     1      49.062   6.188  13.036  0.00  0.00    +0.000 HD
BRANCH  19  22
ATOM     22  C   UNL     1      50.384   8.011  14.082  0.00  0.00    +0.000 A 
ATOM     23  N   UNL     1      51.479   7.766  14.829  0.00  0.00    +0.000 NA
ATOM     24  S   UNL     1      52.797   8.485  14.130  0.00  0.00    +0.000 S 
ATOM     25  C   UNL     1      51.965   9.134  12.795  0.00  0.00    +0.000 A 
ATOM     26  N   UNL     1      52.555   9.893  11.833  0.00  0.00    +0.000 NA
ATOM     27  C   UNL     1      51.737  10.303  10.919  0.00  0.00    +0.000 A 
ATOM     28  N   UNL     1      50.398  10.007  10.883  0.00  0.00    +0.000 N 
ATOM     29  C   UNL     1      49.771   9.197  11.808  0.00  0.00    +0.000 A 
ATOM     30  O   UNL     1      48.596   8.889  11.655  0.00  0.00    +0.000 OA
ATOM     31  C   UNL     1      50.637   8.762  12.880  0.00  0.00    +0.000 A 
ATOM     32  H   UNL     1      49.815  10.326  10.122  0.00  0.00    +0.000 HD
ENDBRANCH  19  22
ENDBRANCH   2  18
TORSDOF 6
ENDMDL
MODEL 7
REMARK VINA RESULT:    -7.938      2.571      3.534
REMARK INTER + INTRA:         -10.735
REMARK INTER:                  -9.794
REMARK INTRA:                  -0.941
REMARK UNBOUND:                -0.245
REMARK  Name = 
REMARK  7 active torsions:
REMARK  status: ('A' for Active; 'I' for Inactive)
REMARK    1  A    between atoms: C_1  and  C_2
REMARK    2  A    between atoms: C_2  and  N_3
REMARK    3  A    between atoms: C_2  and  C_16
REMARK    4  A    between atoms: C_4  and  C_6
REMARK    5  A    between atoms: C_19  and  S_20
REMARK    6  A    between atoms: S_20  and  C_21
REMARK    7  A    between atoms: C_24  and  O_25
REMARK                            x       y       z     vdW  Elec       q    Type
REMARK                         _______ _______ _______ _____ _____    ______ ____
ROOT
ATOM      1  C   UNL     1      48.860   7.975  13.428  0.00  0.00    +0.000 C 
ATOM      2  C   UNL     1      48.467   6.639  14.054  0.00  0.00    +0.000 C 
ENDROOT
BRANCH   2   3
ATOM      3  C   UNL     1      47.344   5.973  13.285  0.00  0.00    +0.000 A 
ATOM      4  C   UNL     1      46.776   4.758  13.675  0.00  0.00    +0.000 A 
ATOM      5  C   UNL     1      45.762   4.183  12.909  0.00  0.00    +0.000 A 
ATOM      6  C   UNL     1      45.329   4.842  11.767  0.00  0.00    +0.000 A 
ATOM      7  N   UNL     1      45.828   6.037  11.379  0.00  0.00    +0.000 NA
ATOM      8  C   UNL     1      46.816   6.570  12.140  0.00  0.00    +0.000 A 
BRANCH   6   9
ATOM      9  S   UNL     1      44.032   4.128  10.774  0.00  0.00    +0.000 S 
BRANCH   9  10
ATOM     10  C   UNL     1      44.958   3.517   9.384  0.00  0.00    +0.000 A 
ATOM     11  C   UNL     1      45.266   2.164   9.242  0.00  0.00    +0.000 A 
ATOM     12  C   UNL     1      46.036   1.734   8.161  0.00  0.00    +0.000 A 
ATOM     13  C   UNL     1      46.477   2.685   7.256  0.00  0.00    +0.000 A 
ATOM     14  N   UNL     1      46.206   3.996   7.352  0.00  0.00    +0.000 NA
ATOM     15  C   UNL     1      45.461   4.383   8.417  0.00  0.00    +0.000 A 
BRANCH  13  16
ATOM     16  O   UNL     1      47.243   2.334   6.183  0.00  0.00    +0.000 OA
ATOM     17  H   UNL     1      46.669   1.899   5.536  0.00  0.00    +0.000 HD
ENDBRANCH  13  16
ENDBRANCH   9  10
ENDBRANCH   6   9
ENDBRANCH   2   3
BRANCH   2  18
ATOM     18  N   UNL     1      48.136   6.825  15.458  0.00  0.00    +0.000 N 
ATOM     19  C   UNL     1      48.915   6.312  16.471  0.00  0.00    +0.000 C 
ATOM     20  O   UNL     1      49.954   5.705  16.244  0.00  0.00    +0.000 OA
ATOM     21  H   UNL     1      47.267   7.274  15.736  0.00  0.00    +0.000 HD
BRANCH  19  22
ATOM     22  C   UNL     1      48.413   6.599  17.833  0.00  0.00    +0.000 A 
ATOM     23  N   UNL     1      48.159   5.559  18.652  0.00  0.00    +0.000 NA
ATOM     24  S   UNL     1      47.512   6.119  20.071  0.00  0.00    +0.000 S 
ATOM     25  C   UNL     1      47.562   7.768  19.657  0.00  0.00    +0.000 A 
ATOM     26  N   UNL     1      47.111   8.764  20.465  0.00  0.00    +0.000 NA
ATOM     27  C   UNL     1      47.224   9.945  19.949  0.00  0.00    +0.000 A 
ATOM     28  N   UNL     1      47.758  10.207  18.713  0.00  0.00    +0.000 N 
ATOM     29  C   UNL     1      48.275   9.233  17.884  0.00  0.00    +0.000 A 
ATOM     30  O   UNL     1      48.832   9.548  16.841  0.00  0.00    +0.000 OA
ATOM     31  C   UNL     1      48.119   7.891  18.398  0.00  0.00    +0.000 A 
ATOM     32  H   UNL     1      47.853  11.155  18.378  0.00  0.00    +0.000 HD
ENDBRANCH  19  22
ENDBRANCH   2  18
TORSDOF 6
ENDMDL
MODEL 8
REMARK VINA RESULT:    -7.894      2.765      8.293
REMARK INTER + INTRA:         -10.677
REMARK INTER:                  -9.922
REMARK INTRA:                  -0.755
REMARK UNBOUND:                -0.245
REMARK  Name = 
REMARK  7 active torsions:
REMARK  status: ('A' for Active; 'I' for Inactive)
REMARK    1  A    between atoms: C_1  and  C_2
REMARK    2  A    between atoms: C_2  and  N_3
REMARK    3  A    between atoms: C_2  and  C_16
REMARK    4  A    between atoms: C_4  and  C_6
REMARK    5  A    between atoms: C_19  and  S_20
REMARK    6  A    between atoms: S_20  and  C_21
REMARK    7  A    between atoms: C_24  and  O_25
REMARK                            x       y       z     vdW  Elec       q    Type
REMARK                         _______ _______ _______ _____ _____    ______ ____
ROOT
ATOM      1  C   UNL     1      48.804   7.539  11.669  0.00  0.00    +0.000 C 
ATOM      2  C   UNL     1      47.821   7.191  12.785  0.00  0.00    +0.000 C 
ENDROOT
BRANCH   2   3
ATOM      3  C   UNL     1      48.538   6.908  14.090  0.00  0.00    +0.000 A 
ATOM      4  C   UNL     1      49.784   7.457  14.403  0.00  0.00    +0.000 A 
ATOM      5  C   UNL     1      50.404   7.136  15.611  0.00  0.00    +0.000 A 
ATOM      6  C   UNL     1      49.760   6.275  16.488  0.00  0.00    +0.000 A 
ATOM      7  N   UNL     1      48.538   5.755  16.235  0.00  0.00    +0.000 NA
ATOM      8  C   UNL     1      47.961   6.080  15.052  0.00  0.00    +0.000 A 
BRANCH   6   9
ATOM      9  S   UNL     1      50.532   5.853  18.038  0.00  0.00    +0.000 S 
BRANCH   9  10
ATOM     10  C   UNL     1      50.971   4.154  17.754  0.00  0.00    +0.000 A 
ATOM     11  C   UNL     1      50.022   3.199  17.387  0.00  0.00    +0.000 A 
ATOM     12  C   UNL     1      50.402   1.867  17.221  0.00  0.00    +0.000 A 
ATOM     13  C   UNL     1      51.729   1.536  17.434  0.00  0.00    +0.000 A 
ATOM     14  N   UNL     1      52.676   2.419  17.788  0.00  0.00    +0.000 NA
ATOM     15  C   UNL     1      52.275   3.705  17.947  0.00  0.00    +0.000 A 
BRANCH  13  16
ATOM     16  O   UNL     1      52.164   0.250  17.300  0.00  0.00    +0.000 OA
ATOM     17  H   UNL     1      52.859   0.239  16.626  0.00  0.00    +0.000 HD
ENDBRANCH  13  16
ENDBRANCH   9  10
ENDBRANCH   6   9
ENDBRANCH   2   3
BRANCH   2  18
ATOM     18  N   UNL     1      46.972   6.084  12.374  0.00  0.00    +0.000 N 
ATOM     19  C   UNL     1      45.598   6.173  12.375  0.00  0.00    +0.000 C 
ATOM     20  O   UNL     1      45.016   7.206  12.684  0.00  0.00    +0.000 OA
ATOM     21  H   UNL     1      47.368   5.176  12.149  0.00  0.00    +0.000 HD
BRANCH  19  22
ATOM     22  C   UNL     1      44.905   4.943  11.931  0.00  0.00    +0.000 A 
ATOM     23  N   UNL     1      44.166   4.266  12.832  0.00  0.00    +0.000 NA
ATOM     24  S   UNL     1      43.581   2.880  12.138  0.00  0.00    +0.000 S 
ATOM     25  C   UNL     1      44.274   3.137  10.605  0.00  0.00    +0.000 A 
ATOM     26  N   UNL     1      44.154   2.268   9.566  0.00  0.00    +0.000 NA
ATOM     27  C   UNL     1      44.775   2.646   8.497  0.00  0.00    +0.000 A 
ATOM     28  N   UNL     1      45.486   3.815   8.380  0.00  0.00    +0.000 N 
ATOM     29  C   UNL     1      45.588   4.748   9.391  0.00  0.00    +0.000 A 
ATOM     30  O   UNL     1      46.148   5.817   9.183  0.00  0.00    +0.000 OA
ATOM     31  C   UNL     1      44.954   4.341  10.624  0.00  0.00    +0.000 A 
ATOM     32  H   UNL     1      45.920   4.074   7.506  0.00  0.00    +0.000 HD
ENDBRANCH  19  22
ENDBRANCH   2  18
TORSDOF 6
ENDMDL
MODEL 9
REMARK VINA RESULT:    -7.592      2.633      3.686
REMARK INTER + INTRA:         -10.277
REMARK INTER:                  -9.603
REMARK INTRA:                  -0.675
REMARK UNBOUND:                -0.245
REMARK  Name = 
REMARK  7 active torsions:
REMARK  status: ('A' for Active; 'I' for Inactive)
REMARK    1  A    between atoms: C_1  and  C_2
REMARK    2  A    between atoms: C_2  and  N_3
REMARK    3  A    between atoms: C_2  and  C_16
REMARK    4  A    between atoms: C_4  and  C_6
REMARK    5  A    between atoms: C_19  and  S_20
REMARK    6  A    between atoms: S_20  and  C_21
REMARK    7  A    between atoms: C_24  and  O_25
REMARK                            x       y       z     vdW  Elec       q    Type
REMARK                         _______ _______ _______ _____ _____    ______ ____
ROOT
ATOM      1  C   UNL     1      47.498   3.599  15.360  0.00  0.00    +0.000 C 
ATOM      2  C   UNL     1      47.113   4.964  14.795  0.00  0.00    +0.000 C 
ENDROOT
BRANCH   2   3
ATOM      3  C   UNL     1      46.392   4.833  13.468  0.00  0.00    +0.000 A 
ATOM      4  C   UNL     1      46.206   5.911  12.599  0.00  0.00    +0.000 A 
ATOM      5  C   UNL     1      45.510   5.732  11.404  0.00  0.00    +0.000 A 
ATOM      6  C   UNL     1      45.020   4.471  11.096  0.00  0.00    +0.000 A 
ATOM      7  N   UNL     1      45.214   3.397  11.893  0.00  0.00    +0.000 NA
ATOM      8  C   UNL     1      45.889   3.601  13.051  0.00  0.00    +0.000 A 
BRANCH   6   9
ATOM      9  S   UNL     1      44.130   4.217   9.572  0.00  0.00    +0.000 S 
BRANCH   9  10
ATOM     10  C   UNL     1      45.327   3.311   8.619  0.00  0.00    +0.000 A 
ATOM     11  C   UNL     1      45.458   1.926   8.725  0.00  0.00    +0.000 A 
ATOM     12  C   UNL     1      46.442   1.261   7.995  0.00  0.00    +0.000 A 
ATOM     13  C   UNL     1      47.271   2.014   7.181  0.00  0.00    +0.000 A 
ATOM     14  N   UNL     1      47.183   3.347   7.048  0.00  0.00    +0.000 NA
ATOM     15  C   UNL     1      46.220   3.965   7.775  0.00  0.00    +0.000 A 
BRANCH  13  16
ATOM     16  O   UNL     1      48.261   1.428   6.449  0.00  0.00    +0.000 OA
ATOM     17  H   UNL     1      47.928   1.292   5.550  0.00  0.00    +0.000 HD
ENDBRANCH  13  16
ENDBRANCH   9  10
ENDBRANCH   6   9
ENDBRANCH   2   3
BRANCH   2  18
ATOM     18  N   UNL     1      48.289   5.813  14.699  0.00  0.00    +0.000 N 
ATOM     19  C   UNL     1      48.781   6.513  15.779  0.00  0.00    +0.000 C 
ATOM     20  O   UNL     1      48.276   6.424  16.892  0.00  0.00    +0.000 OA
ATOM     21  H   UNL     1      48.742   5.983  13.805  0.00  0.00    +0.000 HD
BRANCH  19  22
ATOM     22  C   UNL     1      49.980   7.328  15.485  0.00  0.00    +0.000 A 
ATOM     23  N   UNL     1      49.825   8.455  14.763  0.00  0.00    +0.000 NA
ATOM     24  S   UNL     1      51.308   9.134  14.474  0.00  0.00    +0.000 S 
ATOM     25  C   UNL     1      52.213   7.965  15.317  0.00  0.00    +0.000 A 
ATOM     26  N   UNL     1      53.569   7.980  15.409  0.00  0.00    +0.000 NA
ATOM     27  C   UNL     1      54.057   6.987  16.077  0.00  0.00    +0.000 A 
ATOM     28  N   UNL     1      53.307   6.000  16.666  0.00  0.00    +0.000 N 
ATOM     29  C   UNL     1      51.927   5.975  16.642  0.00  0.00    +0.000 A 
ATOM     30  O   UNL     1      51.319   5.124  17.277  0.00  0.00    +0.000 OA
ATOM     31  C   UNL     1      51.341   7.038  15.857  0.00  0.00    +0.000 A 
ATOM     32  H   UNL     1      53.743   5.268  17.208  0.00  0.00    +0.000 HD
ENDBRANCH  19  22
ENDBRANCH   2  18
TORSDOF 6
ENDMDL
