MODEL 1
REMARK VINA RESULT:    -9.159      0.000      0.000
REMARK INTER + INTRA:         -11.762
REMARK INTER:                 -11.300
REMARK INTRA:                  -0.462
REMARK UNBOUND:                -0.462
REMARK  Name = 
REMARK  5 active torsions:
REMARK  status: ('A' for Active; 'I' for Inactive)
REMARK    1  A    between atoms: C_1  and  C_2
REMARK    2  A    between atoms: N_5  and  C_6
REMARK    3  A    between atoms: C_6  and  C_7
REMARK    4  A    between atoms: C_11  and  C_12
REMARK    5  A    between atoms: C_21  and  C_22
REMARK                            x       y       z     vdW  Elec       q    Type
REMARK                         _______ _______ _______ _____ _____    ______ ____
ROOT
ATOM      1  C   UNL     1      46.813   0.197   7.641  0.00  0.00    +0.000 C 
ATOM      2  C   UNL     1      46.248   1.545   7.993  0.00  0.00    +0.000 A 
ATOM      3  N   UNL     1      45.448   1.574   9.105  0.00  0.00    +0.000 NA
ATOM      4  C   UNL     1      44.934   2.747   9.522  0.00  0.00    +0.000 A 
ATOM      5  N   UNL     1      44.235   2.711  10.703  0.00  0.00    +0.000 N 
ATOM      6  C   UNL     1      45.179   3.917   8.823  0.00  0.00    +0.000 A 
ATOM      7  C   UNL     1      45.976   3.894   7.682  0.00  0.00    +0.000 A 
ATOM      8  C   UNL     1      46.526   2.692   7.243  0.00  0.00    +0.000 A 
ATOM      9  H   UNL     1      44.013   1.771  11.008  0.00  0.00    +0.000 HD
ENDROOT
BRANCH   8  10
ATOM     10  C   UNL     1      47.404   2.674   6.044  0.00  0.00    +0.000 C 
ATOM     11  N   UNL     1      48.748   2.498   6.257  0.00  0.00    +0.000 N 
ATOM     12  O   UNL     1      46.979   2.814   4.904  0.00  0.00    +0.000 OA
ATOM     13  H   UNL     1      49.184   2.552   7.162  0.00  0.00    +0.000 HD
ATOM     14  H   UNL     1      49.345   2.545   5.437  0.00  0.00    +0.000 HD
ENDBRANCH   8  10
BRANCH   5  15
ATOM     15  C   UNL     1      43.461   3.813  11.226  0.00  0.00    +0.000 C 
BRANCH  15  16
ATOM     16  C   UNL     1      44.365   4.882  11.791  0.00  0.00    +0.000 A 
ATOM     17  C   UNL     1      44.316   6.187  11.294  0.00  0.00    +0.000 A 
ATOM     18  C   UNL     1      45.186   7.154  11.787  0.00  0.00    +0.000 A 
ATOM     19  C   UNL     1      46.100   6.829  12.793  0.00  0.00    +0.000 A 
ATOM     20  C   UNL     1      46.167   5.532  13.335  0.00  0.00    +0.000 A 
ATOM     21  C   UNL     1      45.307   4.564  12.789  0.00  0.00    +0.000 A 
BRANCH  20  22
ATOM     22  C   UNL     1      47.061   5.219  14.470  0.00  0.00    +0.000 A 
ATOM     23  C   UNL     1      46.901   4.084  15.279  0.00  0.00    +0.000 A 
ATOM     24  C   UNL     1      47.740   3.866  16.373  0.00  0.00    +0.000 A 
ATOM     25  C   UNL     1      48.739   4.787  16.632  0.00  0.00    +0.000 A 
ATOM     26  N   UNL     1      48.946   5.888  15.885  0.00  0.00    +0.000 NA
ATOM     27  C   UNL     1      48.103   6.076  14.839  0.00  0.00    +0.000 A 
ENDBRANCH  20  22
ENDBRANCH  15  16
ENDBRANCH   5  15
TORSDOF 4
ENDMDL
MODEL 2
REMARK VINA RESULT:    -9.000      2.049      3.877
REMARK INTER + INTRA:         -11.566
REMARK INTER:                 -11.017
REMARK INTRA:                  -0.549
REMARK UNBOUND:                -0.462
REMARK  Name = 
REMARK  5 active torsions:
REMARK  status: ('A' for Active; 'I' for Inactive)
REMARK    1  A    between atoms: C_1  and  C_2
REMARK    2  A    between atoms: N_5  and  C_6
REMARK    3  A    between atoms: C_6  and  C_7
REMARK    4  A    between atoms: C_11  and  C_12
REMARK    5  A    between atoms: C_21  and  C_22
REMARK                            x       y       z     vdW  Elec       q    Type
REMARK                         _______ _______ _______ _____ _____    ______ ____
ROOT
ATOM      1  C   UNL     1      46.723   0.211   7.641  0.00  0.00    +0.000 C 
ATOM      2  C   UNL     1      46.208   1.576   8.000  0.00  0.00    +0.000 A 
ATOM      3  N   UNL     1      45.394   1.625   9.101  0.00  0.00    +0.000 NA
ATOM      4  C   UNL     1      44.921   2.813   9.524  0.00  0.00    +0.000 A 
ATOM      5  N   UNL     1      44.205   2.793  10.695  0.00  0.00    +0.000 N 
ATOM      6  C   UNL     1      45.222   3.980   8.842  0.00  0.00    +0.000 A 
ATOM      7  C   UNL     1      46.033   3.937   7.711  0.00  0.00    +0.000 A 
ATOM      8  C   UNL     1      46.541   2.718   7.266  0.00  0.00    +0.000 A 
ATOM      9  H   UNL     1      43.942   1.859  10.987  0.00  0.00    +0.000 HD
ENDROOT
BRANCH   8  10
ATOM     10  C   UNL     1      47.435   2.678   6.079  0.00  0.00    +0.000 C 
ATOM     11  N   UNL     1      48.774   2.486   6.311  0.00  0.00    +0.000 N 
ATOM     12  O   UNL     1      47.026   2.813   4.933  0.00  0.00    +0.000 OA
ATOM     13  H   UNL     1      49.198   2.543   7.221  0.00  0.00    +0.000 HD
ATOM     14  H   UNL     1      49.381   2.518   5.499  0.00  0.00    +0.000 HD
ENDBRANCH   8  10
BRANCH   5  15
ATOM     15  C   UNL     1      43.468   3.920  11.220  0.00  0.00    +0.000 C 
BRANCH  15  16
ATOM     16  C   UNL     1      44.405   4.935  11.828  0.00  0.00    +0.000 A 
ATOM     17  C   UNL     1      45.414   4.532  12.706  0.00  0.00    +0.000 A 
ATOM     18  C   UNL     1      46.242   5.480  13.299  0.00  0.00    +0.000 A 
ATOM     19  C   UNL     1      46.079   6.836  13.007  0.00  0.00    +0.000 A 
ATOM     20  C   UNL     1      45.089   7.283  12.112  0.00  0.00    +0.000 A 
ATOM     21  C   UNL     1      44.238   6.308  11.560  0.00  0.00    +0.000 A 
BRANCH  20  22
ATOM     22  C   UNL     1      44.987   8.705  11.724  0.00  0.00    +0.000 A 
ATOM     23  C   UNL     1      43.974   9.200  10.890  0.00  0.00    +0.000 A 
ATOM     24  C   UNL     1      43.958  10.542  10.510  0.00  0.00    +0.000 A 
ATOM     25  C   UNL     1      44.956  11.375  10.984  0.00  0.00    +0.000 A 
ATOM     26  N   UNL     1      45.947  10.959  11.796  0.00  0.00    +0.000 NA
ATOM     27  C   UNL     1      45.940   9.645  12.132  0.00  0.00    +0.000 A 
ENDBRANCH  20  22
ENDBRANCH  15  16
ENDBRANCH   5  15
TORSDOF 4
ENDMDL
MODEL 3
REMARK VINA RESULT:    -8.229      2.055      3.268
REMARK INTER + INTRA:         -10.616
REMARK INTER:                  -9.881
REMARK INTRA:                  -0.735
REMARK UNBOUND:                -0.462
REMARK  Name = 
REMARK  5 active torsions:
REMARK  status: ('A' for Active; 'I' for Inactive)
REMARK    1  A    between atoms: C_1  and  C_2
REMARK    2  A    between atoms: N_5  and  C_6
REMARK    3  A    between atoms: C_6  and  C_7
REMARK    4  A    between atoms: C_11  and  C_12
REMARK    5  A    between atoms: C_21  and  C_22
REMARK                            x       y       z     vdW  Elec       q    Type
REMARK                         _______ _______ _______ _____ _____    ______ ____
ROOT
ATOM      1  C   UNL     1      46.537   0.157   7.517  0.00  0.00    +0.000 C 
ATOM      2  C   UNL     1      46.226   1.552   7.982  0.00  0.00    +0.000 A 
ATOM      3  N   UNL     1      45.601   1.639   9.198  0.00  0.00    +0.000 NA
ATOM      4  C   UNL     1      45.324   2.851   9.716  0.00  0.00    +0.000 A 
ATOM      5  N   UNL     1      44.799   2.857  10.984  0.00  0.00    +0.000 N 
ATOM      6  C   UNL     1      45.634   4.008   9.020  0.00  0.00    +0.000 A 
ATOM      7  C   UNL     1      46.252   3.928   7.775  0.00  0.00    +0.000 A 
ATOM      8  C   UNL     1      46.557   2.683   7.230  0.00  0.00    +0.000 A 
ATOM      9  H   UNL     1      44.489   1.943  11.293  0.00  0.00    +0.000 HD
ENDROOT
BRANCH   8  10
ATOM     10  C   UNL     1      47.249   2.600   5.917  0.00  0.00    +0.000 C 
ATOM     11  N   UNL     1      48.613   2.458   5.936  0.00  0.00    +0.000 N 
ATOM     12  O   UNL     1      46.655   2.659   4.847  0.00  0.00    +0.000 OA
ATOM     13  H   UNL     1      49.177   2.578   6.761  0.00  0.00    +0.000 HD
ATOM     14  H   UNL     1      49.080   2.460   5.035  0.00  0.00    +0.000 HD
ENDBRANCH   8  10
BRANCH   5  15
ATOM     15  C   UNL     1      44.271   4.030  11.643  0.00  0.00    +0.000 C 
BRANCH  15  16
ATOM     16  C   UNL     1      45.351   4.734  12.429  0.00  0.00    +0.000 A 
ATOM     17  C   UNL     1      45.892   4.144  13.574  0.00  0.00    +0.000 A 
ATOM     18  C   UNL     1      46.852   4.821  14.319  0.00  0.00    +0.000 A 
ATOM     19  C   UNL     1      47.292   6.084  13.918  0.00  0.00    +0.000 A 
ATOM     20  C   UNL     1      46.787   6.705  12.759  0.00  0.00    +0.000 A 
ATOM     21  C   UNL     1      45.787   6.018  12.049  0.00  0.00    +0.000 A 
BRANCH  20  22
ATOM     22  C   UNL     1      47.329   7.994  12.280  0.00  0.00    +0.000 A 
ATOM     23  C   UNL     1      48.621   8.131  11.751  0.00  0.00    +0.000 A 
ATOM     24  C   UNL     1      49.102   9.383  11.365  0.00  0.00    +0.000 A 
ATOM     25  C   UNL     1      48.272  10.481  11.505  0.00  0.00    +0.000 A 
ATOM     26  N   UNL     1      47.020  10.408  11.995  0.00  0.00    +0.000 NA
ATOM     27  C   UNL     1      46.591   9.179  12.374  0.00  0.00    +0.000 A 
ENDBRANCH  20  22
ENDBRANCH  15  16
ENDBRANCH   5  15
TORSDOF 4
ENDMDL
MODEL 4
REMARK VINA RESULT:    -8.164      2.207      3.444
REMARK INTER + INTRA:         -10.535
REMARK INTER:                 -10.303
REMARK INTRA:                  -0.232
REMARK UNBOUND:                -0.462
REMARK  Name = 
REMARK  5 active torsions:
REMARK  status: ('A' for Active; 'I' for Inactive)
REMARK    1  A    between atoms: C_1  and  C_2
REMARK    2  A    between atoms: N_5  and  C_6
REMARK    3  A    between atoms: C_6  and  C_7
REMARK    4  A    between atoms: C_11  and  C_12
REMARK    5  A    between atoms: C_21  and  C_22
REMARK                            x       y       z     vdW  Elec       q    Type
REMARK                         _______ _______ _______ _____ _____    ______ ____
ROOT
ATOM      1  C   UNL     1      46.500   3.435   5.821  0.00  0.00    +0.000 C 
ATOM      2  C   UNL     1      46.007   3.162   7.214  0.00  0.00    +0.000 A 
ATOM      3  N   UNL     1      45.279   4.172   7.787  0.00  0.00    +0.000 NA
ATOM      4  C   UNL     1      44.759   3.999   9.017  0.00  0.00    +0.000 A 
ATOM      5  N   UNL     1      43.951   5.010   9.476  0.00  0.00    +0.000 N 
ATOM      6  C   UNL     1      44.976   2.826   9.721  0.00  0.00    +0.000 A 
ATOM      7  C   UNL     1      45.730   1.802   9.154  0.00  0.00    +0.000 A 
ATOM      8  C   UNL     1      46.267   1.959   7.878  0.00  0.00    +0.000 A 
ATOM      9  H   UNL     1      44.015   5.855   8.921  0.00  0.00    +0.000 HD
ENDROOT
BRANCH   8  10
ATOM     10  C   UNL     1      47.042   0.852   7.260  0.00  0.00    +0.000 C 
ATOM     11  N   UNL     1      46.685  -0.428   7.601  0.00  0.00    +0.000 N 
ATOM     12  O   UNL     1      47.968   1.041   6.481  0.00  0.00    +0.000 OA
ATOM     13  H   UNL     1      46.061  -0.652   8.358  0.00  0.00    +0.000 HD
ATOM     14  H   UNL     1      47.257  -1.174   7.219  0.00  0.00    +0.000 HD
ENDBRANCH   8  10
BRANCH   5  15
ATOM     15  C   UNL     1      43.445   5.100  10.826  0.00  0.00    +0.000 C 
BRANCH  15  16
ATOM     16  C   UNL     1      44.569   5.338  11.805  0.00  0.00    +0.000 A 
ATOM     17  C   UNL     1      44.715   4.521  12.929  0.00  0.00    +0.000 A 
ATOM     18  C   UNL     1      45.725   4.777  13.850  0.00  0.00    +0.000 A 
ATOM     19  C   UNL     1      46.607   5.841  13.648  0.00  0.00    +0.000 A 
ATOM     20  C   UNL     1      46.508   6.675  12.519  0.00  0.00    +0.000 A 
ATOM     21  C   UNL     1      45.452   6.420  11.626  0.00  0.00    +0.000 A 
BRANCH  20  22
ATOM     22  C   UNL     1      47.506   7.733  12.254  0.00  0.00    +0.000 A 
ATOM     23  C   UNL     1      47.168   9.090  12.138  0.00  0.00    +0.000 A 
ATOM     24  C   UNL     1      48.142  10.041  11.831  0.00  0.00    +0.000 A 
ATOM     25  C   UNL     1      49.447   9.616  11.657  0.00  0.00    +0.000 A 
ATOM     26  N   UNL     1      49.831   8.330  11.767  0.00  0.00    +0.000 NA
ATOM     27  C   UNL     1      48.856   7.431  12.051  0.00  0.00    +0.000 A 
ENDBRANCH  20  22
ENDBRANCH  15  16
ENDBRANCH   5  15
TORSDOF 4
ENDMDL
MODEL 5
REMARK VINA RESULT:    -7.973      1.411      1.829
REMARK INTER + INTRA:         -10.299
REMARK INTER:                  -9.859
REMARK INTRA:                  -0.440
REMARK UNBOUND:                -0.462
REMARK  Name = 
REMARK  5 active torsions:
REMARK  status: ('A' for Active; 'I' for Inactive)
REMARK    1  A    between atoms: C_1  and  C_2
REMARK    2  A    between atoms: N_5  and  C_6
REMARK    3  A    between atoms: C_6  and  C_7
REMARK    4  A    between atoms: C_11  and  C_12
REMARK    5  A    between atoms: C_21  and  C_22
REMARK                            x       y       z     vdW  Elec       q    Type
REMARK                         _______ _______ _______ _____ _____    ______ ____
ROOT
ATOM      1  C   UNL     1      46.470   3.366   5.799  0.00  0.00    +0.000 C 
ATOM      2  C   UNL     1      45.999   3.139   7.208  0.00  0.00    +0.000 A 
ATOM      3  N   UNL     1      45.269   4.162   7.754  0.00  0.00    +0.000 NA
ATOM      4  C   UNL     1      44.767   4.028   8.996  0.00  0.00    +0.000 A 
ATOM      5  N   UNL     1      43.956   5.048   9.429  0.00  0.00    +0.000 N 
ATOM      6  C   UNL     1      45.005   2.884   9.738  0.00  0.00    +0.000 A 
ATOM      7  C   UNL     1      45.761   1.847   9.198  0.00  0.00    +0.000 A 
ATOM      8  C   UNL     1      46.279   1.963   7.910  0.00  0.00    +0.000 A 
ATOM      9  H   UNL     1      44.004   5.873   8.844  0.00  0.00    +0.000 HD
ENDROOT
BRANCH   8  10
ATOM     10  C   UNL     1      47.056   0.842   7.321  0.00  0.00    +0.000 C 
ATOM     11  N   UNL     1      46.642  -0.432   7.622  0.00  0.00    +0.000 N 
ATOM     12  O   UNL     1      48.032   1.013   6.601  0.00  0.00    +0.000 OA
ATOM     13  H   UNL     1      45.968  -0.647   8.337  0.00  0.00    +0.000 HD
ATOM     14  H   UNL     1      47.214  -1.189   7.262  0.00  0.00    +0.000 HD
ENDBRANCH   8  10
BRANCH   5  15
ATOM     15  C   UNL     1      43.467   5.181  10.783  0.00  0.00    +0.000 C 
BRANCH  15  16
ATOM     16  C   UNL     1      44.395   6.042  11.605  0.00  0.00    +0.000 A 
ATOM     17  C   UNL     1      44.420   7.428  11.427  0.00  0.00    +0.000 A 
ATOM     18  C   UNL     1      45.312   8.208  12.155  0.00  0.00    +0.000 A 
ATOM     19  C   UNL     1      46.174   7.613  13.079  0.00  0.00    +0.000 A 
ATOM     20  C   UNL     1      46.166   6.224  13.304  0.00  0.00    +0.000 A 
ATOM     21  C   UNL     1      45.285   5.454  12.524  0.00  0.00    +0.000 A 
BRANCH  20  22
ATOM     22  C   UNL     1      47.004   5.610  14.356  0.00  0.00    +0.000 A 
ATOM     23  C   UNL     1      46.715   4.365  14.934  0.00  0.00    +0.000 A 
ATOM     24  C   UNL     1      47.509   3.858  15.964  0.00  0.00    +0.000 A 
ATOM     25  C   UNL     1      48.592   4.605  16.391  0.00  0.00    +0.000 A 
ATOM     26  N   UNL     1      48.923   5.801  15.867  0.00  0.00    +0.000 NA
ATOM     27  C   UNL     1      48.122   6.270  14.879  0.00  0.00    +0.000 A 
ENDBRANCH  20  22
ENDBRANCH  15  16
ENDBRANCH   5  15
TORSDOF 4
ENDMDL
MODEL 6
REMARK VINA RESULT:    -7.755      3.192      7.247
REMARK INTER + INTRA:         -10.030
REMARK INTER:                  -9.233
REMARK INTRA:                  -0.797
REMARK UNBOUND:                -0.462
REMARK  Name = 
REMARK  5 active torsions:
REMARK  status: ('A' for Active; 'I' for Inactive)
REMARK    1  A    between atoms: C_1  and  C_2
REMARK    2  A    between atoms: N_5  and  C_6
REMARK    3  A    between atoms: C_6  and  C_7
REMARK    4  A    between atoms: C_11  and  C_12
REMARK    5  A    between atoms: C_21  and  C_22
REMARK                            x       y       z     vdW  Elec       q    Type
REMARK                         _______ _______ _______ _____ _____    ______ ____
ROOT
ATOM      1  C   UNL     1      49.777   6.951  15.122  0.00  0.00    +0.000 C 
ATOM      2  C   UNL     1      48.926   7.205  13.909  0.00  0.00    +0.000 A 
ATOM      3  N   UNL     1      47.643   6.729  13.983  0.00  0.00    +0.000 NA
ATOM      4  C   UNL     1      46.795   6.949  12.961  0.00  0.00    +0.000 A 
ATOM      5  N   UNL     1      45.499   6.539  13.156  0.00  0.00    +0.000 N 
ATOM      6  C   UNL     1      47.212   7.623  11.825  0.00  0.00    +0.000 A 
ATOM      7  C   UNL     1      48.519   8.094  11.734  0.00  0.00    +0.000 A 
ATOM      8  C   UNL     1      49.407   7.885  12.787  0.00  0.00    +0.000 A 
ATOM      9  H   UNL     1      45.389   5.933  13.960  0.00  0.00    +0.000 HD
ENDROOT
BRANCH   8  10
ATOM     10  C   UNL     1      50.791   8.419  12.703  0.00  0.00    +0.000 C 
ATOM     11  N   UNL     1      51.694   7.703  11.958  0.00  0.00    +0.000 N 
ATOM     12  O   UNL     1      51.144   9.447  13.267  0.00  0.00    +0.000 OA
ATOM     13  H   UNL     1      51.524   6.771  11.617  0.00  0.00    +0.000 HD
ATOM     14  H   UNL     1      52.649   8.045  11.954  0.00  0.00    +0.000 HD
ENDBRANCH   8  10
BRANCH   5  15
ATOM     15  C   UNL     1      44.486   6.521  12.126  0.00  0.00    +0.000 C 
BRANCH  15  16
ATOM     16  C   UNL     1      44.313   5.129  11.568  0.00  0.00    +0.000 A 
ATOM     17  C   UNL     1      43.446   4.222  12.183  0.00  0.00    +0.000 A 
ATOM     18  C   UNL     1      43.329   2.926  11.690  0.00  0.00    +0.000 A 
ATOM     19  C   UNL     1      44.065   2.531  10.570  0.00  0.00    +0.000 A 
ATOM     20  C   UNL     1      44.933   3.420   9.909  0.00  0.00    +0.000 A 
ATOM     21  C   UNL     1      45.065   4.710  10.454  0.00  0.00    +0.000 A 
BRANCH  20  22
ATOM     22  C   UNL     1      45.630   3.032   8.664  0.00  0.00    +0.000 A 
ATOM     23  C   UNL     1      46.055   1.721   8.404  0.00  0.00    +0.000 A 
ATOM     24  C   UNL     1      46.759   1.421   7.237  0.00  0.00    +0.000 A 
ATOM     25  C   UNL     1      47.015   2.442   6.339  0.00  0.00    +0.000 A 
ATOM     26  N   UNL     1      46.622   3.716   6.531  0.00  0.00    +0.000 NA
ATOM     27  C   UNL     1      45.954   3.974   7.683  0.00  0.00    +0.000 A 
ENDBRANCH  20  22
ENDBRANCH  15  16
ENDBRANCH   5  15
TORSDOF 4
ENDMDL
MODEL 7
REMARK VINA RESULT:    -7.755      2.774      7.772
REMARK INTER + INTRA:         -10.030
REMARK INTER:                  -9.616
REMARK INTRA:                  -0.414
REMARK UNBOUND:                -0.462
REMARK  Name = 
REMARK  5 active torsions:
REMARK  status: ('A' for Active; 'I' for Inactive)
REMARK    1  A    between atoms: C_1  and  C_2
REMARK    2  A    between atoms: N_5  and  C_6
REMARK    3  A    between atoms: C_6  and  C_7
REMARK    4  A    between atoms: C_11  and  C_12
REMARK    5  A    between atoms: C_21  and  C_22
REMARK                            x       y       z     vdW  Elec       q    Type
REMARK                         _______ _______ _______ _____ _____    ______ ____
ROOT
ATOM      1  C   UNL     1      49.202   7.158  14.433  0.00  0.00    +0.000 C 
ATOM      2  C   UNL     1      47.941   6.408  14.105  0.00  0.00    +0.000 A 
ATOM      3  N   UNL     1      47.302   6.808  12.961  0.00  0.00    +0.000 NA
ATOM      4  C   UNL     1      46.188   6.164  12.564  0.00  0.00    +0.000 A 
ATOM      5  N   UNL     1      45.669   6.551  11.353  0.00  0.00    +0.000 N 
ATOM      6  C   UNL     1      45.665   5.123  13.313  0.00  0.00    +0.000 A 
ATOM      7  C   UNL     1      46.298   4.723  14.487  0.00  0.00    +0.000 A 
ATOM      8  C   UNL     1      47.458   5.370  14.907  0.00  0.00    +0.000 A 
ATOM      9  H   UNL     1      46.066   7.415  11.006  0.00  0.00    +0.000 HD
ENDROOT
BRANCH   8  10
ATOM     10  C   UNL     1      48.151   4.919  16.141  0.00  0.00    +0.000 C 
ATOM     11  N   UNL     1      48.091   5.748  17.232  0.00  0.00    +0.000 N 
ATOM     12  O   UNL     1      48.764   3.860  16.211  0.00  0.00    +0.000 OA
ATOM     13  H   UNL     1      47.760   6.698  17.196  0.00  0.00    +0.000 HD
ATOM     14  H   UNL     1      48.615   5.457  18.051  0.00  0.00    +0.000 HD
ENDBRANCH   8  10
BRANCH   5  15
ATOM     15  C   UNL     1      44.393   6.113  10.836  0.00  0.00    +0.000 C 
BRANCH  15  16
ATOM     16  C   UNL     1      44.478   4.694  10.330  0.00  0.00    +0.000 A 
ATOM     17  C   UNL     1      43.725   3.681  10.929  0.00  0.00    +0.000 A 
ATOM     18  C   UNL     1      43.846   2.368  10.487  0.00  0.00    +0.000 A 
ATOM     19  C   UNL     1      44.707   2.058   9.432  0.00  0.00    +0.000 A 
ATOM     20  C   UNL     1      45.468   3.051   8.787  0.00  0.00    +0.000 A 
ATOM     21  C   UNL     1      45.359   4.363   9.282  0.00  0.00    +0.000 A 
BRANCH  20  22
ATOM     22  C   UNL     1      46.297   2.738   7.604  0.00  0.00    +0.000 A 
ATOM     23  C   UNL     1      46.335   3.548   6.460  0.00  0.00    +0.000 A 
ATOM     24  C   UNL     1      47.092   3.175   5.349  0.00  0.00    +0.000 A 
ATOM     25  C   UNL     1      47.814   1.997   5.407  0.00  0.00    +0.000 A 
ATOM     26  N   UNL     1      47.825   1.185   6.482  0.00  0.00    +0.000 NA
ATOM     27  C   UNL     1      47.065   1.570   7.538  0.00  0.00    +0.000 A 
ENDBRANCH  20  22
ENDBRANCH  15  16
ENDBRANCH   5  15
TORSDOF 4
ENDMDL
MODEL 8
REMARK VINA RESULT:    -7.594      3.639      8.520
REMARK INTER + INTRA:          -9.831
REMARK INTER:                  -9.321
REMARK INTRA:                  -0.511
REMARK UNBOUND:                -0.462
REMARK  Name = 
REMARK  5 active torsions:
REMARK  status: ('A' for Active; 'I' for Inactive)
REMARK    1  A    between atoms: C_1  and  C_2
REMARK    2  A    between atoms: N_5  and  C_6
REMARK    3  A    between atoms: C_6  and  C_7
REMARK    4  A    between atoms: C_11  and  C_12
REMARK    5  A    between atoms: C_21  and  C_22
REMARK                            x       y       z     vdW  Elec       q    Type
REMARK                         _______ _______ _______ _____ _____    ______ ____
ROOT
ATOM      1  C   UNL     1      49.980   1.884  17.266  0.00  0.00    +0.000 C 
ATOM      2  C   UNL     1      48.997   2.976  16.949  0.00  0.00    +0.000 A 
ATOM      3  N   UNL     1      48.387   2.880  15.726  0.00  0.00    +0.000 NA
ATOM      4  C   UNL     1      47.458   3.789  15.375  0.00  0.00    +0.000 A 
ATOM      5  N   UNL     1      46.815   3.562  14.183  0.00  0.00    +0.000 N 
ATOM      6  C   UNL     1      47.134   4.836  16.222  0.00  0.00    +0.000 A 
ATOM      7  C   UNL     1      47.762   4.952  17.459  0.00  0.00    +0.000 A 
ATOM      8  C   UNL     1      48.717   4.014  17.844  0.00  0.00    +0.000 A 
ATOM      9  H   UNL     1      47.265   2.854  13.615  0.00  0.00    +0.000 HD
ENDROOT
BRANCH   8  10
ATOM     10  C   UNL     1      49.361   4.119  19.179  0.00  0.00    +0.000 C 
ATOM     11  N   UNL     1      48.608   3.756  20.267  0.00  0.00    +0.000 N 
ATOM     12  O   UNL     1      50.510   4.514  19.335  0.00  0.00    +0.000 OA
ATOM     13  H   UNL     1      47.616   3.593  20.232  0.00  0.00    +0.000 HD
ATOM     14  H   UNL     1      49.038   3.886  21.177  0.00  0.00    +0.000 HD
ENDBRANCH   8  10
BRANCH   5  15
ATOM     15  C   UNL     1      45.922   4.503  13.547  0.00  0.00    +0.000 C 
BRANCH  15  16
ATOM     16  C   UNL     1      45.150   3.838  12.433  0.00  0.00    +0.000 A 
ATOM     17  C   UNL     1      43.839   3.401  12.642  0.00  0.00    +0.000 A 
ATOM     18  C   UNL     1      43.152   2.747  11.624  0.00  0.00    +0.000 A 
ATOM     19  C   UNL     1      43.761   2.540  10.385  0.00  0.00    +0.000 A 
ATOM     20  C   UNL     1      45.072   2.983  10.126  0.00  0.00    +0.000 A 
ATOM     21  C   UNL     1      45.759   3.602  11.185  0.00  0.00    +0.000 A 
BRANCH  20  22
ATOM     22  C   UNL     1      45.676   2.856   8.783  0.00  0.00    +0.000 A 
ATOM     23  C   UNL     1      46.170   1.644   8.279  0.00  0.00    +0.000 A 
ATOM     24  C   UNL     1      46.782   1.592   7.026  0.00  0.00    +0.000 A 
ATOM     25  C   UNL     1      46.879   2.759   6.289  0.00  0.00    +0.000 A 
ATOM     26  N   UNL     1      46.413   3.948   6.717  0.00  0.00    +0.000 NA
ATOM     27  C   UNL     1      45.838   3.964   7.945  0.00  0.00    +0.000 A 
ENDBRANCH  20  22
ENDBRANCH  15  16
ENDBRANCH   5  15
TORSDOF 4
ENDMDL
MODEL 9
REMARK VINA RESULT:    -7.063      3.216      7.112
REMARK INTER + INTRA:          -9.176
REMARK INTER:                  -8.477
REMARK INTRA:                  -0.699
REMARK UNBOUND:                -0.462
REMARK  Name = 
REMARK  5 active torsions:
REMARK  status: ('A' for Active; 'I' for Inactive)
REMARK    1  A    between atoms: C_1  and  C_2
REMARK    2  A    between atoms: N_5  and  C_6
REMARK    3  A    between atoms: C_6  and  C_7
REMARK    4  A    between atoms: C_11  and  C_12
REMARK    5  A    between atoms: C_21  and  C_22
REMARK                            x       y       z     vdW  Elec       q    Type
REMARK                         _______ _______ _______ _____ _____    ______ ____
ROOT
ATOM      1  C   UNL     1      50.567   8.112  11.808  0.00  0.00    +0.000 C 
ATOM      2  C   UNL     1      49.141   8.006  12.270  0.00  0.00    +0.000 A 
ATOM      3  N   UNL     1      48.753   6.763  12.694  0.00  0.00    +0.000 NA
ATOM      4  C   UNL     1      47.505   6.583  13.168  0.00  0.00    +0.000 A 
ATOM      5  N   UNL     1      47.228   5.338  13.675  0.00  0.00    +0.000 N 
ATOM      6  C   UNL     1      46.601   7.632  13.203  0.00  0.00    +0.000 A 
ATOM      7  C   UNL     1      46.982   8.895  12.757  0.00  0.00    +0.000 A 
ATOM      8  C   UNL     1      48.272   9.102  12.275  0.00  0.00    +0.000 A 
ATOM      9  H   UNL     1      47.928   4.645  13.439  0.00  0.00    +0.000 HD
ENDROOT
BRANCH   8  10
ATOM     10  C   UNL     1      48.688  10.458  11.832  0.00  0.00    +0.000 C 
ATOM     11  N   UNL     1      49.104  11.333  12.803  0.00  0.00    +0.000 N 
ATOM     12  O   UNL     1      48.666  10.812  10.659  0.00  0.00    +0.000 OA
ATOM     13  H   UNL     1      48.983  11.174  13.789  0.00  0.00    +0.000 HD
ATOM     14  H   UNL     1      49.330  12.274  12.497  0.00  0.00    +0.000 HD
ENDBRANCH   8  10
BRANCH   5  15
ATOM     15  C   UNL     1      45.910   4.890  14.063  0.00  0.00    +0.000 C 
BRANCH  15  16
ATOM     16  C   UNL     1      45.024   4.717  12.853  0.00  0.00    +0.000 A 
ATOM     17  C   UNL     1      43.671   5.061  12.910  0.00  0.00    +0.000 A 
ATOM     18  C   UNL     1      42.852   4.853  11.805  0.00  0.00    +0.000 A 
ATOM     19  C   UNL     1      43.381   4.317  10.629  0.00  0.00    +0.000 A 
ATOM     20  C   UNL     1      44.743   3.977  10.523  0.00  0.00    +0.000 A 
ATOM     21  C   UNL     1      45.539   4.157  11.668  0.00  0.00    +0.000 A 
BRANCH  20  22
ATOM     22  C   UNL     1      45.322   3.509   9.246  0.00  0.00    +0.000 A 
ATOM     23  C   UNL     1      45.573   2.157   8.971  0.00  0.00    +0.000 A 
ATOM     24  C   UNL     1      46.174   1.775   7.771  0.00  0.00    +0.000 A 
ATOM     25  C   UNL     1      46.503   2.758   6.855  0.00  0.00    +0.000 A 
ATOM     26  N   UNL     1      46.275   4.070   7.059  0.00  0.00    +0.000 NA
ATOM     27  C   UNL     1      45.704   4.406   8.243  0.00  0.00    +0.000 A 
ENDBRANCH  20  22
ENDBRANCH  15  16
ENDBRANCH   5  15
TORSDOF 4
ENDMDL
