MODEL 1
REMARK VINA RESULT:    -9.651      0.000      0.000
REMARK INTER + INTRA:         -13.900
REMARK INTER:                 -13.036
REMARK INTRA:                  -0.865
REMARK UNBOUND:                -0.865
REMARK  Name = 
REMARK  6 active torsions:
REMARK  status: ('A' for Active; 'I' for Inactive)
REMARK    1  A    between atoms: C_2  and  C_4
REMARK    2  A    between atoms: N_8  and  C_9
REMARK    3  A    between atoms: C_9  and  C_10
REMARK    4  A    between atoms: C_10  and  C_13
REMARK    5  A    between atoms: C_18  and  O_19
REMARK    6  A    between atoms: O_19  and  C_20
REMARK                            x       y       z     vdW  Elec       q    Type
REMARK                         _______ _______ _______ _____ _____    ______ ____
ROOT
ATOM      1  C   UNL     1      43.456   5.563  12.112  0.00  0.00    +0.000 C 
ATOM      2  F   UNL     1      42.999   6.725  11.555  0.00  0.00    +0.000 F 
ATOM      3  F   UNL     1      42.687   5.373  13.227  0.00  0.00    +0.000 F 
ENDROOT
BRANCH   1   4
ATOM      4  C   UNL     1      44.928   5.650  12.478  0.00  0.00    +0.000 A 
ATOM      5  C   UNL     1      45.750   6.633  11.910  0.00  0.00    +0.000 A 
ATOM      6  C   UNL     1      47.093   6.701  12.267  0.00  0.00    +0.000 A 
ATOM      7  F   UNL     1      47.872   7.640  11.716  0.00  0.00    +0.000 F 
ATOM      8  C   UNL     1      47.639   5.814  13.189  0.00  0.00    +0.000 A 
ATOM      9  C   UNL     1      46.829   4.844  13.774  0.00  0.00    +0.000 A 
ATOM     10  C   UNL     1      45.484   4.747  13.406  0.00  0.00    +0.000 A 
BRANCH   9  11
ATOM     11  O   UNL     1      47.449   4.021  14.681  0.00  0.00    +0.000 OA
BRANCH  11  12
ATOM     12  C   UNL     1      47.305   4.310  16.092  0.00  0.00    +0.000 C 
ATOM     13  C   UNL     1      48.471   4.997  16.815  0.00  0.00    +0.000 C 
ATOM     14  O   UNL     1      48.597   3.911  17.761  0.00  0.00    +0.000 OA
ATOM     15  C   UNL     1      47.606   3.143  17.042  0.00  0.00    +0.000 C 
ENDBRANCH  11  12
ENDBRANCH   9  11
ENDBRANCH   1   4
BRANCH   1  16
ATOM     16  C   UNL     1      43.183   4.407  11.112  0.00  0.00    +0.000 C 
BRANCH  16  21
ATOM     17  C   UNL     1      46.484   2.495   7.693  0.00  0.00    +0.000 A 
ATOM     18  C   UNL     1      45.656   1.826   8.590  0.00  0.00    +0.000 A 
ATOM     19  C   UNL     1      44.720   2.556   9.324  0.00  0.00    +0.000 A 
ATOM     20  C   UNL     1      44.634   3.935   9.158  0.00  0.00    +0.000 A 
ATOM     21  N   UNL     1      43.661   4.708   9.757  0.00  0.00    +0.000 N 
ATOM     22  N   UNL     1      45.458   4.594   8.324  0.00  0.00    +0.000 NA
ATOM     23  C   UNL     1      46.369   3.873   7.616  0.00  0.00    +0.000 A 
ATOM     24  H   UNL     1      43.870   5.689   9.571  0.00  0.00    +0.000 HD
BRANCH  17  26
ATOM     25  N   UNL     1      48.545   2.521   6.412  0.00  0.00    +0.000 N 
ATOM     26  C   UNL     1      47.462   1.799   6.832  0.00  0.00    +0.000 C 
ATOM     27  O   UNL     1      47.333   0.619   6.539  0.00  0.00    +0.000 OA
ATOM     28  H   UNL     1      49.267   2.004   5.927  0.00  0.00    +0.000 HD
ATOM     29  H   UNL     1      48.816   3.392   6.850  0.00  0.00    +0.000 HD
ENDBRANCH  17  26
ENDBRANCH  16  21
ENDBRANCH   1  16
TORSDOF 6
ENDMDL
MODEL 2
REMARK VINA RESULT:    -9.054      2.107      3.276
REMARK INTER + INTRA:         -13.094
REMARK INTER:                 -12.133
REMARK INTRA:                  -0.961
REMARK UNBOUND:                -0.865
REMARK  Name = 
REMARK  6 active torsions:
REMARK  status: ('A' for Active; 'I' for Inactive)
REMARK    1  A    between atoms: C_2  and  C_4
REMARK    2  A    between atoms: N_8  and  C_9
REMARK    3  A    between atoms: C_9  and  C_10
REMARK    4  A    between atoms: C_10  and  C_13
REMARK    5  A    between atoms: C_18  and  O_19
REMARK    6  A    between atoms: O_19  and  C_20
REMARK                            x       y       z     vdW  Elec       q    Type
REMARK                         _______ _______ _______ _____ _____    ______ ____
ROOT
ATOM      1  C   UNL     1      43.441   5.620  12.093  0.00  0.00    +0.000 C 
ATOM      2  F   UNL     1      43.137   6.794  11.461  0.00  0.00    +0.000 F 
ATOM      3  F   UNL     1      42.536   5.517  13.112  0.00  0.00    +0.000 F 
ENDROOT
BRANCH   1   4
ATOM      4  C   UNL     1      44.862   5.615  12.627  0.00  0.00    +0.000 A 
ATOM      5  C   UNL     1      45.441   4.436  13.115  0.00  0.00    +0.000 A 
ATOM      6  C   UNL     1      46.748   4.452  13.591  0.00  0.00    +0.000 A 
ATOM      7  F   UNL     1      47.290   3.321  14.060  0.00  0.00    +0.000 F 
ATOM      8  C   UNL     1      47.502   5.620  13.583  0.00  0.00    +0.000 A 
ATOM      9  C   UNL     1      46.946   6.795  13.084  0.00  0.00    +0.000 A 
ATOM     10  C   UNL     1      45.625   6.800  12.627  0.00  0.00    +0.000 A 
BRANCH   9  11
ATOM     11  O   UNL     1      47.766   7.896  13.104  0.00  0.00    +0.000 OA
BRANCH  11  12
ATOM     12  C   UNL     1      48.381   8.326  11.866  0.00  0.00    +0.000 C 
ATOM     13  C   UNL     1      49.783   7.800  11.531  0.00  0.00    +0.000 C 
ATOM     14  O   UNL     1      50.327   9.137  11.455  0.00  0.00    +0.000 OA
ATOM     15  C   UNL     1      49.074   9.695  11.911  0.00  0.00    +0.000 C 
ENDBRANCH  11  12
ENDBRANCH   9  11
ENDBRANCH   1   4
BRANCH   1  16
ATOM     16  C   UNL     1      43.203   4.457  11.091  0.00  0.00    +0.000 C 
BRANCH  16  21
ATOM     17  C   UNL     1      46.502   2.548   7.669  0.00  0.00    +0.000 A 
ATOM     18  C   UNL     1      45.665   1.878   8.555  0.00  0.00    +0.000 A 
ATOM     19  C   UNL     1      44.731   2.609   9.293  0.00  0.00    +0.000 A 
ATOM     20  C   UNL     1      44.658   3.990   9.139  0.00  0.00    +0.000 A 
ATOM     21  N   UNL     1      43.690   4.767   9.741  0.00  0.00    +0.000 N 
ATOM     22  N   UNL     1      45.491   4.650   8.315  0.00  0.00    +0.000 NA
ATOM     23  C   UNL     1      46.399   3.927   7.604  0.00  0.00    +0.000 A 
ATOM     24  H   UNL     1      43.907   5.747   9.565  0.00  0.00    +0.000 HD
BRANCH  17  26
ATOM     25  N   UNL     1      48.592   2.553   6.436  0.00  0.00    +0.000 N 
ATOM     26  C   UNL     1      47.477   1.852   6.805  0.00  0.00    +0.000 C 
ATOM     27  O   UNL     1      47.318   0.687   6.468  0.00  0.00    +0.000 OA
ATOM     28  H   UNL     1      49.308   2.030   5.948  0.00  0.00    +0.000 HD
ATOM     29  H   UNL     1      48.880   3.399   6.910  0.00  0.00    +0.000 HD
ENDBRANCH  17  26
ENDBRANCH  16  21
ENDBRANCH   1  16
TORSDOF 6
ENDMDL
MODEL 3
REMARK VINA RESULT:    -8.588      2.699      4.150
REMARK INTER + INTRA:         -12.465
REMARK INTER:                 -11.723
REMARK INTRA:                  -0.742
REMARK UNBOUND:                -0.865
REMARK  Name = 
REMARK  6 active torsions:
REMARK  status: ('A' for Active; 'I' for Inactive)
REMARK    1  A    between atoms: C_2  and  C_4
REMARK    2  A    between atoms: N_8  and  C_9
REMARK    3  A    between atoms: C_9  and  C_10
REMARK    4  A    between atoms: C_10  and  C_13
REMARK    5  A    between atoms: C_18  and  O_19
REMARK    6  A    between atoms: O_19  and  C_20
REMARK                            x       y       z     vdW  Elec       q    Type
REMARK                         _______ _______ _______ _____ _____    ______ ____
ROOT
ATOM      1  C   UNL     1      43.242   4.732  12.542  0.00  0.00    +0.000 C 
ATOM      2  F   UNL     1      42.180   5.523  12.202  0.00  0.00    +0.000 F 
ATOM      3  F   UNL     1      42.885   4.140  13.722  0.00  0.00    +0.000 F 
ENDROOT
BRANCH   1   4
ATOM      4  C   UNL     1      44.519   5.538  12.705  0.00  0.00    +0.000 A 
ATOM      5  C   UNL     1      45.644   4.980  13.326  0.00  0.00    +0.000 A 
ATOM      6  C   UNL     1      46.807   5.733  13.456  0.00  0.00    +0.000 A 
ATOM      7  F   UNL     1      47.876   5.192  14.055  0.00  0.00    +0.000 F 
ATOM      8  C   UNL     1      46.881   7.033  12.970  0.00  0.00    +0.000 A 
ATOM      9  C   UNL     1      45.775   7.594  12.335  0.00  0.00    +0.000 A 
ATOM     10  C   UNL     1      44.592   6.859  12.220  0.00  0.00    +0.000 A 
BRANCH   9  11
ATOM     11  O   UNL     1      45.941   8.878  11.877  0.00  0.00    +0.000 OA
BRANCH  11  12
ATOM     12  C   UNL     1      44.800   9.769  11.884  0.00  0.00    +0.000 C 
ATOM     13  C   UNL     1      43.992   9.923  10.589  0.00  0.00    +0.000 C 
ATOM     14  O   UNL     1      44.227  11.349  10.546  0.00  0.00    +0.000 OA
ATOM     15  C   UNL     1      45.121  11.256  11.678  0.00  0.00    +0.000 C 
ENDBRANCH  11  12
ENDBRANCH   9  11
ENDBRANCH   1   4
BRANCH   1  16
ATOM     16  C   UNL     1      43.394   3.633  11.455  0.00  0.00    +0.000 C 
BRANCH  16  21
ATOM     17  C   UNL     1      46.538   2.717   7.516  0.00  0.00    +0.000 A 
ATOM     18  C   UNL     1      45.901   1.817   8.364  0.00  0.00    +0.000 A 
ATOM     19  C   UNL     1      44.961   2.293   9.280  0.00  0.00    +0.000 A 
ATOM     20  C   UNL     1      44.682   3.655   9.337  0.00  0.00    +0.000 A 
ATOM     21  N   UNL     1      43.686   4.189  10.128  0.00  0.00    +0.000 N 
ATOM     22  N   UNL     1      45.322   4.537   8.549  0.00  0.00    +0.000 NA
ATOM     23  C   UNL     1      46.239   4.061   7.663  0.00  0.00    +0.000 A 
ATOM     24  H   UNL     1      43.746   5.206  10.079  0.00  0.00    +0.000 HD
BRANCH  17  26
ATOM     25  N   UNL     1      47.469   2.974   5.289  0.00  0.00    +0.000 N 
ATOM     26  C   UNL     1      47.502   2.298   6.478  0.00  0.00    +0.000 C 
ATOM     27  O   UNL     1      48.321   1.413   6.684  0.00  0.00    +0.000 OA
ATOM     28  H   UNL     1      48.210   2.761   4.634  0.00  0.00    +0.000 HD
ATOM     29  H   UNL     1      47.004   3.866   5.189  0.00  0.00    +0.000 HD
ENDBRANCH  17  26
ENDBRANCH  16  21
ENDBRANCH   1  16
TORSDOF 6
ENDMDL
MODEL 4
REMARK VINA RESULT:    -8.433      1.591      1.962
REMARK INTER + INTRA:         -12.256
REMARK INTER:                 -11.375
REMARK INTRA:                  -0.881
REMARK UNBOUND:                -0.865
REMARK  Name = 
REMARK  6 active torsions:
REMARK  status: ('A' for Active; 'I' for Inactive)
REMARK    1  A    between atoms: C_2  and  C_4
REMARK    2  A    between atoms: N_8  and  C_9
REMARK    3  A    between atoms: C_9  and  C_10
REMARK    4  A    between atoms: C_10  and  C_13
REMARK    5  A    between atoms: C_18  and  O_19
REMARK    6  A    between atoms: O_19  and  C_20
REMARK                            x       y       z     vdW  Elec       q    Type
REMARK                         _______ _______ _______ _____ _____    ______ ____
ROOT
ATOM      1  C   UNL     1      43.481   4.734  12.547  0.00  0.00    +0.000 C 
ATOM      2  F   UNL     1      42.312   5.371  12.857  0.00  0.00    +0.000 F 
ATOM      3  F   UNL     1      43.618   3.756  13.492  0.00  0.00    +0.000 F 
ENDROOT
BRANCH   1   4
ATOM      4  C   UNL     1      44.667   5.682  12.573  0.00  0.00    +0.000 A 
ATOM      5  C   UNL     1      44.587   6.947  11.976  0.00  0.00    +0.000 A 
ATOM      6  C   UNL     1      45.683   7.803  12.021  0.00  0.00    +0.000 A 
ATOM      7  F   UNL     1      45.598   9.008  11.443  0.00  0.00    +0.000 F 
ATOM      8  C   UNL     1      46.861   7.432  12.659  0.00  0.00    +0.000 A 
ATOM      9  C   UNL     1      46.948   6.185  13.273  0.00  0.00    +0.000 A 
ATOM     10  C   UNL     1      45.864   5.304  13.214  0.00  0.00    +0.000 A 
BRANCH   9  11
ATOM     11  O   UNL     1      48.143   5.908  13.889  0.00  0.00    +0.000 OA
BRANCH  11  12
ATOM     12  C   UNL     1      48.497   6.650  15.080  0.00  0.00    +0.000 C 
ATOM     13  C   UNL     1      49.976   6.989  15.312  0.00  0.00    +0.000 C 
ATOM     14  O   UNL     1      49.994   6.296  16.580  0.00  0.00    +0.000 OA
ATOM     15  C   UNL     1      48.648   5.816  16.360  0.00  0.00    +0.000 C 
ENDBRANCH  11  12
ENDBRANCH   9  11
ENDBRANCH   1   4
BRANCH   1  16
ATOM     16  C   UNL     1      43.312   4.067  11.155  0.00  0.00    +0.000 C 
BRANCH  16  21
ATOM     17  C   UNL     1      46.520   2.618   7.433  0.00  0.00    +0.000 A 
ATOM     18  C   UNL     1      46.150   3.899   7.829  0.00  0.00    +0.000 A 
ATOM     19  C   UNL     1      45.373   4.058   8.978  0.00  0.00    +0.000 A 
ATOM     20  C   UNL     1      44.975   2.939   9.702  0.00  0.00    +0.000 A 
ATOM     21  N   UNL     1      44.309   3.017  10.908  0.00  0.00    +0.000 N 
ATOM     22  N   UNL     1      45.295   1.695   9.304  0.00  0.00    +0.000 NA
ATOM     23  C   UNL     1      46.049   1.552   8.181  0.00  0.00    +0.000 A 
ATOM     24  H   UNL     1      44.035   2.075  11.187  0.00  0.00    +0.000 HD
BRANCH  17  26
ATOM     25  N   UNL     1      47.319   3.248   5.229  0.00  0.00    +0.000 N 
ATOM     26  C   UNL     1      47.388   2.358   6.266  0.00  0.00    +0.000 C 
ATOM     27  O   UNL     1      48.164   1.413   6.242  0.00  0.00    +0.000 OA
ATOM     28  H   UNL     1      48.003   3.129   4.492  0.00  0.00    +0.000 HD
ATOM     29  H   UNL     1      46.904   4.165   5.332  0.00  0.00    +0.000 HD
ENDBRANCH  17  26
ENDBRANCH  16  21
ENDBRANCH   1  16
TORSDOF 6
ENDMDL
MODEL 5
REMARK VINA RESULT:    -8.003      3.144      7.903
REMARK INTER + INTRA:         -11.675
REMARK INTER:                 -11.027
REMARK INTRA:                  -0.647
REMARK UNBOUND:                -0.865
REMARK  Name = 
REMARK  6 active torsions:
REMARK  status: ('A' for Active; 'I' for Inactive)
REMARK    1  A    between atoms: C_2  and  C_4
REMARK    2  A    between atoms: N_8  and  C_9
REMARK    3  A    between atoms: C_9  and  C_10
REMARK    4  A    between atoms: C_10  and  C_13
REMARK    5  A    between atoms: C_18  and  O_19
REMARK    6  A    between atoms: O_19  and  C_20
REMARK                            x       y       z     vdW  Elec       q    Type
REMARK                         _______ _______ _______ _____ _____    ______ ____
ROOT
ATOM      1  C   UNL     1      45.751   6.234  11.359  0.00  0.00    +0.000 C 
ATOM      2  F   UNL     1      44.899   7.286  11.163  0.00  0.00    +0.000 F 
ATOM      3  F   UNL     1      46.967   6.670  10.912  0.00  0.00    +0.000 F 
ENDROOT
BRANCH   1   4
ATOM      4  C   UNL     1      45.307   4.996  10.601  0.00  0.00    +0.000 A 
ATOM      5  C   UNL     1      44.484   4.039  11.209  0.00  0.00    +0.000 A 
ATOM      6  C   UNL     1      44.080   2.917  10.492  0.00  0.00    +0.000 A 
ATOM      7  F   UNL     1      43.298   2.007  11.084  0.00  0.00    +0.000 F 
ATOM      8  C   UNL     1      44.471   2.729   9.171  0.00  0.00    +0.000 A 
ATOM      9  C   UNL     1      45.275   3.681   8.549  0.00  0.00    +0.000 A 
ATOM     10  C   UNL     1      45.709   4.800   9.264  0.00  0.00    +0.000 A 
BRANCH   9  11
ATOM     11  O   UNL     1      45.602   3.418   7.241  0.00  0.00    +0.000 OA
BRANCH  11  12
ATOM     12  C   UNL     1      46.989   3.170   6.910  0.00  0.00    +0.000 C 
ATOM     13  C   UNL     1      47.327   2.732   5.478  0.00  0.00    +0.000 C 
ATOM     14  O   UNL     1      47.940   1.506   5.938  0.00  0.00    +0.000 OA
ATOM     15  C   UNL     1      47.523   1.783   7.294  0.00  0.00    +0.000 C 
ENDBRANCH  11  12
ENDBRANCH   9  11
ENDBRANCH   1   4
BRANCH   1  16
ATOM     16  C   UNL     1      45.845   5.967  12.886  0.00  0.00    +0.000 C 
BRANCH  16  21
ATOM     17  C   UNL     1      48.528   4.412  16.963  0.00  0.00    +0.000 A 
ATOM     18  C   UNL     1      47.488   3.773  16.296  0.00  0.00    +0.000 A 
ATOM     19  C   UNL     1      47.005   4.321  15.106  0.00  0.00    +0.000 A 
ATOM     20  C   UNL     1      47.561   5.497  14.612  0.00  0.00    +0.000 A 
ATOM     21  N   UNL     1      47.223   6.036  13.388  0.00  0.00    +0.000 N 
ATOM     22  N   UNL     1      48.539   6.143  15.272  0.00  0.00    +0.000 NA
ATOM     23  C   UNL     1      48.999   5.601  16.432  0.00  0.00    +0.000 A 
ATOM     24  H   UNL     1      47.680   6.943  13.298  0.00  0.00    +0.000 HD
BRANCH  17  26
ATOM     25  N   UNL     1      48.341   3.119  19.009  0.00  0.00    +0.000 N 
ATOM     26  C   UNL     1      49.140   3.875  18.195  0.00  0.00    +0.000 C 
ATOM     27  O   UNL     1      50.320   4.062  18.459  0.00  0.00    +0.000 OA
ATOM     28  H   UNL     1      48.801   2.657  19.784  0.00  0.00    +0.000 HD
ATOM     29  H   UNL     1      47.464   2.727  18.692  0.00  0.00    +0.000 HD
ENDBRANCH  17  26
ENDBRANCH  16  21
ENDBRANCH   1  16
TORSDOF 6
ENDMDL
MODEL 6
REMARK VINA RESULT:    -7.780      3.259      8.172
REMARK INTER + INTRA:         -11.374
REMARK INTER:                 -10.957
REMARK INTRA:                  -0.417
REMARK UNBOUND:                -0.865
REMARK  Name = 
REMARK  6 active torsions:
REMARK  status: ('A' for Active; 'I' for Inactive)
REMARK    1  A    between atoms: C_2  and  C_4
REMARK    2  A    between atoms: N_8  and  C_9
REMARK    3  A    between atoms: C_9  and  C_10
REMARK    4  A    between atoms: C_10  and  C_13
REMARK    5  A    between atoms: C_18  and  O_19
REMARK    6  A    between atoms: O_19  and  C_20
REMARK                            x       y       z     vdW  Elec       q    Type
REMARK                         _______ _______ _______ _____ _____    ______ ____
ROOT
ATOM      1  C   UNL     1      45.878   6.201  12.074  0.00  0.00    +0.000 C 
ATOM      2  F   UNL     1      44.915   6.808  12.831  0.00  0.00    +0.000 F 
ATOM      3  F   UNL     1      46.419   7.200  11.314  0.00  0.00    +0.000 F 
ENDROOT
BRANCH   1   4
ATOM      4  C   UNL     1      45.301   5.105  11.195  0.00  0.00    +0.000 A 
ATOM      5  C   UNL     1      44.413   4.157  11.722  0.00  0.00    +0.000 A 
ATOM      6  C   UNL     1      43.888   3.167  10.897  0.00  0.00    +0.000 A 
ATOM      7  F   UNL     1      43.045   2.264  11.411  0.00  0.00    +0.000 F 
ATOM      8  C   UNL     1      44.220   3.104   9.548  0.00  0.00    +0.000 A 
ATOM      9  C   UNL     1      45.087   4.050   9.008  0.00  0.00    +0.000 A 
ATOM     10  C   UNL     1      45.642   5.035   9.830  0.00  0.00    +0.000 A 
BRANCH   9  11
ATOM     11  O   UNL     1      45.349   3.918   7.667  0.00  0.00    +0.000 OA
BRANCH  11  12
ATOM     12  C   UNL     1      46.614   3.341   7.261  0.00  0.00    +0.000 C 
ATOM     13  C   UNL     1      46.761   2.862   5.811  0.00  0.00    +0.000 C 
ATOM     14  O   UNL     1      47.072   1.513   6.229  0.00  0.00    +0.000 OA
ATOM     15  C   UNL     1      46.805   1.857   7.607  0.00  0.00    +0.000 C 
ENDBRANCH  11  12
ENDBRANCH   9  11
ENDBRANCH   1   4
BRANCH   1  16
ATOM     16  C   UNL     1      46.970   5.651  13.031  0.00  0.00    +0.000 C 
BRANCH  16  21
ATOM     17  C   UNL     1      48.508   4.454  17.768  0.00  0.00    +0.000 A 
ATOM     18  C   UNL     1      48.877   5.529  16.966  0.00  0.00    +0.000 A 
ATOM     19  C   UNL     1      48.208   5.739  15.760  0.00  0.00    +0.000 A 
ATOM     20  C   UNL     1      47.193   4.869  15.373  0.00  0.00    +0.000 A 
ATOM     21  N   UNL     1      46.407   5.074  14.258  0.00  0.00    +0.000 N 
ATOM     22  N   UNL     1      46.858   3.804  16.123  0.00  0.00    +0.000 NA
ATOM     23  C   UNL     1      47.520   3.608  17.295  0.00  0.00    +0.000 A 
ATOM     24  H   UNL     1      45.812   4.255  14.128  0.00  0.00    +0.000 HD
BRANCH  17  26
ATOM     25  N   UNL     1      48.487   3.286  19.896  0.00  0.00    +0.000 N 
ATOM     26  C   UNL     1      49.120   4.189  19.086  0.00  0.00    +0.000 C 
ATOM     27  O   UNL     1      50.168   4.721  19.425  0.00  0.00    +0.000 OA
ATOM     28  H   UNL     1      48.978   3.022  20.741  0.00  0.00    +0.000 HD
ATOM     29  H   UNL     1      47.791   2.642  19.544  0.00  0.00    +0.000 HD
ENDBRANCH  17  26
ENDBRANCH  16  21
ENDBRANCH   1  16
TORSDOF 6
ENDMDL
MODEL 7
REMARK VINA RESULT:    -7.275      3.294      8.096
REMARK INTER + INTRA:         -10.691
REMARK INTER:                 -10.333
REMARK INTRA:                  -0.359
REMARK UNBOUND:                -0.865
REMARK  Name = 
REMARK  6 active torsions:
REMARK  status: ('A' for Active; 'I' for Inactive)
REMARK    1  A    between atoms: C_2  and  C_4
REMARK    2  A    between atoms: N_8  and  C_9
REMARK    3  A    between atoms: C_9  and  C_10
REMARK    4  A    between atoms: C_10  and  C_13
REMARK    5  A    between atoms: C_18  and  O_19
REMARK    6  A    between atoms: O_19  and  C_20
REMARK                            x       y       z     vdW  Elec       q    Type
REMARK                         _______ _______ _______ _____ _____    ______ ____
ROOT
ATOM      1  C   UNL     1      46.455   6.735  12.367  0.00  0.00    +0.000 C 
ATOM      2  F   UNL     1      45.708   7.455  13.258  0.00  0.00    +0.000 F 
ATOM      3  F   UNL     1      47.185   7.665  11.679  0.00  0.00    +0.000 F 
ENDROOT
BRANCH   1   4
ATOM      4  C   UNL     1      45.585   5.924  11.423  0.00  0.00    +0.000 A 
ATOM      5  C   UNL     1      44.304   5.506  11.810  0.00  0.00    +0.000 A 
ATOM      6  C   UNL     1      43.520   4.772  10.926  0.00  0.00    +0.000 A 
ATOM      7  F   UNL     1      42.299   4.374  11.307  0.00  0.00    +0.000 F 
ATOM      8  C   UNL     1      43.979   4.450   9.654  0.00  0.00    +0.000 A 
ATOM      9  C   UNL     1      45.242   4.873   9.250  0.00  0.00    +0.000 A 
ATOM     10  C   UNL     1      46.052   5.590  10.136  0.00  0.00    +0.000 A 
BRANCH   9  11
ATOM     11  O   UNL     1      45.608   4.520   7.975  0.00  0.00    +0.000 OA
BRANCH  11  12
ATOM     12  C   UNL     1      45.490   3.132   7.579  0.00  0.00    +0.000 C 
ATOM     13  C   UNL     1      45.791   2.051   8.626  0.00  0.00    +0.000 C 
ATOM     14  O   UNL     1      46.835   1.472   7.810  0.00  0.00    +0.000 OA
ATOM     15  C   UNL     1      46.708   2.546   6.851  0.00  0.00    +0.000 C 
ENDBRANCH  11  12
ENDBRANCH   9  11
ENDBRANCH   1   4
BRANCH   1  16
ATOM     16  C   UNL     1      47.427   5.829  13.171  0.00  0.00    +0.000 C 
BRANCH  16  21
ATOM     17  C   UNL     1      48.604   4.542  17.987  0.00  0.00    +0.000 A 
ATOM     18  C   UNL     1      49.003   5.651  17.248  0.00  0.00    +0.000 A 
ATOM     19  C   UNL     1      48.430   5.875  15.995  0.00  0.00    +0.000 A 
ATOM     20  C   UNL     1      47.479   4.987  15.502  0.00  0.00    +0.000 A 
ATOM     21  N   UNL     1      46.782   5.200  14.330  0.00  0.00    +0.000 N 
ATOM     22  N   UNL     1      47.118   3.891  16.192  0.00  0.00    +0.000 NA
ATOM     23  C   UNL     1      47.686   3.681  17.410  0.00  0.00    +0.000 A 
ATOM     24  H   UNL     1      46.228   4.368  14.129  0.00  0.00    +0.000 HD
BRANCH  17  26
ATOM     25  N   UNL     1      48.334   3.469  20.148  0.00  0.00    +0.000 N 
ATOM     26  C   UNL     1      49.112   4.257  19.344  0.00  0.00    +0.000 C 
ATOM     27  O   UNL     1      50.199   4.672  19.722  0.00  0.00    +0.000 OA
ATOM     28  H   UNL     1      48.746   3.182  21.026  0.00  0.00    +0.000 HD
ATOM     29  H   UNL     1      47.583   2.900  19.780  0.00  0.00    +0.000 HD
ENDBRANCH  17  26
ENDBRANCH  16  21
ENDBRANCH   1  16
TORSDOF 6
ENDMDL
MODEL 8
REMARK VINA RESULT:    -7.167      2.410      3.072
REMARK INTER + INTRA:         -10.546
REMARK INTER:                 -10.571
REMARK INTRA:                   0.025
REMARK UNBOUND:                -0.865
REMARK  Name = 
REMARK  6 active torsions:
REMARK  status: ('A' for Active; 'I' for Inactive)
REMARK    1  A    between atoms: C_2  and  C_4
REMARK    2  A    between atoms: N_8  and  C_9
REMARK    3  A    between atoms: C_9  and  C_10
REMARK    4  A    between atoms: C_10  and  C_13
REMARK    5  A    between atoms: C_18  and  O_19
REMARK    6  A    between atoms: O_19  and  C_20
REMARK                            x       y       z     vdW  Elec       q    Type
REMARK                         _______ _______ _______ _____ _____    ______ ____
ROOT
ATOM      1  C   UNL     1      44.086   4.363  12.288  0.00  0.00    +0.000 C 
ATOM      2  F   UNL     1      43.292   4.191  13.387  0.00  0.00    +0.000 F 
ATOM      3  F   UNL     1      45.019   3.367  12.360  0.00  0.00    +0.000 F 
ENDROOT
BRANCH   1   4
ATOM      4  C   UNL     1      44.752   5.728  12.278  0.00  0.00    +0.000 A 
ATOM      5  C   UNL     1      44.177   6.801  11.583  0.00  0.00    +0.000 A 
ATOM      6  C   UNL     1      44.799   8.046  11.597  0.00  0.00    +0.000 A 
ATOM      7  F   UNL     1      44.244   9.063  10.925  0.00  0.00    +0.000 F 
ATOM      8  C   UNL     1      45.981   8.253  12.298  0.00  0.00    +0.000 A 
ATOM      9  C   UNL     1      46.553   7.200  13.008  0.00  0.00    +0.000 A 
ATOM     10  C   UNL     1      45.954   5.937  12.983  0.00  0.00    +0.000 A 
BRANCH   9  11
ATOM     11  O   UNL     1      47.713   7.498  13.680  0.00  0.00    +0.000 OA
BRANCH  11  12
ATOM     12  C   UNL     1      48.979   7.191  13.049  0.00  0.00    +0.000 C 
ATOM     13  C   UNL     1      50.128   8.197  13.198  0.00  0.00    +0.000 C 
ATOM     14  O   UNL     1      50.245   8.360  11.766  0.00  0.00    +0.000 OA
ATOM     15  C   UNL     1      49.075   7.537  11.556  0.00  0.00    +0.000 C 
ENDBRANCH  11  12
ENDBRANCH   9  11
ENDBRANCH   1   4
BRANCH   1  16
ATOM     16  C   UNL     1      43.214   4.144  11.022  0.00  0.00    +0.000 C 
BRANCH  16  21
ATOM     17  C   UNL     1      46.503   3.068   7.245  0.00  0.00    +0.000 A 
ATOM     18  C   UNL     1      45.588   2.236   7.881  0.00  0.00    +0.000 A 
ATOM     19  C   UNL     1      44.679   2.789   8.785  0.00  0.00    +0.000 A 
ATOM     20  C   UNL     1      44.709   4.156   9.044  0.00  0.00    +0.000 A 
ATOM     21  N   UNL     1      43.773   4.796   9.831  0.00  0.00    +0.000 N 
ATOM     22  N   UNL     1      45.617   4.961   8.464  0.00  0.00    +0.000 NA
ATOM     23  C   UNL     1      46.499   4.410   7.588  0.00  0.00    +0.000 A 
ATOM     24  H   UNL     1      44.066   5.765   9.955  0.00  0.00    +0.000 HD
BRANCH  17  26
ATOM     25  N   UNL     1      48.579   1.940   6.690  0.00  0.00    +0.000 N 
ATOM     26  C   UNL     1      47.461   2.582   6.232  0.00  0.00    +0.000 C 
ATOM     27  O   UNL     1      47.247   2.708   5.034  0.00  0.00    +0.000 OA
ATOM     28  H   UNL     1      49.165   1.506   5.988  0.00  0.00    +0.000 HD
ATOM     29  H   UNL     1      48.649   1.585   7.634  0.00  0.00    +0.000 HD
ENDBRANCH  17  26
ENDBRANCH  16  21
ENDBRANCH   1  16
TORSDOF 6
ENDMDL
MODEL 9
REMARK VINA RESULT:    -6.899      3.721      8.169
REMARK INTER + INTRA:         -10.183
REMARK INTER:                  -9.461
REMARK INTRA:                  -0.723
REMARK UNBOUND:                -0.865
REMARK  Name = 
REMARK  6 active torsions:
REMARK  status: ('A' for Active; 'I' for Inactive)
REMARK    1  A    between atoms: C_2  and  C_4
REMARK    2  A    between atoms: N_8  and  C_9
REMARK    3  A    between atoms: C_9  and  C_10
REMARK    4  A    between atoms: C_10  and  C_13
REMARK    5  A    between atoms: C_18  and  O_19
REMARK    6  A    between atoms: O_19  and  C_20
REMARK                            x       y       z     vdW  Elec       q    Type
REMARK                         _______ _______ _______ _____ _____    ______ ____
ROOT
ATOM      1  C   UNL     1      45.348   6.456  11.584  0.00  0.00    +0.000 C 
ATOM      2  F   UNL     1      44.821   6.555  12.842  0.00  0.00    +0.000 F 
ATOM      3  F   UNL     1      44.844   7.526  10.899  0.00  0.00    +0.000 F 
ENDROOT
BRANCH   1   4
ATOM      4  C   UNL     1      44.963   5.151  10.909  0.00  0.00    +0.000 A 
ATOM      5  C   UNL     1      44.197   4.193  11.587  0.00  0.00    +0.000 A 
ATOM      6  C   UNL     1      43.847   3.009  10.946  0.00  0.00    +0.000 A 
ATOM      7  F   UNL     1      43.118   2.097  11.603  0.00  0.00    +0.000 F 
ATOM      8  C   UNL     1      44.235   2.758   9.634  0.00  0.00    +0.000 A 
ATOM      9  C   UNL     1      44.981   3.709   8.944  0.00  0.00    +0.000 A 
ATOM     10  C   UNL     1      45.362   4.892   9.583  0.00  0.00    +0.000 A 
BRANCH   9  11
ATOM     11  O   UNL     1      45.310   3.383   7.651  0.00  0.00    +0.000 OA
BRANCH  11  12
ATOM     12  C   UNL     1      46.662   2.952   7.367  0.00  0.00    +0.000 C 
ATOM     13  C   UNL     1      47.049   2.689   5.906  0.00  0.00    +0.000 C 
ATOM     14  O   UNL     1      47.414   1.319   6.191  0.00  0.00    +0.000 OA
ATOM     15  C   UNL     1      46.930   1.451   7.547  0.00  0.00    +0.000 C 
ENDBRANCH  11  12
ENDBRANCH   9  11
ENDBRANCH   1   4
BRANCH   1  16
ATOM     16  C   UNL     1      46.890   6.611  11.693  0.00  0.00    +0.000 C 
BRANCH  16  21
ATOM     17  C   UNL     1      49.218   8.428  15.878  0.00  0.00    +0.000 A 
ATOM     18  C   UNL     1      48.222   9.010  15.100  0.00  0.00    +0.000 A 
ATOM     19  C   UNL     1      47.625   8.258  14.086  0.00  0.00    +0.000 A 
ATOM     20  C   UNL     1      48.037   6.948  13.864  0.00  0.00    +0.000 A 
ATOM     21  N   UNL     1      47.419   6.104  12.965  0.00  0.00    +0.000 N 
ATOM     22  N   UNL     1      49.027   6.392  14.585  0.00  0.00    +0.000 NA
ATOM     23  C   UNL     1      49.604   7.135  15.567  0.00  0.00    +0.000 A 
ATOM     24  H   UNL     1      47.963   5.243  12.905  0.00  0.00    +0.000 HD
BRANCH  17  26
ATOM     25  N   UNL     1      49.831   8.504  18.225  0.00  0.00    +0.000 N 
ATOM     26  C   UNL     1      49.864   9.127  17.007  0.00  0.00    +0.000 C 
ATOM     27  O   UNL     1      50.439  10.196  16.856  0.00  0.00    +0.000 OA
ATOM     28  H   UNL     1      50.379   8.931  18.961  0.00  0.00    +0.000 HD
ATOM     29  H   UNL     1      49.611   7.521  18.323  0.00  0.00    +0.000 HD
ENDBRANCH  17  26
ENDBRANCH  16  21
ENDBRANCH   1  16
TORSDOF 6
ENDMDL
