MODEL 1
REMARK VINA RESULT:    -9.319      0.000      0.000
REMARK INTER + INTRA:         -14.712
REMARK INTER:                 -13.405
REMARK INTRA:                  -1.307
REMARK UNBOUND:                -1.307
REMARK  Name = 
REMARK  9 active torsions:
REMARK  status: ('A' for Active; 'I' for Inactive)
REMARK    1  A    between atoms: C_1  and  C_2
REMARK    2  A    between atoms: C_2  and  O_3
REMARK    3  A    between atoms: N_6  and  C_7
REMARK    4  A    between atoms: C_9  and  C_10
REMARK    5  A    between atoms: C_10  and  C_11
REMARK    6  A    between atoms: C_11  and  N_12
REMARK    7  A    between atoms: N_12  and  C_13
REMARK    8  A    between atoms: C_16  and  C_17
REMARK    9  A    between atoms: C_23  and  C_24
REMARK                            x       y       z     vdW  Elec       q    Type
REMARK                         _______ _______ _______ _____ _____    ______ ____
ROOT
ATOM      1  C   UNL     1      47.522   5.464  14.786  0.00  0.00    +0.000 A 
ATOM      2  C   UNL     1      46.448   4.865  14.106  0.00  0.00    +0.000 A 
ATOM      3  C   UNL     1      46.095   5.233  12.793  0.00  0.00    +0.000 A 
ATOM      4  C   UNL     1      46.852   6.227  12.158  0.00  0.00    +0.000 A 
ATOM      5  C   UNL     1      47.927   6.847  12.796  0.00  0.00    +0.000 A 
ATOM      6  C   UNL     1      48.257   6.442  14.094  0.00  0.00    +0.000 A 
ENDROOT
BRANCH   1  11
ATOM      7  C   UNL     1      48.837   3.931  19.322  0.00  0.00    +0.000 C 
ATOM      8  C   UNL     1      49.283   3.418  17.945  0.00  0.00    +0.000 C 
ATOM      9  C   UNL     1      50.011   4.499  17.131  0.00  0.00    +0.000 C 
ATOM     10  C   UNL     1      49.081   5.643  16.729  0.00  0.00    +0.000 C 
ATOM     11  N   UNL     1      47.859   5.149  16.094  0.00  0.00    +0.000 N 
ATOM     12  C   UNL     1      47.139   4.033  16.743  0.00  0.00    +0.000 C 
ATOM     13  C   UNL     1      48.091   2.899  17.127  0.00  0.00    +0.000 C 
ATOM     14  F   UNL     1      48.556   2.326  15.972  0.00  0.00    +0.000 F 
BRANCH   8  15
ATOM     15  O   UNL     1      50.185   2.329  18.202  0.00  0.00    +0.000 OA
ATOM     16  H   UNL     1      50.064   1.658  17.509  0.00  0.00    +0.000 HD
ENDBRANCH   8  15
ENDBRANCH   1  11
BRANCH   5  17
ATOM     17  C   UNL     1      48.695   7.950  12.119  0.00  0.00    +0.000 C 
ATOM     18  F   UNL     1      49.650   8.513  12.914  0.00  0.00    +0.000 F 
ATOM     19  F   UNL     1      49.349   7.522  11.004  0.00  0.00    +0.000 F 
ATOM     20  F   UNL     1      47.897   8.977  11.716  0.00  0.00    +0.000 F 
ENDBRANCH   5  17
BRANCH   3  21
ATOM     21  C   UNL     1      44.890   4.582  12.131  0.00  0.00    +0.000 C 
BRANCH  21  22
ATOM     22  C   UNL     1      44.237   5.452  11.050  0.00  0.00    +0.000 C 
BRANCH  22  23
ATOM     23  N   UNL     1      43.659   4.681   9.958  0.00  0.00    +0.000 N 
ATOM     24  H   UNL     1      42.793   4.201  10.190  0.00  0.00    +0.000 HD
BRANCH  23  25
ATOM     25  C   UNL     1      44.523   3.865   9.209  0.00  0.00    +0.000 A 
ATOM     26  C   UNL     1      44.588   2.470   9.334  0.00  0.00    +0.000 A 
ATOM     27  C   UNL     1      45.512   1.713   8.604  0.00  0.00    +0.000 A 
ATOM     28  C   UNL     1      46.416   2.345   7.751  0.00  0.00    +0.000 A 
ATOM     29  C   UNL     1      46.401   3.739   7.650  0.00  0.00    +0.000 A 
ATOM     30  C   UNL     1      45.463   4.486   8.376  0.00  0.00    +0.000 A 
BRANCH  28  31
ATOM     31  C   UNL     1      47.388   1.500   7.005  0.00  0.00    +0.000 C 
ATOM     32  N   UNL     1      48.476   2.128   6.466  0.00  0.00    +0.000 N 
ATOM     33  O   UNL     1      47.209   0.303   6.839  0.00  0.00    +0.000 OA
ATOM     34  H   UNL     1      48.538   3.131   6.371  0.00  0.00    +0.000 HD
ATOM     35  H   UNL     1      49.069   1.560   5.874  0.00  0.00    +0.000 HD
ENDBRANCH  28  31
ENDBRANCH  23  25
ENDBRANCH  22  23
ENDBRANCH  21  22
ENDBRANCH   3  21
TORSDOF 8
ENDMDL
MODEL 2
REMARK VINA RESULT:    -8.678      1.529      1.882
REMARK INTER + INTRA:         -13.790
REMARK INTER:                 -12.472
REMARK INTRA:                  -1.318
REMARK UNBOUND:                -1.307
REMARK  Name = 
REMARK  9 active torsions:
REMARK  status: ('A' for Active; 'I' for Inactive)
REMARK    1  A    between atoms: C_1  and  C_2
REMARK    2  A    between atoms: C_2  and  O_3
REMARK    3  A    between atoms: N_6  and  C_7
REMARK    4  A    between atoms: C_9  and  C_10
REMARK    5  A    between atoms: C_10  and  C_11
REMARK    6  A    between atoms: C_11  and  N_12
REMARK    7  A    between atoms: N_12  and  C_13
REMARK    8  A    between atoms: C_16  and  C_17
REMARK    9  A    between atoms: C_23  and  C_24
REMARK                            x       y       z     vdW  Elec       q    Type
REMARK                         _______ _______ _______ _____ _____    ______ ____
ROOT
ATOM      1  C   UNL     1      47.803   5.579  14.806  0.00  0.00    +0.000 A 
ATOM      2  C   UNL     1      46.720   4.950  14.170  0.00  0.00    +0.000 A 
ATOM      3  C   UNL     1      46.274   5.339  12.892  0.00  0.00    +0.000 A 
ATOM      4  C   UNL     1      46.948   6.385  12.246  0.00  0.00    +0.000 A 
ATOM      5  C   UNL     1      48.028   7.037  12.841  0.00  0.00    +0.000 A 
ATOM      6  C   UNL     1      48.452   6.610  14.105  0.00  0.00    +0.000 A 
ENDROOT
BRANCH   1  11
ATOM      7  C   UNL     1      49.239   4.795  19.494  0.00  0.00    +0.000 C 
ATOM      8  C   UNL     1      48.269   5.841  18.927  0.00  0.00    +0.000 C 
ATOM      9  C   UNL     1      47.046   5.197  18.257  0.00  0.00    +0.000 C 
ATOM     10  C   UNL     1      47.420   4.429  16.990  0.00  0.00    +0.000 C 
ATOM     11  N   UNL     1      48.230   5.242  16.083  0.00  0.00    +0.000 N 
ATOM     12  C   UNL     1      49.369   5.993  16.650  0.00  0.00    +0.000 C 
ATOM     13  C   UNL     1      48.967   6.759  17.911  0.00  0.00    +0.000 C 
ATOM     14  F   UNL     1      48.103   7.757  17.544  0.00  0.00    +0.000 F 
BRANCH   8  15
ATOM     15  O   UNL     1      47.836   6.628  20.049  0.00  0.00    +0.000 OA
ATOM     16  H   UNL     1      48.281   6.299  20.848  0.00  0.00    +0.000 HD
ENDBRANCH   8  15
ENDBRANCH   1  11
BRANCH   5  17
ATOM     17  C   UNL     1      48.706   8.193  12.157  0.00  0.00    +0.000 C 
ATOM     18  F   UNL     1      49.545   8.891  12.975  0.00  0.00    +0.000 F 
ATOM     19  F   UNL     1      49.465   7.800  11.098  0.00  0.00    +0.000 F 
ATOM     20  F   UNL     1      47.822   9.107  11.669  0.00  0.00    +0.000 F 
ENDBRANCH   5  17
BRANCH   3  21
ATOM     21  C   UNL     1      45.063   4.652  12.279  0.00  0.00    +0.000 C 
BRANCH  21  22
ATOM     22  C   UNL     1      44.370   5.481  11.190  0.00  0.00    +0.000 C 
BRANCH  22  23
ATOM     23  N   UNL     1      43.761   4.670  10.145  0.00  0.00    +0.000 N 
ATOM     24  H   UNL     1      42.952   4.131  10.445  0.00  0.00    +0.000 HD
BRANCH  23  25
ATOM     25  C   UNL     1      44.616   3.915   9.326  0.00  0.00    +0.000 A 
ATOM     26  C   UNL     1      44.751   2.521   9.408  0.00  0.00    +0.000 A 
ATOM     27  C   UNL     1      45.664   1.827   8.606  0.00  0.00    +0.000 A 
ATOM     28  C   UNL     1      46.487   2.522   7.720  0.00  0.00    +0.000 A 
ATOM     29  C   UNL     1      46.404   3.915   7.660  0.00  0.00    +0.000 A 
ATOM     30  C   UNL     1      45.477   4.599   8.459  0.00  0.00    +0.000 A 
BRANCH  28  31
ATOM     31  C   UNL     1      47.452   1.743   6.897  0.00  0.00    +0.000 C 
ATOM     32  N   UNL     1      48.572   2.395   6.462  0.00  0.00    +0.000 N 
ATOM     33  O   UNL     1      47.241   0.581   6.583  0.00  0.00    +0.000 OA
ATOM     34  H   UNL     1      48.666   3.399   6.492  0.00  0.00    +0.000 HD
ATOM     35  H   UNL     1      49.161   1.885   5.817  0.00  0.00    +0.000 HD
ENDBRANCH  28  31
ENDBRANCH  23  25
ENDBRANCH  22  23
ENDBRANCH  21  22
ENDBRANCH   3  21
TORSDOF 8
ENDMDL
MODEL 3
REMARK VINA RESULT:    -8.639      2.674      4.951
REMARK INTER + INTRA:         -13.735
REMARK INTER:                 -12.379
REMARK INTRA:                  -1.356
REMARK UNBOUND:                -1.307
REMARK  Name = 
REMARK  9 active torsions:
REMARK  status: ('A' for Active; 'I' for Inactive)
REMARK    1  A    between atoms: C_1  and  C_2
REMARK    2  A    between atoms: C_2  and  O_3
REMARK    3  A    between atoms: N_6  and  C_7
REMARK    4  A    between atoms: C_9  and  C_10
REMARK    5  A    between atoms: C_10  and  C_11
REMARK    6  A    between atoms: C_11  and  N_12
REMARK    7  A    between atoms: N_12  and  C_13
REMARK    8  A    between atoms: C_16  and  C_17
REMARK    9  A    between atoms: C_23  and  C_24
REMARK                            x       y       z     vdW  Elec       q    Type
REMARK                         _______ _______ _______ _____ _____    ______ ____
ROOT
ATOM      1  C   UNL     1      46.751   6.996  12.636  0.00  0.00    +0.000 A 
ATOM      2  C   UNL     1      45.435   6.712  12.234  0.00  0.00    +0.000 A 
ATOM      3  C   UNL     1      44.694   5.652  12.793  0.00  0.00    +0.000 A 
ATOM      4  C   UNL     1      45.302   4.870  13.783  0.00  0.00    +0.000 A 
ATOM      5  C   UNL     1      46.607   5.117  14.213  0.00  0.00    +0.000 A 
ATOM      6  C   UNL     1      47.304   6.190  13.646  0.00  0.00    +0.000 A 
ENDROOT
BRANCH   1  11
ATOM      7  C   UNL     1      49.565  10.752  11.016  0.00  0.00    +0.000 C 
ATOM      8  C   UNL     1      49.573  10.035  12.374  0.00  0.00    +0.000 C 
ATOM      9  C   UNL     1      49.924   8.546  12.242  0.00  0.00    +0.000 C 
ATOM     10  C   UNL     1      48.842   7.760  11.503  0.00  0.00    +0.000 C 
ATOM     11  N   UNL     1      47.515   8.005  12.068  0.00  0.00    +0.000 N 
ATOM     12  C   UNL     1      47.120   9.404  12.336  0.00  0.00    +0.000 C 
ATOM     13  C   UNL     1      48.216  10.165  13.083  0.00  0.00    +0.000 C 
ATOM     14  F   UNL     1      48.318   9.635  14.342  0.00  0.00    +0.000 F 
BRANCH   8  15
ATOM     15  O   UNL     1      50.578  10.693  13.162  0.00  0.00    +0.000 OA
ATOM     16  H   UNL     1      51.453  10.405  12.851  0.00  0.00    +0.000 HD
ENDBRANCH   8  15
ENDBRANCH   1  11
BRANCH   5  17
ATOM     17  C   UNL     1      47.263   4.234  15.239  0.00  0.00    +0.000 C 
ATOM     18  F   UNL     1      47.573   2.992  14.767  0.00  0.00    +0.000 F 
ATOM     19  F   UNL     1      48.433   4.754  15.703  0.00  0.00    +0.000 F 
ATOM     20  F   UNL     1      46.482   4.028  16.334  0.00  0.00    +0.000 F 
ENDBRANCH   5  17
BRANCH   3  21
ATOM     21  C   UNL     1      43.292   5.366  12.278  0.00  0.00    +0.000 C 
BRANCH  21  22
ATOM     22  C   UNL     1      43.245   4.291  11.184  0.00  0.00    +0.000 C 
BRANCH  22  23
ATOM     23  N   UNL     1      43.709   4.764   9.887  0.00  0.00    +0.000 N 
ATOM     24  H   UNL     1      42.971   5.079   9.263  0.00  0.00    +0.000 HD
BRANCH  23  25
ATOM     25  C   UNL     1      44.664   3.985   9.214  0.00  0.00    +0.000 A 
ATOM     26  C   UNL     1      45.563   4.493   8.265  0.00  0.00    +0.000 A 
ATOM     27  C   UNL     1      46.453   3.657   7.580  0.00  0.00    +0.000 A 
ATOM     28  C   UNL     1      46.441   2.282   7.812  0.00  0.00    +0.000 A 
ATOM     29  C   UNL     1      45.519   1.750   8.717  0.00  0.00    +0.000 A 
ATOM     30  C   UNL     1      44.640   2.597   9.406  0.00  0.00    +0.000 A 
BRANCH  28  31
ATOM     31  C   UNL     1      47.397   1.431   7.052  0.00  0.00    +0.000 C 
ATOM     32  N   UNL     1      48.486   2.051   6.507  0.00  0.00    +0.000 N 
ATOM     33  O   UNL     1      47.203   0.237   6.882  0.00  0.00    +0.000 OA
ATOM     34  H   UNL     1      48.558   3.053   6.416  0.00  0.00    +0.000 HD
ATOM     35  H   UNL     1      49.067   1.480   5.905  0.00  0.00    +0.000 HD
ENDBRANCH  28  31
ENDBRANCH  23  25
ENDBRANCH  22  23
ENDBRANCH  21  22
ENDBRANCH   3  21
TORSDOF 8
ENDMDL
MODEL 4
REMARK VINA RESULT:    -8.387      2.397      4.945
REMARK INTER + INTRA:         -13.372
REMARK INTER:                 -12.213
REMARK INTRA:                  -1.159
REMARK UNBOUND:                -1.307
REMARK  Name = 
REMARK  9 active torsions:
REMARK  status: ('A' for Active; 'I' for Inactive)
REMARK    1  A    between atoms: C_1  and  C_2
REMARK    2  A    between atoms: C_2  and  O_3
REMARK    3  A    between atoms: N_6  and  C_7
REMARK    4  A    between atoms: C_9  and  C_10
REMARK    5  A    between atoms: C_10  and  C_11
REMARK    6  A    between atoms: C_11  and  N_12
REMARK    7  A    between atoms: N_12  and  C_13
REMARK    8  A    between atoms: C_16  and  C_17
REMARK    9  A    between atoms: C_23  and  C_24
REMARK                            x       y       z     vdW  Elec       q    Type
REMARK                         _______ _______ _______ _____ _____    ______ ____
ROOT
ATOM      1  C   UNL     1      47.593   6.529  13.949  0.00  0.00    +0.000 A 
ATOM      2  C   UNL     1      46.641   6.024  13.049  0.00  0.00    +0.000 A 
ATOM      3  C   UNL     1      46.049   4.757  13.218  0.00  0.00    +0.000 A 
ATOM      4  C   UNL     1      46.430   3.992  14.328  0.00  0.00    +0.000 A 
ATOM      5  C   UNL     1      47.371   4.455  15.248  0.00  0.00    +0.000 A 
ATOM      6  C   UNL     1      47.924   5.726  15.054  0.00  0.00    +0.000 A 
ENDROOT
BRANCH   1  11
ATOM      7  C   UNL     1      49.882  10.809  12.901  0.00  0.00    +0.000 C 
ATOM      8  C   UNL     1      49.069   9.881  11.986  0.00  0.00    +0.000 C 
ATOM      9  C   UNL     1      47.609   9.748  12.444  0.00  0.00    +0.000 C 
ATOM     10  C   UNL     1      47.486   9.019  13.782  0.00  0.00    +0.000 C 
ATOM     11  N   UNL     1      48.222   7.754  13.777  0.00  0.00    +0.000 N 
ATOM     12  C   UNL     1      49.603   7.753  13.253  0.00  0.00    +0.000 C 
ATOM     13  C   UNL     1      49.696   8.481  11.911  0.00  0.00    +0.000 C 
ATOM     14  F   UNL     1      49.020   7.738  10.978  0.00  0.00    +0.000 F 
BRANCH   8  15
ATOM     15  O   UNL     1      49.105  10.482  10.681  0.00  0.00    +0.000 OA
ATOM     16  H   UNL     1      49.900  11.038  10.619  0.00  0.00    +0.000 HD
ENDBRANCH   8  15
ENDBRANCH   1  11
BRANCH   5  17
ATOM     17  C   UNL     1      47.809   3.598  16.405  0.00  0.00    +0.000 C 
ATOM     18  F   UNL     1      48.328   2.396  16.024  0.00  0.00    +0.000 F 
ATOM     19  F   UNL     1      48.773   4.194  17.159  0.00  0.00    +0.000 F 
ATOM     20  F   UNL     1      46.789   3.306  17.259  0.00  0.00    +0.000 F 
ENDBRANCH   5  17
BRANCH   3  21
ATOM     21  C   UNL     1      45.062   4.247  12.179  0.00  0.00    +0.000 C 
BRANCH  21  22
ATOM     22  C   UNL     1      44.513   5.345  11.259  0.00  0.00    +0.000 C 
BRANCH  22  23
ATOM     23  N   UNL     1      43.927   4.831  10.030  0.00  0.00    +0.000 N 
ATOM     24  H   UNL     1      42.975   4.487  10.126  0.00  0.00    +0.000 HD
BRANCH  23  25
ATOM     25  C   UNL     1      44.714   3.975   9.242  0.00  0.00    +0.000 A 
ATOM     26  C   UNL     1      44.678   2.575   9.331  0.00  0.00    +0.000 A 
ATOM     27  C   UNL     1      45.530   1.772   8.562  0.00  0.00    +0.000 A 
ATOM     28  C   UNL     1      46.461   2.360   7.706  0.00  0.00    +0.000 A 
ATOM     29  C   UNL     1      46.547   3.753   7.642  0.00  0.00    +0.000 A 
ATOM     30  C   UNL     1      45.681   4.547   8.406  0.00  0.00    +0.000 A 
BRANCH  28  31
ATOM     31  C   UNL     1      47.354   1.466   6.918  0.00  0.00    +0.000 C 
ATOM     32  N   UNL     1      48.337   2.061   6.179  0.00  0.00    +0.000 N 
ATOM     33  O   UNL     1      47.197   0.255   6.895  0.00  0.00    +0.000 OA
ATOM     34  H   UNL     1      48.350   3.050   5.980  0.00  0.00    +0.000 HD
ATOM     35  H   UNL     1      48.865   1.451   5.568  0.00  0.00    +0.000 HD
ENDBRANCH  28  31
ENDBRANCH  23  25
ENDBRANCH  22  23
ENDBRANCH  21  22
ENDBRANCH   3  21
TORSDOF 8
ENDMDL
MODEL 5
REMARK VINA RESULT:    -7.945      3.347      4.575
REMARK INTER + INTRA:         -12.736
REMARK INTER:                 -11.494
REMARK INTRA:                  -1.242
REMARK UNBOUND:                -1.307
REMARK  Name = 
REMARK  9 active torsions:
REMARK  status: ('A' for Active; 'I' for Inactive)
REMARK    1  A    between atoms: C_1  and  C_2
REMARK    2  A    between atoms: C_2  and  O_3
REMARK    3  A    between atoms: N_6  and  C_7
REMARK    4  A    between atoms: C_9  and  C_10
REMARK    5  A    between atoms: C_10  and  C_11
REMARK    6  A    between atoms: C_11  and  N_12
REMARK    7  A    between atoms: N_12  and  C_13
REMARK    8  A    between atoms: C_16  and  C_17
REMARK    9  A    between atoms: C_23  and  C_24
REMARK                            x       y       z     vdW  Elec       q    Type
REMARK                         _______ _______ _______ _____ _____    ______ ____
ROOT
ATOM      1  C   UNL     1      46.563   8.569  12.436  0.00  0.00    +0.000 A 
ATOM      2  C   UNL     1      46.126   7.234  12.460  0.00  0.00    +0.000 A 
ATOM      3  C   UNL     1      44.888   6.841  11.916  0.00  0.00    +0.000 A 
ATOM      4  C   UNL     1      44.081   7.826  11.331  0.00  0.00    +0.000 A 
ATOM      5  C   UNL     1      44.476   9.163  11.284  0.00  0.00    +0.000 A 
ATOM      6  C   UNL     1      45.720   9.511  11.821  0.00  0.00    +0.000 A 
ENDROOT
BRANCH   1  11
ATOM      7  C   UNL     1      51.001   9.653  14.381  0.00  0.00    +0.000 C 
ATOM      8  C   UNL     1      50.625   8.619  13.310  0.00  0.00    +0.000 C 
ATOM      9  C   UNL     1      50.025   9.273  12.056  0.00  0.00    +0.000 C 
ATOM     10  C   UNL     1      48.665   9.913  12.333  0.00  0.00    +0.000 C 
ATOM     11  N   UNL     1      47.757   8.985  13.007  0.00  0.00    +0.000 N 
ATOM     12  C   UNL     1      48.273   8.221  14.162  0.00  0.00    +0.000 C 
ATOM     13  C   UNL     1      49.629   7.585  13.856  0.00  0.00    +0.000 C 
ATOM     14  F   UNL     1      49.436   6.609  12.913  0.00  0.00    +0.000 F 
BRANCH   8  15
ATOM     15  O   UNL     1      51.848   7.952  12.958  0.00  0.00    +0.000 OA
ATOM     16  H   UNL     1      52.458   8.604  12.575  0.00  0.00    +0.000 HD
ENDBRANCH   8  15
ENDBRANCH   1  11
BRANCH   5  17
ATOM     17  C   UNL     1      43.573  10.216  10.701  0.00  0.00    +0.000 C 
ATOM     18  F   UNL     1      44.066  10.785   9.564  0.00  0.00    +0.000 F 
ATOM     19  F   UNL     1      42.348   9.725  10.365  0.00  0.00    +0.000 F 
ATOM     20  F   UNL     1      43.342  11.247  11.559  0.00  0.00    +0.000 F 
ENDBRANCH   5  17
BRANCH   3  21
ATOM     21  C   UNL     1      44.451   5.388  12.019  0.00  0.00    +0.000 C 
BRANCH  21  22
ATOM     22  C   UNL     1      43.473   4.959  10.918  0.00  0.00    +0.000 C 
BRANCH  22  23
ATOM     23  N   UNL     1      43.655   3.580  10.487  0.00  0.00    +0.000 N 
ATOM     24  H   UNL     1      43.674   2.900  11.242  0.00  0.00    +0.000 HD
BRANCH  23  25
ATOM     25  C   UNL     1      44.649   3.324   9.529  0.00  0.00    +0.000 A 
ATOM     26  C   UNL     1      45.205   4.305   8.694  0.00  0.00    +0.000 A 
ATOM     27  C   UNL     1      46.151   3.980   7.714  0.00  0.00    +0.000 A 
ATOM     28  C   UNL     1      46.540   2.654   7.530  0.00  0.00    +0.000 A 
ATOM     29  C   UNL     1      45.960   1.655   8.317  0.00  0.00    +0.000 A 
ATOM     30  C   UNL     1      45.024   1.993   9.303  0.00  0.00    +0.000 A 
BRANCH  28  31
ATOM     31  C   UNL     1      47.540   2.355   6.468  0.00  0.00    +0.000 C 
ATOM     32  N   UNL     1      47.510   3.134   5.345  0.00  0.00    +0.000 N 
ATOM     33  O   UNL     1      48.330   1.428   6.568  0.00  0.00    +0.000 OA
ATOM     34  H   UNL     1      46.734   3.738   5.119  0.00  0.00    +0.000 HD
ATOM     35  H   UNL     1      48.122   2.850   4.591  0.00  0.00    +0.000 HD
ENDBRANCH  28  31
ENDBRANCH  23  25
ENDBRANCH  22  23
ENDBRANCH  21  22
ENDBRANCH   3  21
TORSDOF 8
ENDMDL
MODEL 6
REMARK VINA RESULT:    -7.911      2.716      3.508
REMARK INTER + INTRA:         -12.688
REMARK INTER:                 -11.427
REMARK INTRA:                  -1.261
REMARK UNBOUND:                -1.307
REMARK  Name = 
REMARK  9 active torsions:
REMARK  status: ('A' for Active; 'I' for Inactive)
REMARK    1  A    between atoms: C_1  and  C_2
REMARK    2  A    between atoms: C_2  and  O_3
REMARK    3  A    between atoms: N_6  and  C_7
REMARK    4  A    between atoms: C_9  and  C_10
REMARK    5  A    between atoms: C_10  and  C_11
REMARK    6  A    between atoms: C_11  and  N_12
REMARK    7  A    between atoms: N_12  and  C_13
REMARK    8  A    between atoms: C_16  and  C_17
REMARK    9  A    between atoms: C_23  and  C_24
REMARK                            x       y       z     vdW  Elec       q    Type
REMARK                         _______ _______ _______ _____ _____    ______ ____
ROOT
ATOM      1  C   UNL     1      47.275   6.791  13.420  0.00  0.00    +0.000 A 
ATOM      2  C   UNL     1      46.430   5.678  13.270  0.00  0.00    +0.000 A 
ATOM      3  C   UNL     1      45.192   5.763  12.603  0.00  0.00    +0.000 A 
ATOM      4  C   UNL     1      44.809   7.003  12.074  0.00  0.00    +0.000 A 
ATOM      5  C   UNL     1      45.617   8.133  12.200  0.00  0.00    +0.000 A 
ATOM      6  C   UNL     1      46.847   8.005  12.855  0.00  0.00    +0.000 A 
ENDROOT
BRANCH   1  11
ATOM      7  C   UNL     1      51.541   7.053  15.946  0.00  0.00    +0.000 C 
ATOM      8  C   UNL     1      50.333   8.001  15.959  0.00  0.00    +0.000 C 
ATOM      9  C   UNL     1      49.055   7.307  16.452  0.00  0.00    +0.000 C 
ATOM     10  C   UNL     1      48.571   6.231  15.480  0.00  0.00    +0.000 C 
ATOM     11  N   UNL     1      48.476   6.740  14.112  0.00  0.00    +0.000 N 
ATOM     12  C   UNL     1      49.613   7.519  13.579  0.00  0.00    +0.000 C 
ATOM     13  C   UNL     1      50.072   8.593  14.566  0.00  0.00    +0.000 C 
ATOM     14  F   UNL     1      49.081   9.535  14.659  0.00  0.00    +0.000 F 
BRANCH   8  15
ATOM     15  O   UNL     1      50.675   9.064  16.863  0.00  0.00    +0.000 OA
ATOM     16  H   UNL     1      51.274   9.679  16.406  0.00  0.00    +0.000 HD
ENDBRANCH   8  15
ENDBRANCH   1  11
BRANCH   5  17
ATOM     17  C   UNL     1      45.166   9.468  11.674  0.00  0.00    +0.000 C 
ATOM     18  F   UNL     1      46.196  10.318  11.394  0.00  0.00    +0.000 F 
ATOM     19  F   UNL     1      44.454   9.360  10.519  0.00  0.00    +0.000 F 
ATOM     20  F   UNL     1      44.364  10.136  12.549  0.00  0.00    +0.000 F 
ENDBRANCH   5  17
BRANCH   3  21
ATOM     21  C   UNL     1      44.301   4.533  12.518  0.00  0.00    +0.000 C 
BRANCH  21  22
ATOM     22  C   UNL     1      43.516   4.431  11.204  0.00  0.00    +0.000 C 
BRANCH  22  23
ATOM     23  N   UNL     1      43.653   3.139  10.546  0.00  0.00    +0.000 N 
ATOM     24  H   UNL     1      43.640   2.340  11.176  0.00  0.00    +0.000 HD
BRANCH  23  25
ATOM     25  C   UNL     1      44.648   3.012   9.563  0.00  0.00    +0.000 A 
ATOM     26  C   UNL     1      45.171   4.090   8.833  0.00  0.00    +0.000 A 
ATOM     27  C   UNL     1      46.120   3.896   7.822  0.00  0.00    +0.000 A 
ATOM     28  C   UNL     1      46.545   2.608   7.499  0.00  0.00    +0.000 A 
ATOM     29  C   UNL     1      45.999   1.517   8.181  0.00  0.00    +0.000 A 
ATOM     30  C   UNL     1      45.059   1.723   9.199  0.00  0.00    +0.000 A 
BRANCH  28  31
ATOM     31  C   UNL     1      47.546   2.449   6.409  0.00  0.00    +0.000 C 
ATOM     32  N   UNL     1      47.332   3.156   5.258  0.00  0.00    +0.000 N 
ATOM     33  O   UNL     1      48.498   1.690   6.512  0.00  0.00    +0.000 OA
ATOM     34  H   UNL     1      46.450   3.595   5.041  0.00  0.00    +0.000 HD
ATOM     35  H   UNL     1      47.961   2.955   4.491  0.00  0.00    +0.000 HD
ENDBRANCH  28  31
ENDBRANCH  23  25
ENDBRANCH  22  23
ENDBRANCH  21  22
ENDBRANCH   3  21
TORSDOF 8
ENDMDL
MODEL 7
REMARK VINA RESULT:    -7.284      2.705      4.485
REMARK INTER + INTRA:         -11.785
REMARK INTER:                 -10.908
REMARK INTRA:                  -0.877
REMARK UNBOUND:                -1.307
REMARK  Name = 
REMARK  9 active torsions:
REMARK  status: ('A' for Active; 'I' for Inactive)
REMARK    1  A    between atoms: C_1  and  C_2
REMARK    2  A    between atoms: C_2  and  O_3
REMARK    3  A    between atoms: N_6  and  C_7
REMARK    4  A    between atoms: C_9  and  C_10
REMARK    5  A    between atoms: C_10  and  C_11
REMARK    6  A    between atoms: C_11  and  N_12
REMARK    7  A    between atoms: N_12  and  C_13
REMARK    8  A    between atoms: C_16  and  C_17
REMARK    9  A    between atoms: C_23  and  C_24
REMARK                            x       y       z     vdW  Elec       q    Type
REMARK                         _______ _______ _______ _____ _____    ______ ____
ROOT
ATOM      1  C   UNL     1      48.252   6.751  14.576  0.00  0.00    +0.000 A 
ATOM      2  C   UNL     1      47.370   6.551  13.502  0.00  0.00    +0.000 A 
ATOM      3  C   UNL     1      46.605   5.375  13.369  0.00  0.00    +0.000 A 
ATOM      4  C   UNL     1      46.738   4.386  14.353  0.00  0.00    +0.000 A 
ATOM      5  C   UNL     1      47.602   4.543  15.437  0.00  0.00    +0.000 A 
ATOM      6  C   UNL     1      48.332   5.733  15.542  0.00  0.00    +0.000 A 
ENDROOT
BRANCH   1  11
ATOM      7  C   UNL     1      50.922  10.849  15.431  0.00  0.00    +0.000 C 
ATOM      8  C   UNL     1      50.296   9.861  16.426  0.00  0.00    +0.000 C 
ATOM      9  C   UNL     1      50.872   8.445  16.278  0.00  0.00    +0.000 C 
ATOM     10  C   UNL     1      50.488   7.801  14.946  0.00  0.00    +0.000 C 
ATOM     11  N   UNL     1      49.048   7.881  14.702  0.00  0.00    +0.000 N 
ATOM     12  C   UNL     1      48.375   9.178  14.921  0.00  0.00    +0.000 C 
ATOM     13  C   UNL     1      48.769   9.796  16.264  0.00  0.00    +0.000 C 
ATOM     14  F   UNL     1      48.247   9.014  17.261  0.00  0.00    +0.000 F 
BRANCH   8  15
ATOM     15  O   UNL     1      50.607  10.366  17.734  0.00  0.00    +0.000 OA
ATOM     16  H   UNL     1      50.651   9.618  18.353  0.00  0.00    +0.000 HD
ENDBRANCH   8  15
ENDBRANCH   1  11
BRANCH   5  17
ATOM     17  C   UNL     1      47.773   3.448  16.455  0.00  0.00    +0.000 C 
ATOM     18  F   UNL     1      46.632   3.167  17.146  0.00  0.00    +0.000 F 
ATOM     19  F   UNL     1      48.163   2.271  15.893  0.00  0.00    +0.000 F 
ATOM     20  F   UNL     1      48.711   3.745  17.396  0.00  0.00    +0.000 F 
ENDBRANCH   5  17
BRANCH   3  21
ATOM     21  C   UNL     1      45.706   5.199  12.156  0.00  0.00    +0.000 C 
BRANCH  21  22
ATOM     22  C   UNL     1      44.875   3.910  12.187  0.00  0.00    +0.000 C 
BRANCH  22  23
ATOM     23  N   UNL     1      44.194   3.629  10.931  0.00  0.00    +0.000 N 
ATOM     24  H   UNL     1      43.453   2.936  10.996  0.00  0.00    +0.000 HD
BRANCH  23  25
ATOM     25  C   UNL     1      44.989   3.436   9.789  0.00  0.00    +0.000 A 
ATOM     26  C   UNL     1      45.436   4.476   8.960  0.00  0.00    +0.000 A 
ATOM     27  C   UNL     1      46.176   4.218   7.799  0.00  0.00    +0.000 A 
ATOM     28  C   UNL     1      46.460   2.904   7.428  0.00  0.00    +0.000 A 
ATOM     29  C   UNL     1      45.980   1.853   8.214  0.00  0.00    +0.000 A 
ATOM     30  C   UNL     1      45.251   2.122   9.379  0.00  0.00    +0.000 A 
BRANCH  28  31
ATOM     31  C   UNL     1      47.239   2.679   6.180  0.00  0.00    +0.000 C 
ATOM     32  N   UNL     1      48.569   2.395   6.316  0.00  0.00    +0.000 N 
ATOM     33  O   UNL     1      46.729   2.781   5.074  0.00  0.00    +0.000 OA
ATOM     34  H   UNL     1      49.073   2.538   7.178  0.00  0.00    +0.000 HD
ATOM     35  H   UNL     1      49.104   2.351   5.458  0.00  0.00    +0.000 HD
ENDBRANCH  28  31
ENDBRANCH  23  25
ENDBRANCH  22  23
ENDBRANCH  21  22
ENDBRANCH   3  21
TORSDOF 8
ENDMDL
MODEL 8
REMARK VINA RESULT:    -7.283      3.514      7.641
REMARK INTER + INTRA:         -11.784
REMARK INTER:                 -10.227
REMARK INTRA:                  -1.557
REMARK UNBOUND:                -1.307
REMARK  Name = 
REMARK  9 active torsions:
REMARK  status: ('A' for Active; 'I' for Inactive)
REMARK    1  A    between atoms: C_1  and  C_2
REMARK    2  A    between atoms: C_2  and  O_3
REMARK    3  A    between atoms: N_6  and  C_7
REMARK    4  A    between atoms: C_9  and  C_10
REMARK    5  A    between atoms: C_10  and  C_11
REMARK    6  A    between atoms: C_11  and  N_12
REMARK    7  A    between atoms: N_12  and  C_13
REMARK    8  A    between atoms: C_16  and  C_17
REMARK    9  A    between atoms: C_23  and  C_24
REMARK                            x       y       z     vdW  Elec       q    Type
REMARK                         _______ _______ _______ _____ _____    ______ ____
ROOT
ATOM      1  C   UNL     1      44.814   7.323  12.010  0.00  0.00    +0.000 A 
ATOM      2  C   UNL     1      46.057   7.709  12.539  0.00  0.00    +0.000 A 
ATOM      3  C   UNL     1      46.533   9.032  12.443  0.00  0.00    +0.000 A 
ATOM      4  C   UNL     1      45.726   9.981  11.802  0.00  0.00    +0.000 A 
ATOM      5  C   UNL     1      44.484   9.641  11.264  0.00  0.00    +0.000 A 
ATOM      6  C   UNL     1      44.039   8.321  11.394  0.00  0.00    +0.000 A 
ENDROOT
BRANCH   1  11
ATOM      7  C   UNL     1      43.321   2.595  11.760  0.00  0.00    +0.000 C 
ATOM      8  C   UNL     1      44.486   3.295  11.045  0.00  0.00    +0.000 C 
ATOM      9  C   UNL     1      45.528   3.843  12.031  0.00  0.00    +0.000 C 
ATOM     10  C   UNL     1      44.976   4.987  12.879  0.00  0.00    +0.000 C 
ATOM     11  N   UNL     1      44.346   6.018  12.053  0.00  0.00    +0.000 N 
ATOM     12  C   UNL     1      43.406   5.587  10.998  0.00  0.00    +0.000 C 
ATOM     13  C   UNL     1      43.986   4.447  10.159  0.00  0.00    +0.000 C 
ATOM     14  F   UNL     1      45.040   4.945   9.438  0.00  0.00    +0.000 F 
BRANCH   8  15
ATOM     15  O   UNL     1      45.097   2.296  10.213  0.00  0.00    +0.000 OA
ATOM     16  H   UNL     1      44.959   1.425  10.622  0.00  0.00    +0.000 HD
ENDBRANCH   8  15
ENDBRANCH   1  11
BRANCH   5  17
ATOM     17  C   UNL     1      43.654  10.660  10.532  0.00  0.00    +0.000 C 
ATOM     18  F   UNL     1      44.382  11.453   9.694  0.00  0.00    +0.000 F 
ATOM     19  F   UNL     1      42.693  10.089   9.755  0.00  0.00    +0.000 F 
ATOM     20  F   UNL     1      43.003  11.511  11.372  0.00  0.00    +0.000 F 
ENDBRANCH   5  17
BRANCH   3  21
ATOM     21  C   UNL     1      47.910   9.373  12.991  0.00  0.00    +0.000 C 
BRANCH  21  22
ATOM     22  C   UNL     1      48.102   8.982  14.462  0.00  0.00    +0.000 C 
BRANCH  22  23
ATOM     23  N   UNL     1      49.113   7.953  14.661  0.00  0.00    +0.000 N 
ATOM     24  H   UNL     1      49.645   7.717  13.828  0.00  0.00    +0.000 HD
BRANCH  23  25
ATOM     25  C   UNL     1      48.742   6.809  15.386  0.00  0.00    +0.000 A 
ATOM     26  C   UNL     1      47.976   5.760  14.857  0.00  0.00    +0.000 A 
ATOM     27  C   UNL     1      47.585   4.671  15.645  0.00  0.00    +0.000 A 
ATOM     28  C   UNL     1      47.931   4.624  16.995  0.00  0.00    +0.000 A 
ATOM     29  C   UNL     1      48.652   5.684  17.553  0.00  0.00    +0.000 A 
ATOM     30  C   UNL     1      49.048   6.763  16.753  0.00  0.00    +0.000 A 
BRANCH  28  31
ATOM     31  C   UNL     1      47.483   3.452  17.797  0.00  0.00    +0.000 C 
ATOM     32  N   UNL     1      48.264   3.085  18.856  0.00  0.00    +0.000 N 
ATOM     33  O   UNL     1      46.483   2.814  17.502  0.00  0.00    +0.000 OA
ATOM     34  H   UNL     1      49.205   3.425  18.986  0.00  0.00    +0.000 HD
ATOM     35  H   UNL     1      48.004   2.226  19.323  0.00  0.00    +0.000 HD
ENDBRANCH  28  31
ENDBRANCH  23  25
ENDBRANCH  22  23
ENDBRANCH  21  22
ENDBRANCH   3  21
TORSDOF 8
ENDMDL
MODEL 9
REMARK VINA RESULT:    -7.005      4.056      7.448
REMARK INTER + INTRA:         -11.384
REMARK INTER:                  -9.679
REMARK INTRA:                  -1.705
REMARK UNBOUND:                -1.307
REMARK  Name = 
REMARK  9 active torsions:
REMARK  status: ('A' for Active; 'I' for Inactive)
REMARK    1  A    between atoms: C_1  and  C_2
REMARK    2  A    between atoms: C_2  and  O_3
REMARK    3  A    between atoms: N_6  and  C_7
REMARK    4  A    between atoms: C_9  and  C_10
REMARK    5  A    between atoms: C_10  and  C_11
REMARK    6  A    between atoms: C_11  and  N_12
REMARK    7  A    between atoms: N_12  and  C_13
REMARK    8  A    between atoms: C_16  and  C_17
REMARK    9  A    between atoms: C_23  and  C_24
REMARK                            x       y       z     vdW  Elec       q    Type
REMARK                         _______ _______ _______ _____ _____    ______ ____
ROOT
ATOM      1  C   UNL     1      46.999   5.099  13.627  0.00  0.00    +0.000 A 
ATOM      2  C   UNL     1      47.767   6.272  13.719  0.00  0.00    +0.000 A 
ATOM      3  C   UNL     1      48.505   6.594  14.874  0.00  0.00    +0.000 A 
ATOM      4  C   UNL     1      48.466   5.703  15.955  0.00  0.00    +0.000 A 
ATOM      5  C   UNL     1      47.717   4.527  15.906  0.00  0.00    +0.000 A 
ATOM      6  C   UNL     1      47.010   4.233  14.735  0.00  0.00    +0.000 A 
ENDROOT
BRANCH   1  11
ATOM      7  C   UNL     1      43.888   3.966   9.927  0.00  0.00    +0.000 C 
ATOM      8  C   UNL     1      43.606   4.661  11.267  0.00  0.00    +0.000 C 
ATOM      9  C   UNL     1      44.371   5.986  11.406  0.00  0.00    +0.000 C 
ATOM     10  C   UNL     1      45.881   5.775  11.498  0.00  0.00    +0.000 C 
ATOM     11  N   UNL     1      46.228   4.784  12.517  0.00  0.00    +0.000 N 
ATOM     12  C   UNL     1      45.474   3.513  12.538  0.00  0.00    +0.000 C 
ATOM     13  C   UNL     1      43.966   3.753  12.454  0.00  0.00    +0.000 C 
ATOM     14  F   UNL     1      43.567   4.358  13.616  0.00  0.00    +0.000 F 
BRANCH   8  15
ATOM     15  O   UNL     1      42.194   4.922  11.288  0.00  0.00    +0.000 OA
ATOM     16  H   UNL     1      41.726   4.115  11.015  0.00  0.00    +0.000 HD
ENDBRANCH   8  15
ENDBRANCH   1  11
BRANCH   5  17
ATOM     17  C   UNL     1      47.643   3.608  17.095  0.00  0.00    +0.000 C 
ATOM     18  F   UNL     1      46.368   3.255  17.429  0.00  0.00    +0.000 F 
ATOM     19  F   UNL     1      48.308   2.438  16.893  0.00  0.00    +0.000 F 
ATOM     20  F   UNL     1      48.180   4.157  18.219  0.00  0.00    +0.000 F 
ENDBRANCH   5  17
BRANCH   3  21
ATOM     21  C   UNL     1      49.276   7.905  14.929  0.00  0.00    +0.000 C 
BRANCH  21  22
ATOM     22  C   UNL     1      48.382   9.148  14.836  0.00  0.00    +0.000 C 
BRANCH  22  23
ATOM     23  N   UNL     1      48.463   9.824  13.548  0.00  0.00    +0.000 N 
ATOM     24  H   UNL     1      48.978  10.700  13.561  0.00  0.00    +0.000 HD
BRANCH  23  25
ATOM     25  C   UNL     1      47.284   9.923  12.791  0.00  0.00    +0.000 A 
ATOM     26  C   UNL     1      47.091  10.854  11.760  0.00  0.00    +0.000 A 
ATOM     27  C   UNL     1      45.871  10.948  11.078  0.00  0.00    +0.000 A 
ATOM     28  C   UNL     1      44.804  10.125  11.438  0.00  0.00    +0.000 A 
ATOM     29  C   UNL     1      44.961   9.226  12.496  0.00  0.00    +0.000 A 
ATOM     30  C   UNL     1      46.189   9.132  13.163  0.00  0.00    +0.000 A 
BRANCH  28  31
ATOM     31  C   UNL     1      43.523  10.269  10.694  0.00  0.00    +0.000 C 
ATOM     32  N   UNL     1      42.671   9.200  10.705  0.00  0.00    +0.000 N 
ATOM     33  O   UNL     1      43.254  11.280  10.062  0.00  0.00    +0.000 OA
ATOM     34  H   UNL     1      42.953   8.279  11.002  0.00  0.00    +0.000 HD
ATOM     35  H   UNL     1      41.857   9.275  10.108  0.00  0.00    +0.000 HD
ENDBRANCH  28  31
ENDBRANCH  23  25
ENDBRANCH  22  23
ENDBRANCH  21  22
ENDBRANCH   3  21
TORSDOF 8
ENDMDL
