MODEL 1
REMARK VINA RESULT:    -9.699      0.000      0.000
REMARK INTER + INTRA:         -13.468
REMARK INTER:                 -13.101
REMARK INTRA:                  -0.368
REMARK UNBOUND:                -0.368
REMARK  Name = 
REMARK  7 active torsions:
REMARK  status: ('A' for Active; 'I' for Inactive)
REMARK    1  A    between atoms: C_1  and  O_2
REMARK    2  A    between atoms: O_2  and  C_3
REMARK    3  A    between atoms: C_6  and  C_7
REMARK    4  A    between atoms: C_11  and  C_12
REMARK    5  A    between atoms: C_12  and  N_13
REMARK    6  A    between atoms: N_13  and  C_14
REMARK    7  A    between atoms: C_17  and  C_18
REMARK                            x       y       z     vdW  Elec       q    Type
REMARK                         _______ _______ _______ _____ _____    ______ ____
ROOT
ATOM      1  C   UNL     1      43.917   4.993  11.546  0.00  0.00    +0.000 C 
ATOM      2  C   UNL     1      42.741   5.229  12.466  0.00  0.00    +0.000 C 
ATOM      3  C   UNL     1      43.291   3.849  12.350  0.00  0.00    +0.000 C 
ENDROOT
BRANCH   1   8
ATOM      4  C   UNL     1      47.092   5.614  13.673  0.00  0.00    +0.000 A 
ATOM      5  C   UNL     1      47.811   6.437  12.796  0.00  0.00    +0.000 A 
ATOM      6  C   UNL     1      47.276   6.847  11.576  0.00  0.00    +0.000 A 
ATOM      7  C   UNL     1      46.018   6.399  11.183  0.00  0.00    +0.000 A 
ATOM      8  C   UNL     1      45.271   5.531  11.991  0.00  0.00    +0.000 A 
ATOM      9  C   UNL     1      45.832   5.162  13.227  0.00  0.00    +0.000 A 
BRANCH   4  13
ATOM     10  C   UNL     1      48.492   4.056  17.385  0.00  0.00    +0.000 A 
ATOM     11  C   UNL     1      47.711   3.366  16.475  0.00  0.00    +0.000 A 
ATOM     12  N   UNL     1      47.278   3.883  15.300  0.00  0.00    +0.000 NA
ATOM     13  C   UNL     1      47.609   5.173  14.992  0.00  0.00    +0.000 A 
ATOM     14  C   UNL     1      48.358   5.950  15.886  0.00  0.00    +0.000 A 
ATOM     15 CL   UNL     1      48.717   7.630  15.688  0.00  0.00    +0.000 Cl
ATOM     16  C   UNL     1      48.815   5.371  17.074  0.00  0.00    +0.000 A 
BRANCH  10  18
ATOM     17  C   UNL     1      48.805   4.127  19.727  0.00  0.00    +0.000 C 
ATOM     18  O   UNL     1      48.864   3.386  18.510  0.00  0.00    +0.000 OA
ENDBRANCH  10  18
ENDBRANCH   4  13
ENDBRANCH   1   8
BRANCH   1  19
ATOM     19  N   UNL     1      43.817   4.752  10.097  0.00  0.00    +0.000 N 
ATOM     20  H   UNL     1      42.874   4.895   9.730  0.00  0.00    +0.000 HD
BRANCH  19  21
ATOM     21  C   UNL     1      44.558   3.872   9.300  0.00  0.00    +0.000 A 
ATOM     22  C   UNL     1      44.612   2.490   9.474  0.00  0.00    +0.000 A 
ATOM     23  C   UNL     1      45.497   1.710   8.707  0.00  0.00    +0.000 A 
ATOM     24  C   UNL     1      46.354   2.308   7.772  0.00  0.00    +0.000 A 
ATOM     25  C   UNL     1      46.312   3.690   7.597  0.00  0.00    +0.000 A 
ATOM     26  C   UNL     1      45.428   4.453   8.358  0.00  0.00    +0.000 A 
BRANCH  24  27
ATOM     27  C   UNL     1      47.339   1.462   7.047  0.00  0.00    +0.000 C 
ATOM     28  N   UNL     1      48.431   2.083   6.504  0.00  0.00    +0.000 N 
ATOM     29  O   UNL     1      47.182   0.254   6.927  0.00  0.00    +0.000 OA
ATOM     30  H   UNL     1      48.526   3.084   6.428  0.00  0.00    +0.000 HD
ATOM     31  H   UNL     1      49.064   1.503   5.968  0.00  0.00    +0.000 HD
ENDBRANCH  24  27
ENDBRANCH  19  21
ENDBRANCH   1  19
TORSDOF 6
ENDMDL
MODEL 2
REMARK VINA RESULT:    -9.344      3.057      4.407
REMARK INTER + INTRA:         -12.990
REMARK INTER:                 -11.727
REMARK INTRA:                  -1.262
REMARK UNBOUND:                -0.368
REMARK  Name = 
REMARK  7 active torsions:
REMARK  status: ('A' for Active; 'I' for Inactive)
REMARK    1  A    between atoms: C_1  and  O_2
REMARK    2  A    between atoms: O_2  and  C_3
REMARK    3  A    between atoms: C_6  and  C_7
REMARK    4  A    between atoms: C_11  and  C_12
REMARK    5  A    between atoms: C_12  and  N_13
REMARK    6  A    between atoms: N_13  and  C_14
REMARK    7  A    between atoms: C_17  and  C_18
REMARK                            x       y       z     vdW  Elec       q    Type
REMARK                         _______ _______ _______ _____ _____    ______ ____
ROOT
ATOM      1  C   UNL     1      43.813   5.087  11.316  0.00  0.00    +0.000 C 
ATOM      2  C   UNL     1      43.039   6.358  11.046  0.00  0.00    +0.000 C 
ATOM      3  C   UNL     1      42.517   5.408  12.068  0.00  0.00    +0.000 C 
ENDROOT
BRANCH   1   8
ATOM      4  C   UNL     1      47.218   6.486  12.517  0.00  0.00    +0.000 A 
ATOM      5  C   UNL     1      47.533   5.538  13.501  0.00  0.00    +0.000 A 
ATOM      6  C   UNL     1      46.715   4.434  13.739  0.00  0.00    +0.000 A 
ATOM      7  C   UNL     1      45.532   4.280  13.024  0.00  0.00    +0.000 A 
ATOM      8  C   UNL     1      45.133   5.220  12.065  0.00  0.00    +0.000 A 
ATOM      9  C   UNL     1      45.998   6.306  11.833  0.00  0.00    +0.000 A 
BRANCH   4  13
ATOM     10  C   UNL     1      49.898   9.664  11.580  0.00  0.00    +0.000 A 
ATOM     11  C   UNL     1      50.265   8.345  11.783  0.00  0.00    +0.000 A 
ATOM     12  N   UNL     1      49.394   7.352  12.080  0.00  0.00    +0.000 NA
ATOM     13  C   UNL     1      48.069   7.662  12.211  0.00  0.00    +0.000 A 
ATOM     14  C   UNL     1      47.629   8.984  12.065  0.00  0.00    +0.000 A 
ATOM     15 CL   UNL     1      46.013   9.533  12.349  0.00  0.00    +0.000 Cl
ATOM     16  C   UNL     1      48.552   9.977  11.726  0.00  0.00    +0.000 A 
BRANCH  10  18
ATOM     17  C   UNL     1      51.698  10.191  10.141  0.00  0.00    +0.000 C 
ATOM     18  O   UNL     1      50.893  10.539  11.265  0.00  0.00    +0.000 OA
ENDBRANCH  10  18
ENDBRANCH   4  13
ENDBRANCH   1   8
BRANCH   1  19
ATOM     19  N   UNL     1      43.691   3.845  10.535  0.00  0.00    +0.000 N 
ATOM     20  H   UNL     1      43.259   3.082  11.060  0.00  0.00    +0.000 HD
BRANCH  19  21
ATOM     21  C   UNL     1      44.514   3.371   9.508  0.00  0.00    +0.000 A 
ATOM     22  C   UNL     1      44.919   2.046   9.354  0.00  0.00    +0.000 A 
ATOM     23  C   UNL     1      45.860   1.698   8.368  0.00  0.00    +0.000 A 
ATOM     24  C   UNL     1      46.425   2.677   7.539  0.00  0.00    +0.000 A 
ATOM     25  C   UNL     1      46.033   4.007   7.690  0.00  0.00    +0.000 A 
ATOM     26  C   UNL     1      45.095   4.340   8.666  0.00  0.00    +0.000 A 
BRANCH  24  27
ATOM     27  C   UNL     1      47.484   2.285   6.571  0.00  0.00    +0.000 C 
ATOM     28  N   UNL     1      47.524   2.943   5.372  0.00  0.00    +0.000 N 
ATOM     29  O   UNL     1      48.289   1.398   6.826  0.00  0.00    +0.000 OA
ATOM     30  H   UNL     1      46.793   3.556   5.045  0.00  0.00    +0.000 HD
ATOM     31  H   UNL     1      48.215   2.628   4.703  0.00  0.00    +0.000 HD
ENDBRANCH  24  27
ENDBRANCH  19  21
ENDBRANCH   1  19
TORSDOF 6
ENDMDL
MODEL 3
REMARK VINA RESULT:    -8.529      2.344      3.158
REMARK INTER + INTRA:         -11.888
REMARK INTER:                 -10.895
REMARK INTRA:                  -0.993
REMARK UNBOUND:                -0.368
REMARK  Name = 
REMARK  7 active torsions:
REMARK  status: ('A' for Active; 'I' for Inactive)
REMARK    1  A    between atoms: C_1  and  O_2
REMARK    2  A    between atoms: O_2  and  C_3
REMARK    3  A    between atoms: C_6  and  C_7
REMARK    4  A    between atoms: C_11  and  C_12
REMARK    5  A    between atoms: C_12  and  N_13
REMARK    6  A    between atoms: N_13  and  C_14
REMARK    7  A    between atoms: C_17  and  C_18
REMARK                            x       y       z     vdW  Elec       q    Type
REMARK                         _______ _______ _______ _____ _____    ______ ____
ROOT
ATOM      1  C   UNL     1      44.357   5.877  11.101  0.00  0.00    +0.000 C 
ATOM      2  C   UNL     1      44.097   7.366  11.119  0.00  0.00    +0.000 C 
ATOM      3  C   UNL     1      43.051   6.453  11.658  0.00  0.00    +0.000 C 
ENDROOT
BRANCH   1   8
ATOM      4  C   UNL     1      47.450   5.668  13.422  0.00  0.00    +0.000 A 
ATOM      5  C   UNL     1      47.247   4.398  13.979  0.00  0.00    +0.000 A 
ATOM      6  C   UNL     1      46.183   3.588  13.580  0.00  0.00    +0.000 A 
ATOM      7  C   UNL     1      45.268   4.055  12.643  0.00  0.00    +0.000 A 
ATOM      8  C   UNL     1      45.385   5.336  12.088  0.00  0.00    +0.000 A 
ATOM      9  C   UNL     1      46.486   6.114  12.494  0.00  0.00    +0.000 A 
BRANCH   4  13
ATOM     10  C   UNL     1      50.715   8.056  14.763  0.00  0.00    +0.000 A 
ATOM     11  C   UNL     1      49.995   7.175  15.551  0.00  0.00    +0.000 A 
ATOM     12  N   UNL     1      48.961   6.426  15.101  0.00  0.00    +0.000 NA
ATOM     13  C   UNL     1      48.580   6.554  13.794  0.00  0.00    +0.000 A 
ATOM     14  C   UNL     1      49.232   7.461  12.948  0.00  0.00    +0.000 A 
ATOM     15 CL   UNL     1      48.757   7.827  11.326  0.00  0.00    +0.000 Cl
ATOM     16  C   UNL     1      50.317   8.193  13.439  0.00  0.00    +0.000 A 
BRANCH  10  18
ATOM     17  C   UNL     1      52.653   7.915  16.110  0.00  0.00    +0.000 C 
ATOM     18  O   UNL     1      51.743   8.718  15.361  0.00  0.00    +0.000 OA
ENDBRANCH  10  18
ENDBRANCH   4  13
ENDBRANCH   1   8
BRANCH   1  19
ATOM     19  N   UNL     1      44.111   4.993   9.951  0.00  0.00    +0.000 N 
ATOM     20  H   UNL     1      43.189   4.551   9.974  0.00  0.00    +0.000 HD
BRANCH  19  21
ATOM     21  C   UNL     1      45.030   4.243   9.208  0.00  0.00    +0.000 A 
ATOM     22  C   UNL     1      45.964   4.774   8.320  0.00  0.00    +0.000 A 
ATOM     23  C   UNL     1      46.747   3.924   7.519  0.00  0.00    +0.000 A 
ATOM     24  C   UNL     1      46.590   2.533   7.581  0.00  0.00    +0.000 A 
ATOM     25  C   UNL     1      45.653   1.992   8.460  0.00  0.00    +0.000 A 
ATOM     26  C   UNL     1      44.885   2.842   9.255  0.00  0.00    +0.000 A 
BRANCH  24  27
ATOM     27  C   UNL     1      47.371   1.672   6.652  0.00  0.00    +0.000 C 
ATOM     28  N   UNL     1      48.384   2.259   5.944  0.00  0.00    +0.000 N 
ATOM     29  O   UNL     1      47.117   0.483   6.512  0.00  0.00    +0.000 OA
ATOM     30  H   UNL     1      48.528   3.256   5.893  0.00  0.00    +0.000 HD
ATOM     31  H   UNL     1      48.871   1.675   5.277  0.00  0.00    +0.000 HD
ENDBRANCH  24  27
ENDBRANCH  19  21
ENDBRANCH   1  19
TORSDOF 6
ENDMDL
MODEL 4
REMARK VINA RESULT:    -8.436      2.186      2.611
REMARK INTER + INTRA:         -11.763
REMARK INTER:                 -11.503
REMARK INTRA:                  -0.260
REMARK UNBOUND:                -0.368
REMARK  Name = 
REMARK  7 active torsions:
REMARK  status: ('A' for Active; 'I' for Inactive)
REMARK    1  A    between atoms: C_1  and  O_2
REMARK    2  A    between atoms: O_2  and  C_3
REMARK    3  A    between atoms: C_6  and  C_7
REMARK    4  A    between atoms: C_11  and  C_12
REMARK    5  A    between atoms: C_12  and  N_13
REMARK    6  A    between atoms: N_13  and  C_14
REMARK    7  A    between atoms: C_17  and  C_18
REMARK                            x       y       z     vdW  Elec       q    Type
REMARK                         _______ _______ _______ _____ _____    ______ ____
ROOT
ATOM      1  C   UNL     1      44.104   4.824  11.772  0.00  0.00    +0.000 C 
ATOM      2  C   UNL     1      43.391   4.269  12.985  0.00  0.00    +0.000 C 
ATOM      3  C   UNL     1      44.661   3.626  12.546  0.00  0.00    +0.000 C 
ENDROOT
BRANCH   1   8
ATOM      4  C   UNL     1      46.742   7.496  12.719  0.00  0.00    +0.000 A 
ATOM      5  C   UNL     1      46.152   8.630  12.145  0.00  0.00    +0.000 A 
ATOM      6  C   UNL     1      44.904   8.568  11.524  0.00  0.00    +0.000 A 
ATOM      7  C   UNL     1      44.239   7.351  11.422  0.00  0.00    +0.000 A 
ATOM      8  C   UNL     1      44.800   6.171  11.928  0.00  0.00    +0.000 A 
ATOM      9  C   UNL     1      46.047   6.277  12.572  0.00  0.00    +0.000 A 
BRANCH   4  13
ATOM     10  C   UNL     1      50.387   7.360  14.922  0.00  0.00    +0.000 A 
ATOM     11  C   UNL     1      49.172   6.868  15.362  0.00  0.00    +0.000 A 
ATOM     12  N   UNL     1      48.026   6.922  14.643  0.00  0.00    +0.000 NA
ATOM     13  C   UNL     1      48.053   7.517  13.412  0.00  0.00    +0.000 A 
ATOM     14  C   UNL     1      49.238   8.081  12.920  0.00  0.00    +0.000 A 
ATOM     15 CL   UNL     1      49.376   8.989  11.454  0.00  0.00    +0.000 Cl
ATOM     16  C   UNL     1      50.409   7.976  13.676  0.00  0.00    +0.000 A 
BRANCH  10  18
ATOM     17  C   UNL     1      51.330   6.186  16.744  0.00  0.00    +0.000 C 
ATOM     18  O   UNL     1      51.453   7.207  15.756  0.00  0.00    +0.000 OA
ENDBRANCH  10  18
ENDBRANCH   4  13
ENDBRANCH   1   8
BRANCH   1  19
ATOM     19  N   UNL     1      43.793   4.470  10.378  0.00  0.00    +0.000 N 
ATOM     20  H   UNL     1      42.793   4.338  10.211  0.00  0.00    +0.000 HD
BRANCH  19  21
ATOM     21  C   UNL     1      44.573   3.762   9.457  0.00  0.00    +0.000 A 
ATOM     22  C   UNL     1      44.686   2.373   9.405  0.00  0.00    +0.000 A 
ATOM     23  C   UNL     1      45.606   1.766   8.532  0.00  0.00    +0.000 A 
ATOM     24  C   UNL     1      46.441   2.542   7.716  0.00  0.00    +0.000 A 
ATOM     25  C   UNL     1      46.341   3.932   7.767  0.00  0.00    +0.000 A 
ATOM     26  C   UNL     1      45.422   4.524   8.631  0.00  0.00    +0.000 A 
BRANCH  24  27
ATOM     27  C   UNL     1      47.464   1.867   6.874  0.00  0.00    +0.000 C 
ATOM     28  N   UNL     1      48.525   2.615   6.440  0.00  0.00    +0.000 N 
ATOM     29  O   UNL     1      47.364   0.686   6.566  0.00  0.00    +0.000 OA
ATOM     30  H   UNL     1      48.572   3.620   6.522  0.00  0.00    +0.000 HD
ATOM     31  H   UNL     1      49.183   2.157   5.825  0.00  0.00    +0.000 HD
ENDBRANCH  24  27
ENDBRANCH  19  21
ENDBRANCH   1  19
TORSDOF 6
ENDMDL
MODEL 5
REMARK VINA RESULT:    -8.154      2.973      3.556
REMARK INTER + INTRA:         -11.382
REMARK INTER:                 -10.964
REMARK INTRA:                  -0.419
REMARK UNBOUND:                -0.368
REMARK  Name = 
REMARK  7 active torsions:
REMARK  status: ('A' for Active; 'I' for Inactive)
REMARK    1  A    between atoms: C_1  and  O_2
REMARK    2  A    between atoms: O_2  and  C_3
REMARK    3  A    between atoms: C_6  and  C_7
REMARK    4  A    between atoms: C_11  and  C_12
REMARK    5  A    between atoms: C_12  and  N_13
REMARK    6  A    between atoms: N_13  and  C_14
REMARK    7  A    between atoms: C_17  and  C_18
REMARK                            x       y       z     vdW  Elec       q    Type
REMARK                         _______ _______ _______ _____ _____    ______ ____
ROOT
ATOM      1  C   UNL     1      44.115   4.511  11.654  0.00  0.00    +0.000 C 
ATOM      2  C   UNL     1      43.531   3.946  12.929  0.00  0.00    +0.000 C 
ATOM      3  C   UNL     1      44.846   3.429  12.455  0.00  0.00    +0.000 C 
ENDROOT
BRANCH   1   8
ATOM      4  C   UNL     1      46.540   7.495  12.110  0.00  0.00    +0.000 A 
ATOM      5  C   UNL     1      45.703   8.548  11.716  0.00  0.00    +0.000 A 
ATOM      6  C   UNL     1      44.369   8.329  11.373  0.00  0.00    +0.000 A 
ATOM      7  C   UNL     1      43.855   7.036  11.372  0.00  0.00    +0.000 A 
ATOM      8  C   UNL     1      44.654   5.935  11.705  0.00  0.00    +0.000 A 
ATOM      9  C   UNL     1      45.988   6.198  12.072  0.00  0.00    +0.000 A 
BRANCH   4  13
ATOM     10  C   UNL     1      50.630   8.255  13.037  0.00  0.00    +0.000 A 
ATOM     11  C   UNL     1      49.958   8.748  11.932  0.00  0.00    +0.000 A 
ATOM     12  N   UNL     1      48.657   8.492  11.658  0.00  0.00    +0.000 NA
ATOM     13  C   UNL     1      47.957   7.681  12.508  0.00  0.00    +0.000 A 
ATOM     14  C   UNL     1      48.584   7.108  13.623  0.00  0.00    +0.000 A 
ATOM     15 CL   UNL     1      47.860   5.953  14.688  0.00  0.00    +0.000 Cl
ATOM     16  C   UNL     1      49.919   7.422  13.891  0.00  0.00    +0.000 A 
BRANCH  10  18
ATOM     17  C   UNL     1      52.217   9.502  14.268  0.00  0.00    +0.000 C 
ATOM     18  O   UNL     1      51.933   8.625  13.180  0.00  0.00    +0.000 OA
ENDBRANCH  10  18
ENDBRANCH   4  13
ENDBRANCH   1   8
BRANCH   1  19
ATOM     19  N   UNL     1      43.782   4.047  10.298  0.00  0.00    +0.000 N 
ATOM     20  H   UNL     1      42.828   3.687  10.219  0.00  0.00    +0.000 HD
BRANCH  19  21
ATOM     21  C   UNL     1      44.626   3.499   9.326  0.00  0.00    +0.000 A 
ATOM     22  C   UNL     1      44.939   2.146   9.208  0.00  0.00    +0.000 A 
ATOM     23  C   UNL     1      45.908   1.717   8.284  0.00  0.00    +0.000 A 
ATOM     24  C   UNL     1      46.593   2.640   7.481  0.00  0.00    +0.000 A 
ATOM     25  C   UNL     1      46.292   3.997   7.597  0.00  0.00    +0.000 A 
ATOM     26  C   UNL     1      45.326   4.411   8.511  0.00  0.00    +0.000 A 
BRANCH  24  27
ATOM     27  C   UNL     1      47.675   2.158   6.582  0.00  0.00    +0.000 C 
ATOM     28  N   UNL     1      47.947   2.897   5.462  0.00  0.00    +0.000 N 
ATOM     29  O   UNL     1      48.298   1.131   6.821  0.00  0.00    +0.000 OA
ATOM     30  H   UNL     1      47.362   3.648   5.131  0.00  0.00    +0.000 HD
ATOM     31  H   UNL     1      48.648   2.528   4.833  0.00  0.00    +0.000 HD
ENDBRANCH  24  27
ENDBRANCH  19  21
ENDBRANCH   1  19
TORSDOF 6
ENDMDL
MODEL 6
REMARK VINA RESULT:    -8.058      2.432      8.007
REMARK INTER + INTRA:         -11.252
REMARK INTER:                 -10.014
REMARK INTRA:                  -1.238
REMARK UNBOUND:                -0.368
REMARK  Name = 
REMARK  7 active torsions:
REMARK  status: ('A' for Active; 'I' for Inactive)
REMARK    1  A    between atoms: C_1  and  O_2
REMARK    2  A    between atoms: O_2  and  C_3
REMARK    3  A    between atoms: C_6  and  C_7
REMARK    4  A    between atoms: C_11  and  C_12
REMARK    5  A    between atoms: C_12  and  N_13
REMARK    6  A    between atoms: N_13  and  C_14
REMARK    7  A    between atoms: C_17  and  C_18
REMARK                            x       y       z     vdW  Elec       q    Type
REMARK                         _______ _______ _______ _____ _____    ______ ____
ROOT
ATOM      1  C   UNL     1      46.452   7.606  12.605  0.00  0.00    +0.000 C 
ATOM      2  C   UNL     1      45.990   8.890  13.258  0.00  0.00    +0.000 C 
ATOM      3  C   UNL     1      46.875   8.975  12.063  0.00  0.00    +0.000 C 
ENDROOT
BRANCH   1   8
ATOM      4  C   UNL     1      44.882   5.043  10.164  0.00  0.00    +0.000 A 
ATOM      5  C   UNL     1      43.523   5.257  10.433  0.00  0.00    +0.000 A 
ATOM      6  C   UNL     1      43.102   6.243  11.325  0.00  0.00    +0.000 A 
ATOM      7  C   UNL     1      44.041   7.009  12.007  0.00  0.00    +0.000 A 
ATOM      8  C   UNL     1      45.416   6.809  11.823  0.00  0.00    +0.000 A 
ATOM      9  C   UNL     1      45.802   5.824  10.895  0.00  0.00    +0.000 A 
BRANCH   4  13
ATOM     10  C   UNL     1      46.487   2.341   7.287  0.00  0.00    +0.000 A 
ATOM     11  C   UNL     1      46.660   3.713   7.275  0.00  0.00    +0.000 A 
ATOM     12  N   UNL     1      46.140   4.553   8.201  0.00  0.00    +0.000 NA
ATOM     13  C   UNL     1      45.376   4.025   9.205  0.00  0.00    +0.000 A 
ATOM     14  C   UNL     1      45.118   2.649   9.256  0.00  0.00    +0.000 A 
ATOM     15 CL   UNL     1      44.054   1.876  10.380  0.00  0.00    +0.000 Cl
ATOM     16  C   UNL     1      45.700   1.810   8.302  0.00  0.00    +0.000 A 
BRANCH  10  18
ATOM     17  C   UNL     1      47.854   2.398   5.359  0.00  0.00    +0.000 C 
ATOM     18  O   UNL     1      47.097   1.634   6.295  0.00  0.00    +0.000 OA
ENDBRANCH  10  18
ENDBRANCH   4  13
ENDBRANCH   1   8
BRANCH   1  19
ATOM     19  N   UNL     1      47.614   6.813  13.038  0.00  0.00    +0.000 N 
ATOM     20  H   UNL     1      48.275   6.623  12.281  0.00  0.00    +0.000 HD
BRANCH  19  21
ATOM     21  C   UNL     1      47.691   5.850  14.050  0.00  0.00    +0.000 A 
ATOM     22  C   UNL     1      47.074   4.601  14.015  0.00  0.00    +0.000 A 
ATOM     23  C   UNL     1      47.099   3.763  15.144  0.00  0.00    +0.000 A 
ATOM     24  C   UNL     1      47.723   4.174  16.330  0.00  0.00    +0.000 A 
ATOM     25  C   UNL     1      48.336   5.425  16.377  0.00  0.00    +0.000 A 
ATOM     26  C   UNL     1      48.312   6.246  15.251  0.00  0.00    +0.000 A 
BRANCH  24  27
ATOM     27  C   UNL     1      47.648   3.299  17.530  0.00  0.00    +0.000 C 
ATOM     28  N   UNL     1      48.726   3.284  18.374  0.00  0.00    +0.000 N 
ATOM     29  O   UNL     1      46.666   2.604  17.758  0.00  0.00    +0.000 OA
ATOM     30  H   UNL     1      49.617   3.701  18.151  0.00  0.00    +0.000 HD
ATOM     31  H   UNL     1      48.683   2.645  19.156  0.00  0.00    +0.000 HD
ENDBRANCH  24  27
ENDBRANCH  19  21
ENDBRANCH   1  19
TORSDOF 6
ENDMDL
MODEL 7
REMARK VINA RESULT:    -7.759      2.417      7.751
REMARK INTER + INTRA:         -10.848
REMARK INTER:                  -9.949
REMARK INTRA:                  -0.899
REMARK UNBOUND:                -0.368
REMARK  Name = 
REMARK  7 active torsions:
REMARK  status: ('A' for Active; 'I' for Inactive)
REMARK    1  A    between atoms: C_1  and  O_2
REMARK    2  A    between atoms: O_2  and  C_3
REMARK    3  A    between atoms: C_6  and  C_7
REMARK    4  A    between atoms: C_11  and  C_12
REMARK    5  A    between atoms: C_12  and  N_13
REMARK    6  A    between atoms: N_13  and  C_14
REMARK    7  A    between atoms: C_17  and  C_18
REMARK                            x       y       z     vdW  Elec       q    Type
REMARK                         _______ _______ _______ _____ _____    ______ ____
ROOT
ATOM      1  C   UNL     1      48.387   8.550  12.904  0.00  0.00    +0.000 C 
ATOM      2  C   UNL     1      48.731   9.985  13.237  0.00  0.00    +0.000 C 
ATOM      3  C   UNL     1      49.395   9.345  12.067  0.00  0.00    +0.000 C 
ENDROOT
BRANCH   1   8
ATOM      4  C   UNL     1      45.398   6.710  11.269  0.00  0.00    +0.000 A 
ATOM      5  C   UNL     1      44.441   7.734  11.297  0.00  0.00    +0.000 A 
ATOM      6  C   UNL     1      44.752   9.010  11.765  0.00  0.00    +0.000 A 
ATOM      7  C   UNL     1      46.024   9.277  12.262  0.00  0.00    +0.000 A 
ATOM      8  C   UNL     1      47.010   8.282  12.311  0.00  0.00    +0.000 A 
ATOM      9  C   UNL     1      46.667   7.014  11.805  0.00  0.00    +0.000 A 
BRANCH   4  13
ATOM     10  C   UNL     1      44.794   2.855   9.557  0.00  0.00    +0.000 A 
ATOM     11  C   UNL     1      45.400   3.923   8.920  0.00  0.00    +0.000 A 
ATOM     12  N   UNL     1      45.581   5.140   9.486  0.00  0.00    +0.000 NA
ATOM     13  C   UNL     1      45.122   5.345  10.757  0.00  0.00    +0.000 A 
ATOM     14  C   UNL     1      44.456   4.323  11.448  0.00  0.00    +0.000 A 
ATOM     15 CL   UNL     1      43.700   4.495  12.994  0.00  0.00    +0.000 Cl
ATOM     16  C   UNL     1      44.318   3.070  10.844  0.00  0.00    +0.000 A 
BRANCH  10  18
ATOM     17  C   UNL     1      45.904   1.261   8.208  0.00  0.00    +0.000 C 
ATOM     18  O   UNL     1      44.709   1.689   8.858  0.00  0.00    +0.000 OA
ENDBRANCH  10  18
ENDBRANCH   4  13
ENDBRANCH   1   8
BRANCH   1  19
ATOM     19  N   UNL     1      49.011   7.370  13.524  0.00  0.00    +0.000 N 
ATOM     20  H   UNL     1      49.549   6.806  12.862  0.00  0.00    +0.000 HD
BRANCH  19  21
ATOM     21  C   UNL     1      48.564   6.611  14.611  0.00  0.00    +0.000 A 
ATOM     22  C   UNL     1      49.076   6.690  15.906  0.00  0.00    +0.000 A 
ATOM     23  C   UNL     1      48.653   5.785  16.895  0.00  0.00    +0.000 A 
ATOM     24  C   UNL     1      47.728   4.775  16.595  0.00  0.00    +0.000 A 
ATOM     25  C   UNL     1      47.216   4.683  15.301  0.00  0.00    +0.000 A 
ATOM     26  C   UNL     1      47.638   5.589  14.329  0.00  0.00    +0.000 A 
BRANCH  24  27
ATOM     27  C   UNL     1      47.375   3.780  17.643  0.00  0.00    +0.000 C 
ATOM     28  N   UNL     1      48.012   3.877  18.851  0.00  0.00    +0.000 N 
ATOM     29  O   UNL     1      46.552   2.897  17.438  0.00  0.00    +0.000 OA
ATOM     30  H   UNL     1      48.809   4.472  19.017  0.00  0.00    +0.000 HD
ATOM     31  H   UNL     1      47.801   3.162  19.534  0.00  0.00    +0.000 HD
ENDBRANCH  24  27
ENDBRANCH  19  21
ENDBRANCH   1  19
TORSDOF 6
ENDMDL
MODEL 8
REMARK VINA RESULT:    -7.445      2.952      4.669
REMARK INTER + INTRA:         -10.425
REMARK INTER:                  -9.158
REMARK INTRA:                  -1.267
REMARK UNBOUND:                -0.368
REMARK  Name = 
REMARK  7 active torsions:
REMARK  status: ('A' for Active; 'I' for Inactive)
REMARK    1  A    between atoms: C_1  and  O_2
REMARK    2  A    between atoms: O_2  and  C_3
REMARK    3  A    between atoms: C_6  and  C_7
REMARK    4  A    between atoms: C_11  and  C_12
REMARK    5  A    between atoms: C_12  and  N_13
REMARK    6  A    between atoms: N_13  and  C_14
REMARK    7  A    between atoms: C_17  and  C_18
REMARK                            x       y       z     vdW  Elec       q    Type
REMARK                         _______ _______ _______ _____ _____    ______ ____
ROOT
ATOM      1  C   UNL     1      47.896   7.936  12.893  0.00  0.00    +0.000 C 
ATOM      2  C   UNL     1      49.009   7.623  11.918  0.00  0.00    +0.000 C 
ATOM      3  C   UNL     1      48.547   9.034  12.046  0.00  0.00    +0.000 C 
ENDROOT
BRANCH   1   8
ATOM      4  C   UNL     1      49.203   6.651  16.304  0.00  0.00    +0.000 A 
ATOM      5  C   UNL     1      48.947   7.777  17.099  0.00  0.00    +0.000 A 
ATOM      6  C   UNL     1      48.309   8.905  16.582  0.00  0.00    +0.000 A 
ATOM      7  C   UNL     1      47.955   8.948  15.238  0.00  0.00    +0.000 A 
ATOM      8  C   UNL     1      48.231   7.876  14.378  0.00  0.00    +0.000 A 
ATOM      9  C   UNL     1      48.851   6.745  14.941  0.00  0.00    +0.000 A 
BRANCH   4  13
ATOM     10  C   UNL     1      51.340   3.277  17.790  0.00  0.00    +0.000 A 
ATOM     11  C   UNL     1      51.916   4.459  17.358  0.00  0.00    +0.000 A 
ATOM     12  N   UNL     1      51.216   5.518  16.890  0.00  0.00    +0.000 NA
ATOM     13  C   UNL     1      49.854   5.419  16.814  0.00  0.00    +0.000 A 
ATOM     14  C   UNL     1      49.203   4.236  17.190  0.00  0.00    +0.000 A 
ATOM     15 CL   UNL     1      47.511   3.928  17.005  0.00  0.00    +0.000 Cl
ATOM     16  C   UNL     1      49.957   3.176  17.700  0.00  0.00    +0.000 A 
BRANCH  10  18
ATOM     17  C   UNL     1      52.010   1.012  17.703  0.00  0.00    +0.000 C 
ATOM     18  O   UNL     1      52.184   2.314  18.256  0.00  0.00    +0.000 OA
ENDBRANCH  10  18
ENDBRANCH   4  13
ENDBRANCH   1   8
BRANCH   1  19
ATOM     19  N   UNL     1      46.459   7.807  12.600  0.00  0.00    +0.000 N 
ATOM     20  H   UNL     1      45.888   8.509  13.076  0.00  0.00    +0.000 HD
BRANCH  19  21
ATOM     21  C   UNL     1      45.725   6.655  12.298  0.00  0.00    +0.000 A 
ATOM     22  C   UNL     1      45.256   5.736  13.236  0.00  0.00    +0.000 A 
ATOM     23  C   UNL     1      44.650   4.538  12.819  0.00  0.00    +0.000 A 
ATOM     24  C   UNL     1      44.525   4.234  11.456  0.00  0.00    +0.000 A 
ATOM     25  C   UNL     1      44.998   5.143  10.510  0.00  0.00    +0.000 A 
ATOM     26  C   UNL     1      45.592   6.330  10.934  0.00  0.00    +0.000 A 
BRANCH  24  27
ATOM     27  C   UNL     1      43.962   2.917  11.055  0.00  0.00    +0.000 C 
ATOM     28  N   UNL     1      44.557   2.264  10.010  0.00  0.00    +0.000 N 
ATOM     29  O   UNL     1      42.995   2.432  11.627  0.00  0.00    +0.000 OA
ATOM     30  H   UNL     1      45.241   2.687   9.401  0.00  0.00    +0.000 HD
ATOM     31  H   UNL     1      44.130   1.396   9.714  0.00  0.00    +0.000 HD
ENDBRANCH  24  27
ENDBRANCH  19  21
ENDBRANCH   1  19
TORSDOF 6
ENDMDL
MODEL 9
REMARK VINA RESULT:    -7.378      3.410      8.425
REMARK INTER + INTRA:         -10.333
REMARK INTER:                  -9.377
REMARK INTRA:                  -0.956
REMARK UNBOUND:                -0.368
REMARK  Name = 
REMARK  7 active torsions:
REMARK  status: ('A' for Active; 'I' for Inactive)
REMARK    1  A    between atoms: C_1  and  O_2
REMARK    2  A    between atoms: O_2  and  C_3
REMARK    3  A    between atoms: C_6  and  C_7
REMARK    4  A    between atoms: C_11  and  C_12
REMARK    5  A    between atoms: C_12  and  N_13
REMARK    6  A    between atoms: N_13  and  C_14
REMARK    7  A    between atoms: C_17  and  C_18
REMARK                            x       y       z     vdW  Elec       q    Type
REMARK                         _______ _______ _______ _____ _____    ______ ____
ROOT
ATOM      1  C   UNL     1      48.376   4.911  17.559  0.00  0.00    +0.000 C 
ATOM      2  C   UNL     1      47.157   4.133  17.997  0.00  0.00    +0.000 C 
ATOM      3  C   UNL     1      47.423   5.457  18.627  0.00  0.00    +0.000 C 
ENDROOT
BRANCH   1   8
ATOM      4  C   UNL     1      47.348   5.659  13.901  0.00  0.00    +0.000 A 
ATOM      5  C   UNL     1      48.192   6.746  13.632  0.00  0.00    +0.000 A 
ATOM      6  C   UNL     1      49.122   7.197  14.569  0.00  0.00    +0.000 A 
ATOM      7  C   UNL     1      49.194   6.596  15.821  0.00  0.00    +0.000 A 
ATOM      8  C   UNL     1      48.342   5.540  16.171  0.00  0.00    +0.000 A 
ATOM      9  C   UNL     1      47.435   5.094  15.191  0.00  0.00    +0.000 A 
BRANCH   4  13
ATOM     10  C   UNL     1      44.544   3.853  11.249  0.00  0.00    +0.000 A 
ATOM     11  C   UNL     1      45.362   3.169  12.131  0.00  0.00    +0.000 A 
ATOM     12  N   UNL     1      46.246   3.766  12.965  0.00  0.00    +0.000 NA
ATOM     13  C   UNL     1      46.363   5.127  12.928  0.00  0.00    +0.000 A 
ATOM     14  C   UNL     1      45.601   5.884  12.027  0.00  0.00    +0.000 A 
ATOM     15 CL   UNL     1      45.759   7.588  11.776  0.00  0.00    +0.000 Cl
ATOM     16  C   UNL     1      44.675   5.236  11.205  0.00  0.00    +0.000 A 
BRANCH  10  18
ATOM     17  C   UNL     1      44.296   2.283   9.499  0.00  0.00    +0.000 C 
ATOM     18  O   UNL     1      43.692   3.106  10.493  0.00  0.00    +0.000 OA
ENDBRANCH  10  18
ENDBRANCH   4  13
ENDBRANCH   1   8
BRANCH   1  19
ATOM     19  N   UNL     1      49.735   4.719  18.094  0.00  0.00    +0.000 N 
ATOM     20  H   UNL     1      50.222   5.599  18.275  0.00  0.00    +0.000 HD
BRANCH  19  21
ATOM     21  C   UNL     1      50.627   3.666  17.864  0.00  0.00    +0.000 A 
ATOM     22  C   UNL     1      50.280   2.423  17.339  0.00  0.00    +0.000 A 
ATOM     23  C   UNL     1      51.227   1.385  17.279  0.00  0.00    +0.000 A 
ATOM     24  C   UNL     1      52.529   1.573  17.764  0.00  0.00    +0.000 A 
ATOM     25  C   UNL     1      52.884   2.811  18.298  0.00  0.00    +0.000 A 
ATOM     26  C   UNL     1      51.940   3.835  18.347  0.00  0.00    +0.000 A 
BRANCH  24  27
ATOM     27  C   UNL     1      53.475   0.425  17.767  0.00  0.00    +0.000 C 
ATOM     28  N   UNL     1      53.095  -0.708  18.433  0.00  0.00    +0.000 N 
ATOM     29  O   UNL     1      54.560   0.487  17.205  0.00  0.00    +0.000 OA
ATOM     30  H   UNL     1      52.296  -0.756  19.048  0.00  0.00    +0.000 HD
ATOM     31  H   UNL     1      53.770  -1.460  18.473  0.00  0.00    +0.000 HD
ENDBRANCH  24  27
ENDBRANCH  19  21
ENDBRANCH   1  19
TORSDOF 6
ENDMDL
