MODEL 1
REMARK VINA RESULT:    -9.085      0.000      0.000
REMARK INTER + INTRA:         -11.876
REMARK INTER:                 -11.210
REMARK INTRA:                  -0.667
REMARK UNBOUND:                -0.667
REMARK  Name = 
REMARK  4 active torsions:
REMARK  status: ('A' for Active; 'I' for Inactive)
REMARK    1  A    between atoms: C_2  and  C_4
REMARK    2  A    between atoms: C_8  and  C_9
REMARK    3  A    between atoms: C_9  and  N_10
REMARK    4  A    between atoms: C_15  and  N_16
REMARK                            x       y       z     vdW  Elec       q    Type
REMARK                         _______ _______ _______ _____ _____    ______ ____
ROOT
ATOM      1  C   UNL     1      44.100   6.192  11.369  0.00  0.00    +0.000 C 
ENDROOT
BRANCH   1   2
ATOM      2  N   UNL     1      43.788   4.870  10.846  0.00  0.00    +0.000 N 
ATOM      3  C   UNL     1      43.069   3.921  11.524  0.00  0.00    +0.000 A 
ATOM      4  N   UNL     1      43.314   2.716  11.065  0.00  0.00    +0.000 NA
ATOM      5  C   UNL     1      44.211   2.896  10.043  0.00  0.00    +0.000 A 
ATOM      6  C   UNL     1      44.929   1.938   9.319  0.00  0.00    +0.000 A 
ATOM      7  C   UNL     1      45.833   2.400   8.350  0.00  0.00    +0.000 A 
ATOM      8  C   UNL     1      45.933   3.762   8.022  0.00  0.00    +0.000 A 
ATOM      9  C   UNL     1      45.215   4.722   8.742  0.00  0.00    +0.000 A 
ATOM     10  C   UNL     1      44.419   4.250   9.792  0.00  0.00    +0.000 A 
BRANCH   7  11
ATOM     11  N   UNL     1      46.756   1.444   7.728  0.00  0.00    +0.000 N 
ATOM     12  O   UNL     1      46.585   0.239   7.959  0.00  0.00    +0.000 OA
ATOM     13  O   UNL     1      47.680   1.902   7.039  0.00  0.00    +0.000 OA
ENDBRANCH   7  11
ENDBRANCH   1   2
BRANCH   1  18
ATOM     14  C   UNL     1      46.963   5.149  13.681  0.00  0.00    +0.000 A 
ATOM     15  C   UNL     1      48.011   5.945  13.208  0.00  0.00    +0.000 A 
ATOM     16  C   UNL     1      47.782   6.857  12.175  0.00  0.00    +0.000 A 
ATOM     17  C   UNL     1      46.509   6.974  11.613  0.00  0.00    +0.000 A 
ATOM     18  C   UNL     1      45.450   6.166  12.058  0.00  0.00    +0.000 A 
ATOM     19  C   UNL     1      45.690   5.260  13.100  0.00  0.00    +0.000 A 
BRANCH  14  21
ATOM     20  N   UNL     1      46.841   4.509  16.033  0.00  0.00    +0.000 N 
ATOM     21  C   UNL     1      47.151   4.143  14.756  0.00  0.00    +0.000 C 
ATOM     22  O   UNL     1      47.536   3.007  14.504  0.00  0.00    +0.000 OA
ATOM     23  H   UNL     1      46.886   3.778  16.732  0.00  0.00    +0.000 HD
ATOM     24  H   UNL     1      46.310   5.337  16.252  0.00  0.00    +0.000 HD
ENDBRANCH  14  21
ENDBRANCH   1  18
TORSDOF 4
ENDMDL
MODEL 2
REMARK VINA RESULT:    -8.628      1.822      2.277
REMARK INTER + INTRA:         -11.312
REMARK INTER:                 -10.762
REMARK INTRA:                  -0.550
REMARK UNBOUND:                -0.667
REMARK  Name = 
REMARK  4 active torsions:
REMARK  status: ('A' for Active; 'I' for Inactive)
REMARK    1  A    between atoms: C_2  and  C_4
REMARK    2  A    between atoms: C_8  and  C_9
REMARK    3  A    between atoms: C_9  and  N_10
REMARK    4  A    between atoms: C_15  and  N_16
REMARK                            x       y       z     vdW  Elec       q    Type
REMARK                         _______ _______ _______ _____ _____    ______ ____
ROOT
ATOM      1  C   UNL     1      44.458   5.917  11.014  0.00  0.00    +0.000 C 
ENDROOT
BRANCH   1   2
ATOM      2  N   UNL     1      44.136   4.608  10.465  0.00  0.00    +0.000 N 
ATOM      3  C   UNL     1      43.365   3.672  11.102  0.00  0.00    +0.000 A 
ATOM      4  N   UNL     1      43.600   2.465  10.641  0.00  0.00    +0.000 NA
ATOM      5  C   UNL     1      44.544   2.631   9.661  0.00  0.00    +0.000 A 
ATOM      6  C   UNL     1      45.268   1.662   8.959  0.00  0.00    +0.000 A 
ATOM      7  C   UNL     1      46.225   2.109   8.035  0.00  0.00    +0.000 A 
ATOM      8  C   UNL     1      46.373   3.471   7.725  0.00  0.00    +0.000 A 
ATOM      9  C   UNL     1      45.648   4.443   8.423  0.00  0.00    +0.000 A 
ATOM     10  C   UNL     1      44.796   3.982   9.433  0.00  0.00    +0.000 A 
BRANCH   7  11
ATOM     11  N   UNL     1      47.150   1.136   7.444  0.00  0.00    +0.000 N 
ATOM     12  O   UNL     1      46.939  -0.066   7.656  0.00  0.00    +0.000 OA
ATOM     13  O   UNL     1      48.113   1.576   6.798  0.00  0.00    +0.000 OA
ENDBRANCH   7  11
ENDBRANCH   1   2
BRANCH   1  18
ATOM     14  C   UNL     1      47.869   6.541  12.626  0.00  0.00    +0.000 A 
ATOM     15  C   UNL     1      47.774   5.777  13.794  0.00  0.00    +0.000 A 
ATOM     16  C   UNL     1      46.626   5.019  14.038  0.00  0.00    +0.000 A 
ATOM     17  C   UNL     1      45.575   5.023  13.119  0.00  0.00    +0.000 A 
ATOM     18  C   UNL     1      45.643   5.803  11.952  0.00  0.00    +0.000 A 
ATOM     19  C   UNL     1      46.802   6.554  11.714  0.00  0.00    +0.000 A 
BRANCH  14  21
ATOM     20  N   UNL     1      50.116   7.321  13.172  0.00  0.00    +0.000 N 
ATOM     21  C   UNL     1      49.050   7.388  12.325  0.00  0.00    +0.000 C 
ATOM     22  O   UNL     1      49.085   8.099  11.326  0.00  0.00    +0.000 OA
ATOM     23  H   UNL     1      50.944   7.834  12.893  0.00  0.00    +0.000 HD
ATOM     24  H   UNL     1      50.225   6.592  13.860  0.00  0.00    +0.000 HD
ENDBRANCH  14  21
ENDBRANCH   1  18
TORSDOF 4
ENDMDL
MODEL 3
REMARK VINA RESULT:    -8.327      1.743      6.041
REMARK INTER + INTRA:         -10.941
REMARK INTER:                 -10.457
REMARK INTRA:                  -0.485
REMARK UNBOUND:                -0.667
REMARK  Name = 
REMARK  4 active torsions:
REMARK  status: ('A' for Active; 'I' for Inactive)
REMARK    1  A    between atoms: C_2  and  C_4
REMARK    2  A    between atoms: C_8  and  C_9
REMARK    3  A    between atoms: C_9  and  N_10
REMARK    4  A    between atoms: C_15  and  N_16
REMARK                            x       y       z     vdW  Elec       q    Type
REMARK                         _______ _______ _______ _____ _____    ______ ____
ROOT
ATOM      1  C   UNL     1      43.806   2.562  10.611  0.00  0.00    +0.000 C 
ENDROOT
BRANCH   1   2
ATOM      2  N   UNL     1      43.774   3.642  11.586  0.00  0.00    +0.000 N 
ATOM      3  C   UNL     1      42.860   4.663  11.578  0.00  0.00    +0.000 A 
ATOM      4  N   UNL     1      43.305   5.708  12.237  0.00  0.00    +0.000 NA
ATOM      5  C   UNL     1      44.542   5.341  12.700  0.00  0.00    +0.000 A 
ATOM      6  C   UNL     1      45.521   6.125  13.321  0.00  0.00    +0.000 A 
ATOM      7  C   UNL     1      46.736   5.505  13.651  0.00  0.00    +0.000 A 
ATOM      8  C   UNL     1      46.931   4.124  13.484  0.00  0.00    +0.000 A 
ATOM      9  C   UNL     1      45.954   3.337  12.866  0.00  0.00    +0.000 A 
ATOM     10  C   UNL     1      44.803   4.000  12.426  0.00  0.00    +0.000 A 
BRANCH   7  11
ATOM     11  N   UNL     1      47.858   6.337  14.100  0.00  0.00    +0.000 N 
ATOM     12  O   UNL     1      48.581   5.896  15.004  0.00  0.00    +0.000 OA
ATOM     13  O   UNL     1      47.994   7.452  13.573  0.00  0.00    +0.000 OA
ENDBRANCH   7  11
ENDBRANCH   1   2
BRANCH   1  18
ATOM     14  C   UNL     1      46.398   2.139   7.831  0.00  0.00    +0.000 A 
ATOM     15  C   UNL     1      46.483   3.440   7.324  0.00  0.00    +0.000 A 
ATOM     16  C   UNL     1      45.741   4.466   7.913  0.00  0.00    +0.000 A 
ATOM     17  C   UNL     1      44.913   4.196   9.005  0.00  0.00    +0.000 A 
ATOM     18  C   UNL     1      44.797   2.891   9.512  0.00  0.00    +0.000 A 
ATOM     19  C   UNL     1      45.552   1.871   8.919  0.00  0.00    +0.000 A 
BRANCH  14  21
ATOM     20  N   UNL     1      46.786  -0.260   7.608  0.00  0.00    +0.000 N 
ATOM     21  C   UNL     1      47.141   1.002   7.232  0.00  0.00    +0.000 C 
ATOM     22  O   UNL     1      48.021   1.186   6.398  0.00  0.00    +0.000 OA
ATOM     23  H   UNL     1      47.241  -1.019   7.115  0.00  0.00    +0.000 HD
ATOM     24  H   UNL     1      45.931  -0.466   8.101  0.00  0.00    +0.000 HD
ENDBRANCH  14  21
ENDBRANCH   1  18
TORSDOF 4
ENDMDL
MODEL 4
REMARK VINA RESULT:    -6.939      2.514      6.541
REMARK INTER + INTRA:          -9.229
REMARK INTER:                  -8.632
REMARK INTRA:                  -0.596
REMARK UNBOUND:                -0.667
REMARK  Name = 
REMARK  4 active torsions:
REMARK  status: ('A' for Active; 'I' for Inactive)
REMARK    1  A    between atoms: C_2  and  C_4
REMARK    2  A    between atoms: C_8  and  C_9
REMARK    3  A    between atoms: C_9  and  N_10
REMARK    4  A    between atoms: C_15  and  N_16
REMARK                            x       y       z     vdW  Elec       q    Type
REMARK                         _______ _______ _______ _____ _____    ______ ____
ROOT
ATOM      1  C   UNL     1      43.880   4.488   8.996  0.00  0.00    +0.000 C 
ENDROOT
BRANCH   1   2
ATOM      2  N   UNL     1      44.047   4.662  10.431  0.00  0.00    +0.000 N 
ATOM      3  C   UNL     1      43.070   4.410  11.359  0.00  0.00    +0.000 A 
ATOM      4  N   UNL     1      43.294   5.059  12.478  0.00  0.00    +0.000 NA
ATOM      5  C   UNL     1      44.466   5.740  12.271  0.00  0.00    +0.000 A 
ATOM      6  C   UNL     1      45.077   6.710  13.072  0.00  0.00    +0.000 A 
ATOM      7  C   UNL     1      46.260   7.296  12.595  0.00  0.00    +0.000 A 
ATOM      8  C   UNL     1      46.885   6.847  11.420  0.00  0.00    +0.000 A 
ATOM      9  C   UNL     1      46.278   5.874  10.618  0.00  0.00    +0.000 A 
ATOM     10  C   UNL     1      45.033   5.399  11.045  0.00  0.00    +0.000 A 
BRANCH   7  11
ATOM     11  N   UNL     1      46.807   8.463  13.296  0.00  0.00    +0.000 N 
ATOM     12  O   UNL     1      46.523   9.586  12.858  0.00  0.00    +0.000 OA
ATOM     13  O   UNL     1      47.554   8.255  14.263  0.00  0.00    +0.000 OA
ENDBRANCH   7  11
ENDBRANCH   1   2
BRANCH   1  18
ATOM     14  C   UNL     1      46.514   2.454   7.112  0.00  0.00    +0.000 A 
ATOM     15  C   UNL     1      46.439   1.220   7.767  0.00  0.00    +0.000 A 
ATOM     16  C   UNL     1      45.502   1.027   8.785  0.00  0.00    +0.000 A 
ATOM     17  C   UNL     1      44.641   2.065   9.151  0.00  0.00    +0.000 A 
ATOM     18  C   UNL     1      44.718   3.318   8.521  0.00  0.00    +0.000 A 
ATOM     19  C   UNL     1      45.657   3.497   7.496  0.00  0.00    +0.000 A 
BRANCH  14  21
ATOM     20  N   UNL     1      48.822   2.502   6.321  0.00  0.00    +0.000 N 
ATOM     21  C   UNL     1      47.506   2.727   6.043  0.00  0.00    +0.000 C 
ATOM     22  O   UNL     1      47.154   3.109   4.932  0.00  0.00    +0.000 OA
ATOM     23  H   UNL     1      49.468   2.604   5.547  0.00  0.00    +0.000 HD
ATOM     24  H   UNL     1      49.131   1.977   7.124  0.00  0.00    +0.000 HD
ENDBRANCH  14  21
ENDBRANCH   1  18
TORSDOF 4
ENDMDL
MODEL 5
REMARK VINA RESULT:    -6.850      2.837      3.866
REMARK INTER + INTRA:          -9.119
REMARK INTER:                  -8.865
REMARK INTRA:                  -0.253
REMARK UNBOUND:                -0.667
REMARK  Name = 
REMARK  4 active torsions:
REMARK  status: ('A' for Active; 'I' for Inactive)
REMARK    1  A    between atoms: C_2  and  C_4
REMARK    2  A    between atoms: C_8  and  C_9
REMARK    3  A    between atoms: C_9  and  N_10
REMARK    4  A    between atoms: C_15  and  N_16
REMARK                            x       y       z     vdW  Elec       q    Type
REMARK                         _______ _______ _______ _____ _____    ______ ____
ROOT
ATOM      1  C   UNL     1      44.989   5.620  12.792  0.00  0.00    +0.000 C 
ENDROOT
BRANCH   1   2
ATOM      2  N   UNL     1      44.336   4.811  11.773  0.00  0.00    +0.000 N 
ATOM      3  C   UNL     1      43.377   3.868  12.033  0.00  0.00    +0.000 A 
ATOM      4  N   UNL     1      43.292   2.991  11.059  0.00  0.00    +0.000 NA
ATOM      5  C   UNL     1      44.216   3.395  10.130  0.00  0.00    +0.000 A 
ATOM      6  C   UNL     1      44.655   2.735   8.977  0.00  0.00    +0.000 A 
ATOM      7  C   UNL     1      45.663   3.352   8.220  0.00  0.00    +0.000 A 
ATOM      8  C   UNL     1      46.134   4.639   8.526  0.00  0.00    +0.000 A 
ATOM      9  C   UNL     1      45.694   5.303   9.676  0.00  0.00    +0.000 A 
ATOM     10  C   UNL     1      44.787   4.614  10.488  0.00  0.00    +0.000 A 
BRANCH   7  11
ATOM     11  N   UNL     1      46.299   2.596   7.136  0.00  0.00    +0.000 N 
ATOM     12  O   UNL     1      46.690   1.447   7.383  0.00  0.00    +0.000 OA
ATOM     13  O   UNL     1      46.445   3.167   6.045  0.00  0.00    +0.000 OA
ENDBRANCH   7  11
ENDBRANCH   1   2
BRANCH   1  18
ATOM     14  C   UNL     1      44.132   9.022  11.269  0.00  0.00    +0.000 A 
ATOM     15  C   UNL     1      45.275   9.766  11.578  0.00  0.00    +0.000 A 
ATOM     16  C   UNL     1      46.347   9.155  12.234  0.00  0.00    +0.000 A 
ATOM     17  C   UNL     1      46.277   7.805  12.584  0.00  0.00    +0.000 A 
ATOM     18  C   UNL     1      45.127   7.048  12.303  0.00  0.00    +0.000 A 
ATOM     19  C   UNL     1      44.062   7.669  11.638  0.00  0.00    +0.000 A 
BRANCH  14  21
ATOM     20  N   UNL     1      41.714   9.271  11.052  0.00  0.00    +0.000 N 
ATOM     21  C   UNL     1      42.951   9.621  10.598  0.00  0.00    +0.000 C 
ATOM     22  O   UNL     1      43.080  10.432   9.688  0.00  0.00    +0.000 OA
ATOM     23  H   UNL     1      40.930   9.765  10.643  0.00  0.00    +0.000 HD
ATOM     24  H   UNL     1      41.565   8.800  11.931  0.00  0.00    +0.000 HD
ENDBRANCH  14  21
ENDBRANCH   1  18
TORSDOF 4
ENDMDL
MODEL 6
REMARK VINA RESULT:    -6.621      1.723      6.319
REMARK INTER + INTRA:          -8.836
REMARK INTER:                  -8.199
REMARK INTRA:                  -0.636
REMARK UNBOUND:                -0.667
REMARK  Name = 
REMARK  4 active torsions:
REMARK  status: ('A' for Active; 'I' for Inactive)
REMARK    1  A    between atoms: C_2  and  C_4
REMARK    2  A    between atoms: C_8  and  C_9
REMARK    3  A    between atoms: C_9  and  N_10
REMARK    4  A    between atoms: C_15  and  N_16
REMARK                            x       y       z     vdW  Elec       q    Type
REMARK                         _______ _______ _______ _____ _____    ______ ____
ROOT
ATOM      1  C   UNL     1      44.108   4.978   9.528  0.00  0.00    +0.000 C 
ENDROOT
BRANCH   1   2
ATOM      2  N   UNL     1      44.999   5.611  10.488  0.00  0.00    +0.000 N 
ATOM      3  C   UNL     1      46.029   6.450  10.150  0.00  0.00    +0.000 A 
ATOM      4  N   UNL     1      46.929   6.511  11.104  0.00  0.00    +0.000 NA
ATOM      5  C   UNL     1      46.454   5.696  12.099  0.00  0.00    +0.000 A 
ATOM      6  C   UNL     1      47.090   5.269  13.270  0.00  0.00    +0.000 A 
ATOM      7  C   UNL     1      46.391   4.382  14.102  0.00  0.00    +0.000 A 
ATOM      8  C   UNL     1      45.057   4.024  13.847  0.00  0.00    +0.000 A 
ATOM      9  C   UNL     1      44.417   4.451  12.679  0.00  0.00    +0.000 A 
ATOM     10  C   UNL     1      45.177   5.229  11.798  0.00  0.00    +0.000 A 
BRANCH   7  11
ATOM     11  N   UNL     1      47.102   3.745  15.217  0.00  0.00    +0.000 N 
ATOM     12  O   UNL     1      47.914   2.849  14.949  0.00  0.00    +0.000 OA
ATOM     13  O   UNL     1      46.819   4.115  16.366  0.00  0.00    +0.000 OA
ENDBRANCH   7  11
ENDBRANCH   1   2
BRANCH   1  18
ATOM     14  C   UNL     1      46.365   2.730   7.410  0.00  0.00    +0.000 A 
ATOM     15  C   UNL     1      46.172   1.485   8.017  0.00  0.00    +0.000 A 
ATOM     16  C   UNL     1      45.274   1.360   9.080  0.00  0.00    +0.000 A 
ATOM     17  C   UNL     1      44.570   2.475   9.538  0.00  0.00    +0.000 A 
ATOM     18  C   UNL     1      44.768   3.739   8.956  0.00  0.00    +0.000 A 
ATOM     19  C   UNL     1      45.666   3.851   7.886  0.00  0.00    +0.000 A 
BRANCH  14  21
ATOM     20  N   UNL     1      48.624   2.572   6.501  0.00  0.00    +0.000 N 
ATOM     21  C   UNL     1      47.325   2.932   6.297  0.00  0.00    +0.000 C 
ATOM     22  O   UNL     1      46.958   3.374   5.213  0.00  0.00    +0.000 OA
ATOM     23  H   UNL     1      49.237   2.629   5.697  0.00  0.00    +0.000 HD
ATOM     24  H   UNL     1      48.919   1.999   7.276  0.00  0.00    +0.000 HD
ENDBRANCH  14  21
ENDBRANCH   1  18
TORSDOF 4
ENDMDL
MODEL 7
REMARK VINA RESULT:    -6.353      2.741      6.849
REMARK INTER + INTRA:          -8.505
REMARK INTER:                  -8.013
REMARK INTRA:                  -0.492
REMARK UNBOUND:                -0.667
REMARK  Name = 
REMARK  4 active torsions:
REMARK  status: ('A' for Active; 'I' for Inactive)
REMARK    1  A    between atoms: C_2  and  C_4
REMARK    2  A    between atoms: C_8  and  C_9
REMARK    3  A    between atoms: C_9  and  N_10
REMARK    4  A    between atoms: C_15  and  N_16
REMARK                            x       y       z     vdW  Elec       q    Type
REMARK                         _______ _______ _______ _____ _____    ______ ____
ROOT
ATOM      1  C   UNL     1      44.937   5.695  11.175  0.00  0.00    +0.000 C 
ENDROOT
BRANCH   1   2
ATOM      2  N   UNL     1      45.971   5.511  12.182  0.00  0.00    +0.000 N 
ATOM      3  C   UNL     1      45.823   4.748  13.311  0.00  0.00    +0.000 A 
ATOM      4  N   UNL     1      46.677   5.103  14.243  0.00  0.00    +0.000 NA
ATOM      5  C   UNL     1      47.413   6.119  13.690  0.00  0.00    +0.000 A 
ATOM      6  C   UNL     1      48.346   6.966  14.297  0.00  0.00    +0.000 A 
ATOM      7  C   UNL     1      48.923   7.971  13.505  0.00  0.00    +0.000 A 
ATOM      8  C   UNL     1      48.677   8.056  12.125  0.00  0.00    +0.000 A 
ATOM      9  C   UNL     1      47.747   7.209  11.514  0.00  0.00    +0.000 A 
ATOM     10  C   UNL     1      47.085   6.301  12.348  0.00  0.00    +0.000 A 
BRANCH   7  11
ATOM     11  N   UNL     1      49.733   9.008  14.153  0.00  0.00    +0.000 N 
ATOM     12  O   UNL     1      50.936   9.069  13.863  0.00  0.00    +0.000 OA
ATOM     13  O   UNL     1      49.174   9.739  14.984  0.00  0.00    +0.000 OA
ENDBRANCH   7  11
ENDBRANCH   1   2
BRANCH   1  18
ATOM     14  C   UNL     1      45.777   3.311   8.305  0.00  0.00    +0.000 A 
ATOM     15  C   UNL     1      45.016   2.187   8.640  0.00  0.00    +0.000 A 
ATOM     16  C   UNL     1      44.190   2.215   9.766  0.00  0.00    +0.000 A 
ATOM     17  C   UNL     1      44.125   3.363  10.559  0.00  0.00    +0.000 A 
ATOM     18  C   UNL     1      44.901   4.494  10.252  0.00  0.00    +0.000 A 
ATOM     19  C   UNL     1      45.720   4.456   9.115  0.00  0.00    +0.000 A 
BRANCH  14  21
ATOM     20  N   UNL     1      47.634   2.349   7.046  0.00  0.00    +0.000 N 
ATOM     21  C   UNL     1      46.693   3.332   7.137  0.00  0.00    +0.000 C 
ATOM     22  O   UNL     1      46.587   4.184   6.261  0.00  0.00    +0.000 OA
ATOM     23  H   UNL     1      48.181   2.330   6.195  0.00  0.00    +0.000 HD
ATOM     24  H   UNL     1      47.607   1.511   7.607  0.00  0.00    +0.000 HD
ENDBRANCH  14  21
ENDBRANCH   1  18
TORSDOF 4
ENDMDL
MODEL 8
REMARK VINA RESULT:    -6.260      3.774      5.587
REMARK INTER + INTRA:          -8.391
REMARK INTER:                  -7.812
REMARK INTRA:                  -0.579
REMARK UNBOUND:                -0.667
REMARK  Name = 
REMARK  4 active torsions:
REMARK  status: ('A' for Active; 'I' for Inactive)
REMARK    1  A    between atoms: C_2  and  C_4
REMARK    2  A    between atoms: C_8  and  C_9
REMARK    3  A    between atoms: C_9  and  N_10
REMARK    4  A    between atoms: C_15  and  N_16
REMARK                            x       y       z     vdW  Elec       q    Type
REMARK                         _______ _______ _______ _____ _____    ______ ____
ROOT
ATOM      1  C   UNL     1      49.197   7.016  14.609  0.00  0.00    +0.000 C 
ENDROOT
BRANCH   1   2
ATOM      2  N   UNL     1      48.058   7.290  13.745  0.00  0.00    +0.000 N 
ATOM      3  C   UNL     1      47.546   8.540  13.515  0.00  0.00    +0.000 A 
ATOM      4  N   UNL     1      46.301   8.479  13.103  0.00  0.00    +0.000 NA
ATOM      5  C   UNL     1      46.005   7.141  13.049  0.00  0.00    +0.000 A 
ATOM      6  C   UNL     1      44.772   6.517  12.831  0.00  0.00    +0.000 A 
ATOM      7  C   UNL     1      44.736   5.115  12.881  0.00  0.00    +0.000 A 
ATOM      8  C   UNL     1      45.906   4.350  13.018  0.00  0.00    +0.000 A 
ATOM      9  C   UNL     1      47.141   4.970  13.233  0.00  0.00    +0.000 A 
ATOM     10  C   UNL     1      47.134   6.367  13.312  0.00  0.00    +0.000 A 
BRANCH   7  11
ATOM     11  N   UNL     1      43.434   4.438  12.876  0.00  0.00    +0.000 N 
ATOM     12  O   UNL     1      43.415   3.219  13.097  0.00  0.00    +0.000 OA
ATOM     13  O   UNL     1      42.432   5.119  12.613  0.00  0.00    +0.000 OA
ENDBRANCH   7  11
ENDBRANCH   1   2
BRANCH   1  18
ATOM     14  C   UNL     1      47.983   5.142  17.714  0.00  0.00    +0.000 A 
ATOM     15  C   UNL     1      48.027   6.147  18.685  0.00  0.00    +0.000 A 
ATOM     16  C   UNL     1      48.401   7.445  18.328  0.00  0.00    +0.000 A 
ATOM     17  C   UNL     1      48.732   7.740  17.004  0.00  0.00    +0.000 A 
ATOM     18  C   UNL     1      48.716   6.738  16.019  0.00  0.00    +0.000 A 
ATOM     19  C   UNL     1      48.332   5.441  16.387  0.00  0.00    +0.000 A 
BRANCH  14  21
ATOM     20  N   UNL     1      48.281   3.129  19.062  0.00  0.00    +0.000 N 
ATOM     21  C   UNL     1      47.620   3.740  18.037  0.00  0.00    +0.000 C 
ATOM     22  O   UNL     1      46.729   3.157  17.428  0.00  0.00    +0.000 OA
ATOM     23  H   UNL     1      47.951   2.209  19.324  0.00  0.00    +0.000 HD
ATOM     24  H   UNL     1      48.844   3.634  19.729  0.00  0.00    +0.000 HD
ENDBRANCH  14  21
ENDBRANCH   1  18
TORSDOF 4
ENDMDL
MODEL 9
REMARK VINA RESULT:    -6.141      2.771      7.493
REMARK INTER + INTRA:          -8.244
REMARK INTER:                  -8.145
REMARK INTRA:                  -0.099
REMARK UNBOUND:                -0.667
REMARK  Name = 
REMARK  4 active torsions:
REMARK  status: ('A' for Active; 'I' for Inactive)
REMARK    1  A    between atoms: C_2  and  C_4
REMARK    2  A    between atoms: C_8  and  C_9
REMARK    3  A    between atoms: C_9  and  N_10
REMARK    4  A    between atoms: C_15  and  N_16
REMARK                            x       y       z     vdW  Elec       q    Type
REMARK                         _______ _______ _______ _____ _____    ______ ____
ROOT
ATOM      1  C   UNL     1      46.559   6.571  12.937  0.00  0.00    +0.000 C 
ENDROOT
BRANCH   1   2
ATOM      2  N   UNL     1      47.147   5.531  13.767  0.00  0.00    +0.000 N 
ATOM      3  C   UNL     1      46.782   4.211  13.725  0.00  0.00    +0.000 A 
ATOM      4  N   UNL     1      47.101   3.590  14.837  0.00  0.00    +0.000 NA
ATOM      5  C   UNL     1      47.709   4.540  15.618  0.00  0.00    +0.000 A 
ATOM      6  C   UNL     1      48.096   4.465  16.960  0.00  0.00    +0.000 A 
ATOM      7  C   UNL     1      48.655   5.614  17.540  0.00  0.00    +0.000 A 
ATOM      8  C   UNL     1      48.935   6.763  16.782  0.00  0.00    +0.000 A 
ATOM      9  C   UNL     1      48.552   6.841  15.439  0.00  0.00    +0.000 A 
ATOM     10  C   UNL     1      47.877   5.732  14.916  0.00  0.00    +0.000 A 
BRANCH   7  11
ATOM     11  N   UNL     1      48.870   5.644  18.991  0.00  0.00    +0.000 N 
ATOM     12  O   UNL     1      49.016   6.748  19.532  0.00  0.00    +0.000 OA
ATOM     13  O   UNL     1      48.931   4.558  19.586  0.00  0.00    +0.000 OA
ENDBRANCH   7  11
ENDBRANCH   1   2
BRANCH   1  18
ATOM     14  C   UNL     1      44.747   4.860  10.036  0.00  0.00    +0.000 A 
ATOM     15  C   UNL     1      43.464   4.690  10.566  0.00  0.00    +0.000 A 
ATOM     16  C   UNL     1      43.168   5.174  11.843  0.00  0.00    +0.000 A 
ATOM     17  C   UNL     1      44.151   5.825  12.591  0.00  0.00    +0.000 A 
ATOM     18  C   UNL     1      45.452   5.984  12.085  0.00  0.00    +0.000 A 
ATOM     19  C   UNL     1      45.735   5.501  10.800  0.00  0.00    +0.000 A 
BRANCH  14  21
ATOM     20  N   UNL     1      44.351   3.373   8.142  0.00  0.00    +0.000 N 
ATOM     21  C   UNL     1      45.129   4.345   8.698  0.00  0.00    +0.000 C 
ATOM     22  O   UNL     1      46.093   4.801   8.092  0.00  0.00    +0.000 OA
ATOM     23  H   UNL     1      44.576   3.107   7.192  0.00  0.00    +0.000 HD
ATOM     24  H   UNL     1      43.435   3.138   8.492  0.00  0.00    +0.000 HD
ENDBRANCH  14  21
ENDBRANCH   1  18
TORSDOF 4
ENDMDL
