MODEL 1
REMARK VINA RESULT:    -9.205      0.000      0.000
REMARK INTER + INTRA:         -13.625
REMARK INTER:                 -12.434
REMARK INTRA:                  -1.192
REMARK UNBOUND:                -1.192
REMARK  Name = 
REMARK  6 active torsions:
REMARK  status: ('A' for Active; 'I' for Inactive)
REMARK    1  A    between atoms: C_2  and  C_3
REMARK    2  A    between atoms: N_7  and  C_8
REMARK    3  A    between atoms: C_8  and  C_9
REMARK    4  A    between atoms: C_9  and  C_12
REMARK    5  A    between atoms: C_16  and  C_17
REMARK    6  A    between atoms: C_21  and  C_22
REMARK                            x       y       z     vdW  Elec       q    Type
REMARK                         _______ _______ _______ _____ _____    ______ ____
ROOT
ATOM      1  C   UNL     1      44.974   5.333  12.276  0.00  0.00    +0.000 A 
ATOM      2  C   UNL     1      45.439   6.250  11.326  0.00  0.00    +0.000 A 
ATOM      3  C   UNL     1      46.653   6.902  11.520  0.00  0.00    +0.000 A 
ATOM      4  C   UNL     1      47.408   6.655  12.669  0.00  0.00    +0.000 A 
ATOM      5  C   UNL     1      46.968   5.755  13.656  0.00  0.00    +0.000 A 
ATOM      6  C   UNL     1      45.751   5.087  13.425  0.00  0.00    +0.000 A 
ENDROOT
BRANCH   5   7
ATOM      7  C   UNL     1      47.732   5.554  14.906  0.00  0.00    +0.000 A 
ATOM      8  C   UNL     1      48.624   6.516  15.388  0.00  0.00    +0.000 A 
ATOM      9  N   UNL     1      49.336   6.415  16.537  0.00  0.00    +0.000 NA
ATOM     10  C   UNL     1      49.156   5.297  17.270  0.00  0.00    +0.000 A 
ATOM     11  C   UNL     1      48.301   4.271  16.906  0.00  0.00    +0.000 A 
ATOM     12  C   UNL     1      47.590   4.409  15.702  0.00  0.00    +0.000 A 
BRANCH  11  13
ATOM     13  C   UNL     1      48.135   3.066  17.778  0.00  0.00    +0.000 C 
ATOM     14  F   UNL     1      46.883   2.534  17.745  0.00  0.00    +0.000 F 
ATOM     15  F   UNL     1      48.978   2.056  17.427  0.00  0.00    +0.000 F 
ATOM     16  F   UNL     1      48.394   3.330  19.087  0.00  0.00    +0.000 F 
ENDBRANCH  11  13
ENDBRANCH   5   7
BRANCH   1  17
ATOM     17  C   UNL     1      43.607   4.687  12.117  0.00  0.00    +0.000 C 
ATOM     18  F   UNL     1      42.598   5.515  12.519  0.00  0.00    +0.000 F 
ATOM     19  F   UNL     1      43.474   3.558  12.875  0.00  0.00    +0.000 F 
BRANCH  17  20
ATOM     20  C   UNL     1      43.395   4.320  10.627  0.00  0.00    +0.000 C 
BRANCH  20  25
ATOM     21  C   UNL     1      46.761   2.407   7.251  0.00  0.00    +0.000 A 
ATOM     22  C   UNL     1      46.287   3.698   7.448  0.00  0.00    +0.000 A 
ATOM     23  C   UNL     1      45.344   3.932   8.451  0.00  0.00    +0.000 A 
ATOM     24  C   UNL     1      44.886   2.878   9.239  0.00  0.00    +0.000 A 
ATOM     25  N   UNL     1      43.946   3.032  10.223  0.00  0.00    +0.000 N 
ATOM     26  N   UNL     1      45.347   1.626   9.057  0.00  0.00    +0.000 NA
ATOM     27  C   UNL     1      46.265   1.413   8.077  0.00  0.00    +0.000 A 
ATOM     28  H   UNL     1      43.715   2.189  10.739  0.00  0.00    +0.000 HD
BRANCH  21  30
ATOM     29  N   UNL     1      48.498   1.862   5.412  0.00  0.00    +0.000 NA
ATOM     30  C   UNL     1      47.720   2.111   6.234  0.00  0.00    +0.000 C 
ENDBRANCH  21  30
ENDBRANCH  20  25
ENDBRANCH  17  20
ENDBRANCH   1  17
TORSDOF 6
ENDMDL
MODEL 2
REMARK VINA RESULT:    -8.596      1.532      1.916
REMARK INTER + INTRA:         -12.803
REMARK INTER:                 -11.656
REMARK INTRA:                  -1.147
REMARK UNBOUND:                -1.192
REMARK  Name = 
REMARK  6 active torsions:
REMARK  status: ('A' for Active; 'I' for Inactive)
REMARK    1  A    between atoms: C_2  and  C_3
REMARK    2  A    between atoms: N_7  and  C_8
REMARK    3  A    between atoms: C_8  and  C_9
REMARK    4  A    between atoms: C_9  and  C_12
REMARK    5  A    between atoms: C_16  and  C_17
REMARK    6  A    between atoms: C_21  and  C_22
REMARK                            x       y       z     vdW  Elec       q    Type
REMARK                         _______ _______ _______ _____ _____    ______ ____
ROOT
ATOM      1  C   UNL     1      45.006   5.235  12.588  0.00  0.00    +0.000 A 
ATOM      2  C   UNL     1      45.679   6.149  11.769  0.00  0.00    +0.000 A 
ATOM      3  C   UNL     1      46.965   6.568  12.097  0.00  0.00    +0.000 A 
ATOM      4  C   UNL     1      47.586   6.089  13.253  0.00  0.00    +0.000 A 
ATOM      5  C   UNL     1      46.939   5.183  14.112  0.00  0.00    +0.000 A 
ATOM      6  C   UNL     1      45.650   4.752  13.745  0.00  0.00    +0.000 A 
ENDROOT
BRANCH   5   7
ATOM      7  C   UNL     1      47.569   4.738  15.373  0.00  0.00    +0.000 A 
ATOM      8  C   UNL     1      47.519   3.405  15.792  0.00  0.00    +0.000 A 
ATOM      9  N   UNL     1      48.095   2.918  16.919  0.00  0.00    +0.000 NA
ATOM     10  C   UNL     1      48.773   3.796  17.686  0.00  0.00    +0.000 A 
ATOM     11  C   UNL     1      48.900   5.141  17.382  0.00  0.00    +0.000 A 
ATOM     12  C   UNL     1      48.278   5.609  16.212  0.00  0.00    +0.000 A 
BRANCH  11  13
ATOM     13  C   UNL     1      49.683   6.057  18.269  0.00  0.00    +0.000 C 
ATOM     14  F   UNL     1      49.872   5.572  19.528  0.00  0.00    +0.000 F 
ATOM     15  F   UNL     1      50.927   6.311  17.778  0.00  0.00    +0.000 F 
ATOM     16  F   UNL     1      49.088   7.271  18.422  0.00  0.00    +0.000 F 
ENDBRANCH  11  13
ENDBRANCH   5   7
BRANCH   1  17
ATOM     17  C   UNL     1      43.568   4.844  12.287  0.00  0.00    +0.000 C 
ATOM     18  F   UNL     1      42.684   5.823  12.641  0.00  0.00    +0.000 F 
ATOM     19  F   UNL     1      43.176   3.733  12.978  0.00  0.00    +0.000 F 
BRANCH  17  20
ATOM     20  C   UNL     1      43.432   4.566  10.769  0.00  0.00    +0.000 C 
BRANCH  20  25
ATOM     21  C   UNL     1      46.684   2.480   7.384  0.00  0.00    +0.000 A 
ATOM     22  C   UNL     1      46.309   3.799   7.609  0.00  0.00    +0.000 A 
ATOM     23  C   UNL     1      45.374   4.081   8.606  0.00  0.00    +0.000 A 
ATOM     24  C   UNL     1      44.824   3.047   9.362  0.00  0.00    +0.000 A 
ATOM     25  N   UNL     1      43.885   3.249  10.337  0.00  0.00    +0.000 N 
ATOM     26  N   UNL     1      45.189   1.768   9.152  0.00  0.00    +0.000 NA
ATOM     27  C   UNL     1      46.100   1.508   8.178  0.00  0.00    +0.000 A 
ATOM     28  H   UNL     1      43.583   2.414  10.829  0.00  0.00    +0.000 HD
BRANCH  21  30
ATOM     29  N   UNL     1      48.392   1.852   5.545  0.00  0.00    +0.000 NA
ATOM     30  C   UNL     1      47.631   2.136   6.371  0.00  0.00    +0.000 C 
ENDBRANCH  21  30
ENDBRANCH  20  25
ENDBRANCH  17  20
ENDBRANCH   1  17
TORSDOF 6
ENDMDL
MODEL 3
REMARK VINA RESULT:    -8.522      3.712      4.911
REMARK INTER + INTRA:         -12.703
REMARK INTER:                 -11.580
REMARK INTRA:                  -1.123
REMARK UNBOUND:                -1.192
REMARK  Name = 
REMARK  6 active torsions:
REMARK  status: ('A' for Active; 'I' for Inactive)
REMARK    1  A    between atoms: C_2  and  C_3
REMARK    2  A    between atoms: N_7  and  C_8
REMARK    3  A    between atoms: C_8  and  C_9
REMARK    4  A    between atoms: C_9  and  C_12
REMARK    5  A    between atoms: C_16  and  C_17
REMARK    6  A    between atoms: C_21  and  C_22
REMARK                            x       y       z     vdW  Elec       q    Type
REMARK                         _______ _______ _______ _____ _____    ______ ____
ROOT
ATOM      1  C   UNL     1      44.857   5.246  12.730  0.00  0.00    +0.000 A 
ATOM      2  C   UNL     1      45.707   4.328  13.357  0.00  0.00    +0.000 A 
ATOM      3  C   UNL     1      47.023   4.677  13.644  0.00  0.00    +0.000 A 
ATOM      4  C   UNL     1      47.507   5.940  13.297  0.00  0.00    +0.000 A 
ATOM      5  C   UNL     1      46.691   6.886  12.650  0.00  0.00    +0.000 A 
ATOM      6  C   UNL     1      45.355   6.520  12.395  0.00  0.00    +0.000 A 
ENDROOT
BRANCH   5   7
ATOM      7  C   UNL     1      47.227   8.193  12.215  0.00  0.00    +0.000 A 
ATOM      8  C   UNL     1      46.422   9.333  12.140  0.00  0.00    +0.000 A 
ATOM      9  N   UNL     1      46.848  10.568  11.778  0.00  0.00    +0.000 NA
ATOM     10  C   UNL     1      48.155  10.697  11.474  0.00  0.00    +0.000 A 
ATOM     11  C   UNL     1      49.059   9.649  11.510  0.00  0.00    +0.000 A 
ATOM     12  C   UNL     1      48.576   8.382  11.879  0.00  0.00    +0.000 A 
BRANCH  11  13
ATOM     13  C   UNL     1      50.501   9.868  11.178  0.00  0.00    +0.000 C 
ATOM     14  F   UNL     1      51.140   8.747  10.744  0.00  0.00    +0.000 F 
ATOM     15  F   UNL     1      50.669  10.796  10.196  0.00  0.00    +0.000 F 
ATOM     16  F   UNL     1      51.219  10.319  12.243  0.00  0.00    +0.000 F 
ENDBRANCH  11  13
ENDBRANCH   5   7
BRANCH   1  17
ATOM     17  C   UNL     1      43.447   4.840  12.330  0.00  0.00    +0.000 C 
ATOM     18  F   UNL     1      42.526   5.793  12.656  0.00  0.00    +0.000 F 
ATOM     19  F   UNL     1      43.034   3.703  12.964  0.00  0.00    +0.000 F 
BRANCH  17  20
ATOM     20  C   UNL     1      43.409   4.604  10.799  0.00  0.00    +0.000 C 
BRANCH  20  25
ATOM     21  C   UNL     1      46.628   2.468   7.414  0.00  0.00    +0.000 A 
ATOM     22  C   UNL     1      46.276   3.793   7.641  0.00  0.00    +0.000 A 
ATOM     23  C   UNL     1      45.345   4.089   8.638  0.00  0.00    +0.000 A 
ATOM     24  C   UNL     1      44.777   3.064   9.391  0.00  0.00    +0.000 A 
ATOM     25  N   UNL     1      43.841   3.280  10.366  0.00  0.00    +0.000 N 
ATOM     26  N   UNL     1      45.119   1.778   9.179  0.00  0.00    +0.000 NA
ATOM     27  C   UNL     1      46.028   1.505   8.206  0.00  0.00    +0.000 A 
ATOM     28  H   UNL     1      43.523   2.449  10.856  0.00  0.00    +0.000 HD
BRANCH  21  30
ATOM     29  N   UNL     1      48.334   1.809   5.583  0.00  0.00    +0.000 NA
ATOM     30  C   UNL     1      47.570   2.110   6.402  0.00  0.00    +0.000 C 
ENDBRANCH  21  30
ENDBRANCH  20  25
ENDBRANCH  17  20
ENDBRANCH   1  17
TORSDOF 6
ENDMDL
MODEL 4
REMARK VINA RESULT:    -8.286      3.386      4.240
REMARK INTER + INTRA:         -12.384
REMARK INTER:                 -11.219
REMARK INTRA:                  -1.165
REMARK UNBOUND:                -1.192
REMARK  Name = 
REMARK  6 active torsions:
REMARK  status: ('A' for Active; 'I' for Inactive)
REMARK    1  A    between atoms: C_2  and  C_3
REMARK    2  A    between atoms: N_7  and  C_8
REMARK    3  A    between atoms: C_8  and  C_9
REMARK    4  A    between atoms: C_9  and  C_12
REMARK    5  A    between atoms: C_16  and  C_17
REMARK    6  A    between atoms: C_21  and  C_22
REMARK                            x       y       z     vdW  Elec       q    Type
REMARK                         _______ _______ _______ _____ _____    ______ ____
ROOT
ATOM      1  C   UNL     1      44.812   5.220  11.976  0.00  0.00    +0.000 A 
ATOM      2  C   UNL     1      43.955   6.222  11.507  0.00  0.00    +0.000 A 
ATOM      3  C   UNL     1      44.406   7.534  11.399  0.00  0.00    +0.000 A 
ATOM      4  C   UNL     1      45.712   7.861  11.770  0.00  0.00    +0.000 A 
ATOM      5  C   UNL     1      46.600   6.888  12.263  0.00  0.00    +0.000 A 
ATOM      6  C   UNL     1      46.130   5.563  12.338  0.00  0.00    +0.000 A 
ENDROOT
BRANCH   5   7
ATOM      7  C   UNL     1      47.956   7.251  12.728  0.00  0.00    +0.000 A 
ATOM      8  C   UNL     1      48.349   7.081  14.058  0.00  0.00    +0.000 A 
ATOM      9  N   UNL     1      49.580   7.364  14.551  0.00  0.00    +0.000 NA
ATOM     10  C   UNL     1      50.492   7.839  13.679  0.00  0.00    +0.000 A 
ATOM     11  C   UNL     1      50.231   8.050  12.335  0.00  0.00    +0.000 A 
ATOM     12  C   UNL     1      48.940   7.756  11.866  0.00  0.00    +0.000 A 
BRANCH  11  13
ATOM     13  C   UNL     1      51.297   8.562  11.419  0.00  0.00    +0.000 C 
ATOM     14  F   UNL     1      52.444   8.920  12.058  0.00  0.00    +0.000 F 
ATOM     15  F   UNL     1      51.663   7.640  10.487  0.00  0.00    +0.000 F 
ATOM     16  F   UNL     1      50.900   9.660  10.720  0.00  0.00    +0.000 F 
ENDBRANCH  11  13
ENDBRANCH   5   7
BRANCH   1  17
ATOM     17  C   UNL     1      44.299   3.804  12.185  0.00  0.00    +0.000 C 
ATOM     18  F   UNL     1      43.391   3.731  13.202  0.00  0.00    +0.000 F 
ATOM     19  F   UNL     1      45.296   2.935  12.524  0.00  0.00    +0.000 F 
BRANCH  17  20
ATOM     20  C   UNL     1      43.630   3.315  10.876  0.00  0.00    +0.000 C 
BRANCH  20  25
ATOM     21  C   UNL     1      46.848   2.270   7.011  0.00  0.00    +0.000 A 
ATOM     22  C   UNL     1      46.267   3.461   7.429  0.00  0.00    +0.000 A 
ATOM     23  C   UNL     1      45.401   3.449   8.524  0.00  0.00    +0.000 A 
ATOM     24  C   UNL     1      45.124   2.253   9.183  0.00  0.00    +0.000 A 
ATOM     25  N   UNL     1      44.267   2.165  10.247  0.00  0.00    +0.000 N 
ATOM     26  N   UNL     1      45.689   1.097   8.786  0.00  0.00    +0.000 NA
ATOM     27  C   UNL     1      46.531   1.124   7.718  0.00  0.00    +0.000 A 
ATOM     28  H   UNL     1      44.170   1.238  10.651  0.00  0.00    +0.000 HD
BRANCH  21  30
ATOM     29  N   UNL     1      48.463   2.191   4.991  0.00  0.00    +0.000 NA
ATOM     30  C   UNL     1      47.735   2.226   5.892  0.00  0.00    +0.000 C 
ENDBRANCH  21  30
ENDBRANCH  20  25
ENDBRANCH  17  20
ENDBRANCH   1  17
TORSDOF 6
ENDMDL
MODEL 5
REMARK VINA RESULT:    -8.150      1.553      2.052
REMARK INTER + INTRA:         -12.200
REMARK INTER:                 -11.010
REMARK INTRA:                  -1.190
REMARK UNBOUND:                -1.192
REMARK  Name = 
REMARK  6 active torsions:
REMARK  status: ('A' for Active; 'I' for Inactive)
REMARK    1  A    between atoms: C_2  and  C_3
REMARK    2  A    between atoms: N_7  and  C_8
REMARK    3  A    between atoms: C_8  and  C_9
REMARK    4  A    between atoms: C_9  and  C_12
REMARK    5  A    between atoms: C_16  and  C_17
REMARK    6  A    between atoms: C_21  and  C_22
REMARK                            x       y       z     vdW  Elec       q    Type
REMARK                         _______ _______ _______ _____ _____    ______ ____
ROOT
ATOM      1  C   UNL     1      44.895   5.530  12.243  0.00  0.00    +0.000 A 
ATOM      2  C   UNL     1      44.419   6.615  11.498  0.00  0.00    +0.000 A 
ATOM      3  C   UNL     1      45.155   7.795  11.430  0.00  0.00    +0.000 A 
ATOM      4  C   UNL     1      46.366   7.907  12.116  0.00  0.00    +0.000 A 
ATOM      5  C   UNL     1      46.872   6.847  12.890  0.00  0.00    +0.000 A 
ATOM      6  C   UNL     1      46.124   5.655  12.921  0.00  0.00    +0.000 A 
ENDROOT
BRANCH   5   7
ATOM      7  C   UNL     1      48.115   6.996  13.676  0.00  0.00    +0.000 A 
ATOM      8  C   UNL     1      49.207   7.726  13.198  0.00  0.00    +0.000 A 
ATOM      9  N   UNL     1      50.366   7.930  13.872  0.00  0.00    +0.000 NA
ATOM     10  C   UNL     1      50.460   7.386  15.103  0.00  0.00    +0.000 A 
ATOM     11  C   UNL     1      49.451   6.644  15.692  0.00  0.00    +0.000 A 
ATOM     12  C   UNL     1      48.270   6.446  14.957  0.00  0.00    +0.000 A 
BRANCH  11  13
ATOM     13  C   UNL     1      49.615   6.085  17.070  0.00  0.00    +0.000 C 
ATOM     14  F   UNL     1      49.455   7.008  18.058  0.00  0.00    +0.000 F 
ATOM     15  F   UNL     1      48.720   5.096  17.336  0.00  0.00    +0.000 F 
ATOM     16  F   UNL     1      50.846   5.537  17.267  0.00  0.00    +0.000 F 
ENDBRANCH  11  13
ENDBRANCH   5   7
BRANCH   1  17
ATOM     17  C   UNL     1      44.054   4.274  12.398  0.00  0.00    +0.000 C 
ATOM     18  F   UNL     1      43.023   4.450  13.276  0.00  0.00    +0.000 F 
ATOM     19  F   UNL     1      44.775   3.223  12.889  0.00  0.00    +0.000 F 
BRANCH  17  20
ATOM     20  C   UNL     1      43.476   3.884  11.014  0.00  0.00    +0.000 C 
BRANCH  20  25
ATOM     21  C   UNL     1      46.698   2.425   7.289  0.00  0.00    +0.000 A 
ATOM     22  C   UNL     1      46.220   3.677   7.655  0.00  0.00    +0.000 A 
ATOM     23  C   UNL     1      45.324   3.780   8.721  0.00  0.00    +0.000 A 
ATOM     24  C   UNL     1      44.915   2.635   9.402  0.00  0.00    +0.000 A 
ATOM     25  N   UNL     1      44.020   2.660  10.439  0.00  0.00    +0.000 N 
ATOM     26  N   UNL     1      45.379   1.420   9.055  0.00  0.00    +0.000 NA
ATOM     27  C   UNL     1      46.252   1.335   8.016  0.00  0.00    +0.000 A 
ATOM     28  H   UNL     1      43.823   1.759  10.864  0.00  0.00    +0.000 HD
BRANCH  21  30
ATOM     29  N   UNL     1      48.353   2.124   5.323  0.00  0.00    +0.000 NA
ATOM     30  C   UNL     1      47.611   2.264   6.202  0.00  0.00    +0.000 C 
ENDBRANCH  21  30
ENDBRANCH  20  25
ENDBRANCH  17  20
ENDBRANCH   1  17
TORSDOF 6
ENDMDL
MODEL 6
REMARK VINA RESULT:    -7.587      3.267      8.210
REMARK INTER + INTRA:         -11.440
REMARK INTER:                 -10.285
REMARK INTRA:                  -1.155
REMARK UNBOUND:                -1.192
REMARK  Name = 
REMARK  6 active torsions:
REMARK  status: ('A' for Active; 'I' for Inactive)
REMARK    1  A    between atoms: C_2  and  C_3
REMARK    2  A    between atoms: N_7  and  C_8
REMARK    3  A    between atoms: C_8  and  C_9
REMARK    4  A    between atoms: C_9  and  C_12
REMARK    5  A    between atoms: C_16  and  C_17
REMARK    6  A    between atoms: C_21  and  C_22
REMARK                            x       y       z     vdW  Elec       q    Type
REMARK                         _______ _______ _______ _____ _____    ______ ____
ROOT
ATOM      1  C   UNL     1      45.247   7.005  11.590  0.00  0.00    +0.000 A 
ATOM      2  C   UNL     1      43.883   7.187  11.847  0.00  0.00    +0.000 A 
ATOM      3  C   UNL     1      42.954   6.261  11.379  0.00  0.00    +0.000 A 
ATOM      4  C   UNL     1      43.376   5.154  10.641  0.00  0.00    +0.000 A 
ATOM      5  C   UNL     1      44.735   4.944  10.346  0.00  0.00    +0.000 A 
ATOM      6  C   UNL     1      45.659   5.878  10.852  0.00  0.00    +0.000 A 
ENDROOT
BRANCH   5   7
ATOM      7  C   UNL     1      45.171   3.813   9.499  0.00  0.00    +0.000 A 
ATOM      8  C   UNL     1      44.903   2.486   9.846  0.00  0.00    +0.000 A 
ATOM      9  N   UNL     1      45.245   1.401   9.108  0.00  0.00    +0.000 NA
ATOM     10  C   UNL     1      45.888   1.632   7.945  0.00  0.00    +0.000 A 
ATOM     11  C   UNL     1      46.210   2.898   7.486  0.00  0.00    +0.000 A 
ATOM     12  C   UNL     1      45.849   3.995   8.285  0.00  0.00    +0.000 A 
BRANCH  11  13
ATOM     13  C   UNL     1      46.909   3.082   6.176  0.00  0.00    +0.000 C 
ATOM     14  F   UNL     1      48.172   2.576   6.151  0.00  0.00    +0.000 F 
ATOM     15  F   UNL     1      46.247   2.482   5.149  0.00  0.00    +0.000 F 
ATOM     16  F   UNL     1      47.025   4.393   5.827  0.00  0.00    +0.000 F 
ENDBRANCH  11  13
ENDBRANCH   5   7
BRANCH   1  17
ATOM     17  C   UNL     1      46.257   8.058  12.016  0.00  0.00    +0.000 C 
ATOM     18  F   UNL     1      45.975   8.572  13.249  0.00  0.00    +0.000 F 
ATOM     19  F   UNL     1      46.277   9.131  11.171  0.00  0.00    +0.000 F 
BRANCH  17  20
ATOM     20  C   UNL     1      47.667   7.418  12.048  0.00  0.00    +0.000 C 
BRANCH  20  25
ATOM     21  C   UNL     1      47.460   4.284  16.113  0.00  0.00    +0.000 A 
ATOM     22  C   UNL     1      46.741   4.299  14.924  0.00  0.00    +0.000 A 
ATOM     23  C   UNL     1      47.002   5.297  13.983  0.00  0.00    +0.000 A 
ATOM     24  C   UNL     1      47.969   6.266  14.241  0.00  0.00    +0.000 A 
ATOM     25  N   UNL     1      48.258   7.286  13.374  0.00  0.00    +0.000 N 
ATOM     26  N   UNL     1      48.673   6.252  15.389  0.00  0.00    +0.000 NA
ATOM     27  C   UNL     1      48.410   5.274  16.295  0.00  0.00    +0.000 A 
ATOM     28  H   UNL     1      48.999   7.912  13.672  0.00  0.00    +0.000 HD
BRANCH  21  30
ATOM     29  N   UNL     1      47.033   2.479  17.917  0.00  0.00    +0.000 NA
ATOM     30  C   UNL     1      47.229   3.290  17.112  0.00  0.00    +0.000 C 
ENDBRANCH  21  30
ENDBRANCH  20  25
ENDBRANCH  17  20
ENDBRANCH   1  17
TORSDOF 6
ENDMDL
MODEL 7
REMARK VINA RESULT:    -7.585      3.718      7.956
REMARK INTER + INTRA:         -11.437
REMARK INTER:                 -10.127
REMARK INTRA:                  -1.309
REMARK UNBOUND:                -1.192
REMARK  Name = 
REMARK  6 active torsions:
REMARK  status: ('A' for Active; 'I' for Inactive)
REMARK    1  A    between atoms: C_2  and  C_3
REMARK    2  A    between atoms: N_7  and  C_8
REMARK    3  A    between atoms: C_8  and  C_9
REMARK    4  A    between atoms: C_9  and  C_12
REMARK    5  A    between atoms: C_16  and  C_17
REMARK    6  A    between atoms: C_21  and  C_22
REMARK                            x       y       z     vdW  Elec       q    Type
REMARK                         _______ _______ _______ _____ _____    ______ ____
ROOT
ATOM      1  C   UNL     1      46.753   8.752  12.138  0.00  0.00    +0.000 A 
ATOM      2  C   UNL     1      45.730   9.707  12.128  0.00  0.00    +0.000 A 
ATOM      3  C   UNL     1      44.444   9.351  11.731  0.00  0.00    +0.000 A 
ATOM      4  C   UNL     1      44.171   8.043  11.327  0.00  0.00    +0.000 A 
ATOM      5  C   UNL     1      45.174   7.057  11.306  0.00  0.00    +0.000 A 
ATOM      6  C   UNL     1      46.460   7.433  11.739  0.00  0.00    +0.000 A 
ENDROOT
BRANCH   5   7
ATOM      7  C   UNL     1      44.899   5.693  10.806  0.00  0.00    +0.000 A 
ATOM      8  C   UNL     1      43.951   4.863  11.410  0.00  0.00    +0.000 A 
ATOM      9  N   UNL     1      43.625   3.615  10.992  0.00  0.00    +0.000 NA
ATOM     10  C   UNL     1      44.269   3.150   9.901  0.00  0.00    +0.000 A 
ATOM     11  C   UNL     1      45.226   3.871   9.210  0.00  0.00    +0.000 A 
ATOM     12  C   UNL     1      45.544   5.156   9.682  0.00  0.00    +0.000 A 
BRANCH  11  13
ATOM     13  C   UNL     1      45.888   3.300   7.995  0.00  0.00    +0.000 C 
ATOM     14  F   UNL     1      46.356   2.034   8.170  0.00  0.00    +0.000 F 
ATOM     15  F   UNL     1      45.044   3.241   6.929  0.00  0.00    +0.000 F 
ATOM     16  F   UNL     1      46.954   4.040   7.586  0.00  0.00    +0.000 F 
ENDBRANCH  11  13
ENDBRANCH   5   7
BRANCH   1  17
ATOM     17  C   UNL     1      48.178   9.154  12.482  0.00  0.00    +0.000 C 
ATOM     18  F   UNL     1      48.241   9.901  13.623  0.00  0.00    +0.000 F 
ATOM     19  F   UNL     1      48.748   9.926  11.509  0.00  0.00    +0.000 F 
BRANCH  17  20
ATOM     20  C   UNL     1      49.029   7.874  12.670  0.00  0.00    +0.000 C 
BRANCH  20  25
ATOM     21  C   UNL     1      47.670   4.473  16.271  0.00  0.00    +0.000 A 
ATOM     22  C   UNL     1      47.186   4.699  14.989  0.00  0.00    +0.000 A 
ATOM     23  C   UNL     1      47.745   5.722  14.221  0.00  0.00    +0.000 A 
ATOM     24  C   UNL     1      48.773   6.506  14.741  0.00  0.00    +0.000 A 
ATOM     25  N   UNL     1      49.348   7.540  14.053  0.00  0.00    +0.000 N 
ATOM     26  N   UNL     1      49.250   6.286  15.981  0.00  0.00    +0.000 NA
ATOM     27  C   UNL     1      48.697   5.286  16.717  0.00  0.00    +0.000 A 
ATOM     28  H   UNL     1      50.103   8.017  14.537  0.00  0.00    +0.000 HD
BRANCH  21  30
ATOM     29  N   UNL     1      46.682   2.614  17.775  0.00  0.00    +0.000 NA
ATOM     30  C   UNL     1      47.130   3.444  17.102  0.00  0.00    +0.000 C 
ENDBRANCH  21  30
ENDBRANCH  20  25
ENDBRANCH  17  20
ENDBRANCH   1  17
TORSDOF 6
ENDMDL
MODEL 8
REMARK VINA RESULT:    -7.338      3.951      8.407
REMARK INTER + INTRA:         -11.103
REMARK INTER:                  -9.773
REMARK INTRA:                  -1.330
REMARK UNBOUND:                -1.192
REMARK  Name = 
REMARK  6 active torsions:
REMARK  status: ('A' for Active; 'I' for Inactive)
REMARK    1  A    between atoms: C_2  and  C_3
REMARK    2  A    between atoms: N_7  and  C_8
REMARK    3  A    between atoms: C_8  and  C_9
REMARK    4  A    between atoms: C_9  and  C_12
REMARK    5  A    between atoms: C_16  and  C_17
REMARK    6  A    between atoms: C_21  and  C_22
REMARK                            x       y       z     vdW  Elec       q    Type
REMARK                         _______ _______ _______ _____ _____    ______ ____
ROOT
ATOM      1  C   UNL     1      47.812   8.119  12.168  0.00  0.00    +0.000 A 
ATOM      2  C   UNL     1      47.011   9.189  12.584  0.00  0.00    +0.000 A 
ATOM      3  C   UNL     1      45.653   8.995  12.823  0.00  0.00    +0.000 A 
ATOM      4  C   UNL     1      45.080   7.736  12.635  0.00  0.00    +0.000 A 
ATOM      5  C   UNL     1      45.845   6.639  12.201  0.00  0.00    +0.000 A 
ATOM      6  C   UNL     1      47.221   6.852  11.993  0.00  0.00    +0.000 A 
ENDROOT
BRANCH   5   7
ATOM      7  C   UNL     1      45.220   5.326  11.930  0.00  0.00    +0.000 A 
ATOM      8  C   UNL     1      44.450   4.664  12.890  0.00  0.00    +0.000 A 
ATOM      9  N   UNL     1      43.824   3.475  12.705  0.00  0.00    +0.000 NA
ATOM     10  C   UNL     1      43.957   2.898  11.494  0.00  0.00    +0.000 A 
ATOM     11  C   UNL     1      44.689   3.451  10.457  0.00  0.00    +0.000 A 
ATOM     12  C   UNL     1      45.332   4.677  10.692  0.00  0.00    +0.000 A 
BRANCH  11  13
ATOM     13  C   UNL     1      44.778   2.764   9.130  0.00  0.00    +0.000 C 
ATOM     14  F   UNL     1      44.180   1.542   9.104  0.00  0.00    +0.000 F 
ATOM     15  F   UNL     1      44.192   3.486   8.136  0.00  0.00    +0.000 F 
ATOM     16  F   UNL     1      46.064   2.559   8.735  0.00  0.00    +0.000 F 
ENDBRANCH  11  13
ENDBRANCH   5   7
BRANCH   1  17
ATOM     17  C   UNL     1      49.273   8.343  11.817  0.00  0.00    +0.000 C 
ATOM     18  F   UNL     1      49.448   9.435  11.017  0.00  0.00    +0.000 F 
ATOM     19  F   UNL     1      49.808   7.294  11.123  0.00  0.00    +0.000 F 
BRANCH  17  20
ATOM     20  C   UNL     1      50.079   8.542  13.125  0.00  0.00    +0.000 C 
BRANCH  20  25
ATOM     21  C   UNL     1      48.511   7.054  17.785  0.00  0.00    +0.000 A 
ATOM     22  C   UNL     1      48.420   8.276  17.129  0.00  0.00    +0.000 A 
ATOM     23  C   UNL     1      48.957   8.402  15.847  0.00  0.00    +0.000 A 
ATOM     24  C   UNL     1      49.578   7.313  15.238  0.00  0.00    +0.000 A 
ATOM     25  N   UNL     1      50.147   7.373  13.994  0.00  0.00    +0.000 N 
ATOM     26  N   UNL     1      49.663   6.125  15.867  0.00  0.00    +0.000 NA
ATOM     27  C   UNL     1      49.135   6.016  17.115  0.00  0.00    +0.000 A 
ATOM     28  H   UNL     1      50.547   6.503  13.657  0.00  0.00    +0.000 HD
BRANCH  21  30
ATOM     29  N   UNL     1      47.548   6.727  20.164  0.00  0.00    +0.000 NA
ATOM     30  C   UNL     1      47.985   6.873  19.101  0.00  0.00    +0.000 C 
ENDBRANCH  21  30
ENDBRANCH  20  25
ENDBRANCH  17  20
ENDBRANCH   1  17
TORSDOF 6
ENDMDL
MODEL 9
REMARK VINA RESULT:    -7.223      3.464      8.515
REMARK INTER + INTRA:         -10.949
REMARK INTER:                  -9.932
REMARK INTRA:                  -1.017
REMARK UNBOUND:                -1.192
REMARK  Name = 
REMARK  6 active torsions:
REMARK  status: ('A' for Active; 'I' for Inactive)
REMARK    1  A    between atoms: C_2  and  C_3
REMARK    2  A    between atoms: N_7  and  C_8
REMARK    3  A    between atoms: C_8  and  C_9
REMARK    4  A    between atoms: C_9  and  C_12
REMARK    5  A    between atoms: C_16  and  C_17
REMARK    6  A    between atoms: C_21  and  C_22
REMARK                            x       y       z     vdW  Elec       q    Type
REMARK                         _______ _______ _______ _____ _____    ______ ____
ROOT
ATOM      1  C   UNL     1      47.189   8.114  12.777  0.00  0.00    +0.000 A 
ATOM      2  C   UNL     1      46.386   9.255  12.659  0.00  0.00    +0.000 A 
ATOM      3  C   UNL     1      45.157   9.181  12.011  0.00  0.00    +0.000 A 
ATOM      4  C   UNL     1      44.724   7.972  11.462  0.00  0.00    +0.000 A 
ATOM      5  C   UNL     1      45.507   6.807  11.543  0.00  0.00    +0.000 A 
ATOM      6  C   UNL     1      46.734   6.900  12.228  0.00  0.00    +0.000 A 
ENDROOT
BRANCH   5   7
ATOM      7  C   UNL     1      45.080   5.549  10.895  0.00  0.00    +0.000 A 
ATOM      8  C   UNL     1      44.031   4.777  11.402  0.00  0.00    +0.000 A 
ATOM      9  N   UNL     1      43.567   3.629  10.848  0.00  0.00    +0.000 NA
ATOM     10  C   UNL     1      44.168   3.213   9.715  0.00  0.00    +0.000 A 
ATOM     11  C   UNL     1      45.215   3.886   9.109  0.00  0.00    +0.000 A 
ATOM     12  C   UNL     1      45.675   5.065   9.721  0.00  0.00    +0.000 A 
BRANCH  11  13
ATOM     13  C   UNL     1      45.822   3.376   7.841  0.00  0.00    +0.000 C 
ATOM     14  F   UNL     1      46.338   2.121   7.945  0.00  0.00    +0.000 F 
ATOM     15  F   UNL     1      44.921   3.325   6.821  0.00  0.00    +0.000 F 
ATOM     16  F   UNL     1      46.841   4.163   7.398  0.00  0.00    +0.000 F 
ENDBRANCH  11  13
ENDBRANCH   5   7
BRANCH   1  17
ATOM     17  C   UNL     1      48.571   8.208  13.402  0.00  0.00    +0.000 C 
ATOM     18  F   UNL     1      49.213   9.364  13.059  0.00  0.00    +0.000 F 
ATOM     19  F   UNL     1      49.396   7.199  12.992  0.00  0.00    +0.000 F 
BRANCH  17  20
ATOM     20  C   UNL     1      48.431   8.147  14.943  0.00  0.00    +0.000 C 
BRANCH  20  25
ATOM     21  C   UNL     1      51.124   4.612  17.519  0.00  0.00    +0.000 A 
ATOM     22  C   UNL     1      51.491   5.841  16.987  0.00  0.00    +0.000 A 
ATOM     23  C   UNL     1      50.537   6.602  16.310  0.00  0.00    +0.000 A 
ATOM     24  C   UNL     1      49.234   6.127  16.169  0.00  0.00    +0.000 A 
ATOM     25  N   UNL     1      48.256   6.809  15.496  0.00  0.00    +0.000 N 
ATOM     26  N   UNL     1      48.872   4.939  16.688  0.00  0.00    +0.000 NA
ATOM     27  C   UNL     1      49.811   4.209  17.346  0.00  0.00    +0.000 A 
ATOM     28  H   UNL     1      47.344   6.363  15.486  0.00  0.00    +0.000 HD
BRANCH  21  30
ATOM     29  N   UNL     1      52.820   3.115  18.776  0.00  0.00    +0.000 NA
ATOM     30  C   UNL     1      52.063   3.790  18.216  0.00  0.00    +0.000 C 
ENDBRANCH  21  30
ENDBRANCH  20  25
ENDBRANCH  17  20
ENDBRANCH   1  17
TORSDOF 6
ENDMDL
