MODEL 1
REMARK VINA RESULT:    -9.423      0.000      0.000
REMARK INTER + INTRA:         -13.611
REMARK INTER:                 -12.177
REMARK INTRA:                  -1.434
REMARK UNBOUND:                -1.434
REMARK  Name = 
REMARK  5 active torsions:
REMARK  status: ('A' for Active; 'I' for Inactive)
REMARK    1  A    between atoms: C_2  and  C_4
REMARK    2  A    between atoms: N_8  and  C_9
REMARK    3  A    between atoms: C_9  and  C_10
REMARK    4  A    between atoms: C_14  and  C_15
REMARK    5  A    between atoms: C_19  and  C_20
REMARK                            x       y       z     vdW  Elec       q    Type
REMARK                         _______ _______ _______ _____ _____    ______ ____
ROOT
ATOM      1  C   UNL     1      43.854   4.935  11.333  0.00  0.00    +0.000 C 
ATOM      2  C   UNL     1      42.506   5.171  12.001  0.00  0.00    +0.000 C 
ATOM      3  C   UNL     1      43.007   6.149  10.994  0.00  0.00    +0.000 C 
ENDROOT
BRANCH   1   8
ATOM      4  C   UNL     1      46.603   2.726   7.475  0.00  0.00    +0.000 A 
ATOM      5  C   UNL     1      46.347   4.075   7.701  0.00  0.00    +0.000 A 
ATOM      6  C   UNL     1      45.480   4.442   8.733  0.00  0.00    +0.000 A 
ATOM      7  C   UNL     1      44.875   3.461   9.510  0.00  0.00    +0.000 A 
ATOM      8  N   UNL     1      43.921   3.731  10.492  0.00  0.00    +0.000 N 
ATOM      9  N   UNL     1      45.115   2.150   9.295  0.00  0.00    +0.000 NA
ATOM     10  C   UNL     1      45.961   1.807   8.288  0.00  0.00    +0.000 A 
ATOM     11  H   UNL     1      43.710   2.842  10.941  0.00  0.00    +0.000 HD
BRANCH   4  13
ATOM     12  N   UNL     1      47.733   3.091   5.352  0.00  0.00    +0.000 N 
ATOM     13  C   UNL     1      47.480   2.237   6.391  0.00  0.00    +0.000 C 
ATOM     14  O   UNL     1      47.982   1.122   6.425  0.00  0.00    +0.000 OA
ATOM     15  H   UNL     1      48.398   2.772   4.657  0.00  0.00    +0.000 HD
ATOM     16  H   UNL     1      47.538   4.081   5.391  0.00  0.00    +0.000 HD
ENDBRANCH   4  13
ENDBRANCH   1   8
BRANCH   1  17
ATOM     17  C   UNL     1      45.110   5.201  12.164  0.00  0.00    +0.000 A 
ATOM     18  C   UNL     1      45.582   4.275  13.105  0.00  0.00    +0.000 A 
ATOM     19  C   UNL     1      46.797   4.468  13.758  0.00  0.00    +0.000 A 
ATOM     20  C   UNL     1      47.572   5.594  13.475  0.00  0.00    +0.000 A 
ATOM     21  C   UNL     1      47.144   6.561  12.551  0.00  0.00    +0.000 A 
ATOM     22  C   UNL     1      45.892   6.354  11.943  0.00  0.00    +0.000 A 
BRANCH  21  23
ATOM     23  C   UNL     1      47.994   7.717  12.179  0.00  0.00    +0.000 A 
ATOM     24  C   UNL     1      47.514   9.038  12.221  0.00  0.00    +0.000 A 
ATOM     25  C   UNL     1      48.310  10.119  11.831  0.00  0.00    +0.000 A 
ATOM     26  C   UNL     1      49.622   9.907  11.414  0.00  0.00    +0.000 A 
ATOM     27  C   UNL     1      50.145   8.611  11.374  0.00  0.00    +0.000 A 
ATOM     28  C   UNL     1      49.318   7.531  11.735  0.00  0.00    +0.000 A 
BRANCH  27  29
ATOM     29  C   UNL     1      51.574   8.349  10.973  0.00  0.00    +0.000 C 
ATOM     30  F   UNL     1      51.744   7.194  10.272  0.00  0.00    +0.000 F 
ATOM     31  F   UNL     1      52.077   9.340  10.184  0.00  0.00    +0.000 F 
ATOM     32  F   UNL     1      52.413   8.265  12.043  0.00  0.00    +0.000 F 
ENDBRANCH  27  29
ENDBRANCH  21  23
ENDBRANCH   1  17
TORSDOF 5
ENDMDL
MODEL 2
REMARK VINA RESULT:    -9.054      3.469      5.071
REMARK INTER + INTRA:         -13.135
REMARK INTER:                 -12.034
REMARK INTRA:                  -1.101
REMARK UNBOUND:                -1.434
REMARK  Name = 
REMARK  5 active torsions:
REMARK  status: ('A' for Active; 'I' for Inactive)
REMARK    1  A    between atoms: C_2  and  C_4
REMARK    2  A    between atoms: N_8  and  C_9
REMARK    3  A    between atoms: C_9  and  C_10
REMARK    4  A    between atoms: C_14  and  C_15
REMARK    5  A    between atoms: C_19  and  C_20
REMARK                            x       y       z     vdW  Elec       q    Type
REMARK                         _______ _______ _______ _____ _____    ______ ____
ROOT
ATOM      1  C   UNL     1      44.023   4.878  11.561  0.00  0.00    +0.000 C 
ATOM      2  C   UNL     1      42.785   4.987  12.441  0.00  0.00    +0.000 C 
ATOM      3  C   UNL     1      43.011   5.994  11.367  0.00  0.00    +0.000 C 
ENDROOT
BRANCH   1   8
ATOM      4  C   UNL     1      46.538   2.778   7.489  0.00  0.00    +0.000 A 
ATOM      5  C   UNL     1      46.239   4.116   7.734  0.00  0.00    +0.000 A 
ATOM      6  C   UNL     1      45.445   4.447   8.835  0.00  0.00    +0.000 A 
ATOM      7  C   UNL     1      44.954   3.444   9.662  0.00  0.00    +0.000 A 
ATOM      8  N   UNL     1      44.075   3.674  10.720  0.00  0.00    +0.000 N 
ATOM      9  N   UNL     1      45.236   2.143   9.428  0.00  0.00    +0.000 NA
ATOM     10  C   UNL     1      46.010   1.835   8.355  0.00  0.00    +0.000 A 
ATOM     11  H   UNL     1      43.943   2.779  11.186  0.00  0.00    +0.000 HD
BRANCH   4  13
ATOM     12  N   UNL     1      47.188   2.999   5.156  0.00  0.00    +0.000 N 
ATOM     13  C   UNL     1      47.343   2.325   6.336  0.00  0.00    +0.000 C 
ATOM     14  O   UNL     1      48.135   1.398   6.431  0.00  0.00    +0.000 OA
ATOM     15  H   UNL     1      47.803   2.728   4.397  0.00  0.00    +0.000 HD
ATOM     16  H   UNL     1      46.732   3.898   5.088  0.00  0.00    +0.000 HD
ENDBRANCH   4  13
ENDBRANCH   1   8
BRANCH   1  17
ATOM     17  C   UNL     1      45.363   5.284  12.176  0.00  0.00    +0.000 A 
ATOM     18  C   UNL     1      46.094   6.378  11.693  0.00  0.00    +0.000 A 
ATOM     19  C   UNL     1      47.244   6.819  12.344  0.00  0.00    +0.000 A 
ATOM     20  C   UNL     1      47.684   6.173  13.501  0.00  0.00    +0.000 A 
ATOM     21  C   UNL     1      46.998   5.064  14.023  0.00  0.00    +0.000 A 
ATOM     22  C   UNL     1      45.866   4.622  13.316  0.00  0.00    +0.000 A 
BRANCH  21  23
ATOM     23  C   UNL     1      47.405   4.423  15.296  0.00  0.00    +0.000 A 
ATOM     24  C   UNL     1      47.782   3.070  15.360  0.00  0.00    +0.000 A 
ATOM     25  C   UNL     1      48.127   2.463  16.571  0.00  0.00    +0.000 A 
ATOM     26  C   UNL     1      48.130   3.204  17.750  0.00  0.00    +0.000 A 
ATOM     27  C   UNL     1      47.778   4.558  17.728  0.00  0.00    +0.000 A 
ATOM     28  C   UNL     1      47.398   5.143  16.506  0.00  0.00    +0.000 A 
BRANCH  27  29
ATOM     29  C   UNL     1      47.816   5.402  18.976  0.00  0.00    +0.000 C 
ATOM     30  F   UNL     1      48.547   6.543  18.845  0.00  0.00    +0.000 F 
ATOM     31  F   UNL     1      46.572   5.801  19.366  0.00  0.00    +0.000 F 
ATOM     32  F   UNL     1      48.344   4.740  20.042  0.00  0.00    +0.000 F 
ENDBRANCH  27  29
ENDBRANCH  21  23
ENDBRANCH   1  17
TORSDOF 5
ENDMDL
MODEL 3
REMARK VINA RESULT:    -7.611      4.486      7.618
REMARK INTER + INTRA:         -11.270
REMARK INTER:                 -10.833
REMARK INTRA:                  -0.437
REMARK UNBOUND:                -1.434
REMARK  Name = 
REMARK  5 active torsions:
REMARK  status: ('A' for Active; 'I' for Inactive)
REMARK    1  A    between atoms: C_2  and  C_4
REMARK    2  A    between atoms: N_8  and  C_9
REMARK    3  A    between atoms: C_9  and  C_10
REMARK    4  A    between atoms: C_14  and  C_15
REMARK    5  A    between atoms: C_19  and  C_20
REMARK                            x       y       z     vdW  Elec       q    Type
REMARK                         _______ _______ _______ _____ _____    ______ ____
ROOT
ATOM      1  C   UNL     1      48.433   7.910  12.774  0.00  0.00    +0.000 C 
ATOM      2  C   UNL     1      49.606   7.386  11.956  0.00  0.00    +0.000 C 
ATOM      3  C   UNL     1      49.306   8.846  11.956  0.00  0.00    +0.000 C 
ENDROOT
BRANCH   1   8
ATOM      4  C   UNL     1      47.939   4.363  16.582  0.00  0.00    +0.000 A 
ATOM      5  C   UNL     1      47.206   4.487  15.405  0.00  0.00    +0.000 A 
ATOM      6  C   UNL     1      47.426   5.590  14.577  0.00  0.00    +0.000 A 
ATOM      7  C   UNL     1      48.359   6.554  14.939  0.00  0.00    +0.000 A 
ATOM      8  N   UNL     1      48.570   7.734  14.226  0.00  0.00    +0.000 N 
ATOM      9  N   UNL     1      49.071   6.444  16.082  0.00  0.00    +0.000 NA
ATOM     10  C   UNL     1      48.848   5.366  16.878  0.00  0.00    +0.000 A 
ATOM     11  H   UNL     1      49.350   8.209  14.677  0.00  0.00    +0.000 HD
BRANCH   4  13
ATOM     12  N   UNL     1      48.812   2.948  18.356  0.00  0.00    +0.000 N 
ATOM     13  C   UNL     1      47.759   3.251  17.537  0.00  0.00    +0.000 C 
ATOM     14  O   UNL     1      46.704   2.637  17.615  0.00  0.00    +0.000 OA
ATOM     15  H   UNL     1      48.647   2.236  19.059  0.00  0.00    +0.000 HD
ATOM     16  H   UNL     1      49.603   3.562  18.491  0.00  0.00    +0.000 HD
ENDBRANCH   4  13
ENDBRANCH   1   8
BRANCH   1  17
ATOM     17  C   UNL     1      47.025   7.657  12.232  0.00  0.00    +0.000 A 
ATOM     18  C   UNL     1      46.035   8.649  12.259  0.00  0.00    +0.000 A 
ATOM     19  C   UNL     1      44.802   8.452  11.643  0.00  0.00    +0.000 A 
ATOM     20  C   UNL     1      44.536   7.254  10.978  0.00  0.00    +0.000 A 
ATOM     21  C   UNL     1      45.485   6.219  10.930  0.00  0.00    +0.000 A 
ATOM     22  C   UNL     1      46.703   6.438  11.598  0.00  0.00    +0.000 A 
BRANCH  21  23
ATOM     23  C   UNL     1      45.247   4.977  10.157  0.00  0.00    +0.000 A 
ATOM     24  C   UNL     1      44.309   4.014  10.567  0.00  0.00    +0.000 A 
ATOM     25  C   UNL     1      44.119   2.827   9.854  0.00  0.00    +0.000 A 
ATOM     26  C   UNL     1      44.846   2.585   8.691  0.00  0.00    +0.000 A 
ATOM     27  C   UNL     1      45.777   3.525   8.238  0.00  0.00    +0.000 A 
ATOM     28  C   UNL     1      45.982   4.698   8.989  0.00  0.00    +0.000 A 
BRANCH  27  29
ATOM     29  C   UNL     1      46.548   3.318   6.959  0.00  0.00    +0.000 C 
ATOM     30  F   UNL     1      45.978   2.412   6.116  0.00  0.00    +0.000 F 
ATOM     31  F   UNL     1      46.671   4.469   6.239  0.00  0.00    +0.000 F 
ATOM     32  F   UNL     1      47.818   2.878   7.177  0.00  0.00    +0.000 F 
ENDBRANCH  27  29
ENDBRANCH  21  23
ENDBRANCH   1  17
TORSDOF 5
ENDMDL
MODEL 4
REMARK VINA RESULT:    -7.602      5.094      8.394
REMARK INTER + INTRA:         -11.258
REMARK INTER:                  -9.913
REMARK INTRA:                  -1.345
REMARK UNBOUND:                -1.434
REMARK  Name = 
REMARK  5 active torsions:
REMARK  status: ('A' for Active; 'I' for Inactive)
REMARK    1  A    between atoms: C_2  and  C_4
REMARK    2  A    between atoms: N_8  and  C_9
REMARK    3  A    between atoms: C_9  and  C_10
REMARK    4  A    between atoms: C_14  and  C_15
REMARK    5  A    between atoms: C_19  and  C_20
REMARK                            x       y       z     vdW  Elec       q    Type
REMARK                         _______ _______ _______ _____ _____    ______ ____
ROOT
ATOM      1  C   UNL     1      49.116   8.089  12.890  0.00  0.00    +0.000 C 
ATOM      2  C   UNL     1      50.091   8.236  11.731  0.00  0.00    +0.000 C 
ATOM      3  C   UNL     1      49.825   9.404  12.617  0.00  0.00    +0.000 C 
ENDROOT
BRANCH   1   8
ATOM      4  C   UNL     1      48.397   6.876  17.924  0.00  0.00    +0.000 A 
ATOM      5  C   UNL     1      48.369   8.128  17.316  0.00  0.00    +0.000 A 
ATOM      6  C   UNL     1      48.710   8.239  15.966  0.00  0.00    +0.000 A 
ATOM      7  C   UNL     1      49.085   7.108  15.251  0.00  0.00    +0.000 A 
ATOM      8  N   UNL     1      49.537   7.141  13.931  0.00  0.00    +0.000 N 
ATOM      9  N   UNL     1      49.118   5.890  15.834  0.00  0.00    +0.000 NA
ATOM     10  C   UNL     1      48.783   5.796  17.147  0.00  0.00    +0.000 A 
ATOM     11  H   UNL     1      49.669   6.172  13.647  0.00  0.00    +0.000 HD
BRANCH   4  13
ATOM     12  N   UNL     1      47.348   5.552  19.673  0.00  0.00    +0.000 N 
ATOM     13  C   UNL     1      48.082   6.660  19.351  0.00  0.00    +0.000 C 
ATOM     14  O   UNL     1      48.480   7.425  20.219  0.00  0.00    +0.000 OA
ATOM     15  H   UNL     1      47.208   5.374  20.661  0.00  0.00    +0.000 HD
ATOM     16  H   UNL     1      47.199   4.782  19.036  0.00  0.00    +0.000 HD
ENDBRANCH   4  13
ENDBRANCH   1   8
BRANCH   1  17
ATOM     17  C   UNL     1      47.623   8.048  12.557  0.00  0.00    +0.000 A 
ATOM     18  C   UNL     1      46.819   9.193  12.634  0.00  0.00    +0.000 A 
ATOM     19  C   UNL     1      45.495   9.173  12.200  0.00  0.00    +0.000 A 
ATOM     20  C   UNL     1      44.950   8.001  11.673  0.00  0.00    +0.000 A 
ATOM     21  C   UNL     1      45.705   6.820  11.584  0.00  0.00    +0.000 A 
ATOM     22  C   UNL     1      47.024   6.867  12.070  0.00  0.00    +0.000 A 
BRANCH  21  23
ATOM     23  C   UNL     1      45.166   5.594  10.949  0.00  0.00    +0.000 A 
ATOM     24  C   UNL     1      44.080   4.889  11.497  0.00  0.00    +0.000 A 
ATOM     25  C   UNL     1      43.602   3.712  10.913  0.00  0.00    +0.000 A 
ATOM     26  C   UNL     1      44.183   3.224   9.746  0.00  0.00    +0.000 A 
ATOM     27  C   UNL     1      45.255   3.904   9.158  0.00  0.00    +0.000 A 
ATOM     28  C   UNL     1      45.747   5.067   9.779  0.00  0.00    +0.000 A 
BRANCH  27  29
ATOM     29  C   UNL     1      45.878   3.430   7.870  0.00  0.00    +0.000 C 
ATOM     30  F   UNL     1      44.988   3.297   6.847  0.00  0.00    +0.000 F 
ATOM     31  F   UNL     1      46.839   4.284   7.417  0.00  0.00    +0.000 F 
ATOM     32  F   UNL     1      46.487   2.219   7.996  0.00  0.00    +0.000 F 
ENDBRANCH  27  29
ENDBRANCH  21  23
ENDBRANCH   1  17
TORSDOF 5
ENDMDL
MODEL 5
REMARK VINA RESULT:    -7.206      6.373      8.674
REMARK INTER + INTRA:         -10.746
REMARK INTER:                  -9.583
REMARK INTRA:                  -1.164
REMARK UNBOUND:                -1.434
REMARK  Name = 
REMARK  5 active torsions:
REMARK  status: ('A' for Active; 'I' for Inactive)
REMARK    1  A    between atoms: C_2  and  C_4
REMARK    2  A    between atoms: N_8  and  C_9
REMARK    3  A    between atoms: C_9  and  C_10
REMARK    4  A    between atoms: C_14  and  C_15
REMARK    5  A    between atoms: C_19  and  C_20
REMARK                            x       y       z     vdW  Elec       q    Type
REMARK                         _______ _______ _______ _____ _____    ______ ____
ROOT
ATOM      1  C   UNL     1      48.422   5.119  17.569  0.00  0.00    +0.000 C 
ATOM      2  C   UNL     1      47.295   5.535  18.505  0.00  0.00    +0.000 C 
ATOM      3  C   UNL     1      47.173   4.270  17.727  0.00  0.00    +0.000 C 
ENDROOT
BRANCH   1   8
ATOM      4  C   UNL     1      52.374   1.698  17.613  0.00  0.00    +0.000 A 
ATOM      5  C   UNL     1      51.028   1.472  17.337  0.00  0.00    +0.000 A 
ATOM      6  C   UNL     1      50.113   2.515  17.503  0.00  0.00    +0.000 A 
ATOM      7  C   UNL     1      50.551   3.756  17.949  0.00  0.00    +0.000 A 
ATOM      8  N   UNL     1      49.696   4.821  18.238  0.00  0.00    +0.000 N 
ATOM      9  N   UNL     1      51.854   3.982  18.223  0.00  0.00    +0.000 NA
ATOM     10  C   UNL     1      52.733   2.959  18.057  0.00  0.00    +0.000 A 
ATOM     11  H   UNL     1      50.291   5.612  18.473  0.00  0.00    +0.000 HD
BRANCH   4  13
ATOM     12  N   UNL     1      53.192  -0.527  18.155  0.00  0.00    +0.000 N 
ATOM     13  C   UNL     1      53.412   0.653  17.499  0.00  0.00    +0.000 C 
ATOM     14  O   UNL     1      54.419   0.820  16.826  0.00  0.00    +0.000 OA
ATOM     15  H   UNL     1      53.874  -1.262  18.004  0.00  0.00    +0.000 HD
ATOM     16  H   UNL     1      52.290  -0.796  18.523  0.00  0.00    +0.000 HD
ENDBRANCH   4  13
ENDBRANCH   1   8
BRANCH   1  17
ATOM     17  C   UNL     1      48.559   5.876  16.247  0.00  0.00    +0.000 A 
ATOM     18  C   UNL     1      49.674   6.679  15.970  0.00  0.00    +0.000 A 
ATOM     19  C   UNL     1      49.851   7.254  14.713  0.00  0.00    +0.000 A 
ATOM     20  C   UNL     1      48.914   7.031  13.704  0.00  0.00    +0.000 A 
ATOM     21  C   UNL     1      47.771   6.247  13.929  0.00  0.00    +0.000 A 
ATOM     22  C   UNL     1      47.605   5.716  15.221  0.00  0.00    +0.000 A 
BRANCH  21  23
ATOM     23  C   UNL     1      46.813   5.933  12.842  0.00  0.00    +0.000 A 
ATOM     24  C   UNL     1      46.938   6.488  11.557  0.00  0.00    +0.000 A 
ATOM     25  C   UNL     1      46.008   6.218  10.549  0.00  0.00    +0.000 A 
ATOM     26  C   UNL     1      44.940   5.359  10.794  0.00  0.00    +0.000 A 
ATOM     27  C   UNL     1      44.788   4.771  12.054  0.00  0.00    +0.000 A 
ATOM     28  C   UNL     1      45.713   5.083  13.068  0.00  0.00    +0.000 A 
BRANCH  27  29
ATOM     29  C   UNL     1      43.671   3.800  12.341  0.00  0.00    +0.000 C 
ATOM     30  F   UNL     1      42.718   3.757  11.368  0.00  0.00    +0.000 F 
ATOM     31  F   UNL     1      44.122   2.521  12.476  0.00  0.00    +0.000 F 
ATOM     32  F   UNL     1      43.011   4.086  13.498  0.00  0.00    +0.000 F 
ENDBRANCH  27  29
ENDBRANCH  21  23
ENDBRANCH   1  17
TORSDOF 5
ENDMDL
MODEL 6
REMARK VINA RESULT:    -6.925      4.616      7.094
REMARK INTER + INTRA:         -10.384
REMARK INTER:                  -8.903
REMARK INTRA:                  -1.481
REMARK UNBOUND:                -1.434
REMARK  Name = 
REMARK  5 active torsions:
REMARK  status: ('A' for Active; 'I' for Inactive)
REMARK    1  A    between atoms: C_2  and  C_4
REMARK    2  A    between atoms: N_8  and  C_9
REMARK    3  A    between atoms: C_9  and  C_10
REMARK    4  A    between atoms: C_14  and  C_15
REMARK    5  A    between atoms: C_19  and  C_20
REMARK                            x       y       z     vdW  Elec       q    Type
REMARK                         _______ _______ _______ _____ _____    ______ ____
ROOT
ATOM      1  C   UNL     1      49.062   8.419  12.323  0.00  0.00    +0.000 C 
ATOM      2  C   UNL     1      49.996   9.215  11.422  0.00  0.00    +0.000 C 
ATOM      3  C   UNL     1      50.295   7.783  11.706  0.00  0.00    +0.000 C 
ENDROOT
BRANCH   1   8
ATOM      4  C   UNL     1      44.838   5.365  12.708  0.00  0.00    +0.000 A 
ATOM      5  C   UNL     1      46.179   5.019  12.844  0.00  0.00    +0.000 A 
ATOM      6  C   UNL     1      47.161   5.977  12.579  0.00  0.00    +0.000 A 
ATOM      7  C   UNL     1      46.792   7.253  12.173  0.00  0.00    +0.000 A 
ATOM      8  N   UNL     1      47.703   8.238  11.792  0.00  0.00    +0.000 N 
ATOM      9  N   UNL     1      45.492   7.596  12.036  0.00  0.00    +0.000 NA
ATOM     10  C   UNL     1      44.548   6.655  12.297  0.00  0.00    +0.000 A 
ATOM     11  H   UNL     1      47.160   9.081  11.616  0.00  0.00    +0.000 HD
BRANCH   4  13
ATOM     12  N   UNL     1      44.003   3.082  12.804  0.00  0.00    +0.000 N 
ATOM     13  C   UNL     1      43.728   4.416  12.935  0.00  0.00    +0.000 C 
ATOM     14  O   UNL     1      42.610   4.799  13.252  0.00  0.00    +0.000 OA
ATOM     15  H   UNL     1      43.254   2.442  13.039  0.00  0.00    +0.000 HD
ATOM     16  H   UNL     1      44.942   2.711  12.775  0.00  0.00    +0.000 HD
ENDBRANCH   4  13
ENDBRANCH   1   8
BRANCH   1  17
ATOM     17  C   UNL     1      49.126   8.694  13.826  0.00  0.00    +0.000 A 
ATOM     18  C   UNL     1      49.033   9.994  14.342  0.00  0.00    +0.000 A 
ATOM     19  C   UNL     1      48.957  10.219  15.715  0.00  0.00    +0.000 A 
ATOM     20  C   UNL     1      48.969   9.142  16.602  0.00  0.00    +0.000 A 
ATOM     21  C   UNL     1      49.074   7.819  16.142  0.00  0.00    +0.000 A 
ATOM     22  C   UNL     1      49.189   7.633  14.753  0.00  0.00    +0.000 A 
BRANCH  21  23
ATOM     23  C   UNL     1      49.002   6.663  17.067  0.00  0.00    +0.000 A 
ATOM     24  C   UNL     1      49.361   6.771  18.422  0.00  0.00    +0.000 A 
ATOM     25  C   UNL     1      49.327   5.666  19.278  0.00  0.00    +0.000 A 
ATOM     26  C   UNL     1      48.905   4.427  18.805  0.00  0.00    +0.000 A 
ATOM     27  C   UNL     1      48.522   4.279  17.468  0.00  0.00    +0.000 A 
ATOM     28  C   UNL     1      48.597   5.393  16.611  0.00  0.00    +0.000 A 
BRANCH  27  29
ATOM     29  C   UNL     1      48.015   2.965  16.934  0.00  0.00    +0.000 C 
ATOM     30  F   UNL     1      47.018   2.416  17.682  0.00  0.00    +0.000 F 
ATOM     31  F   UNL     1      47.512   3.080  15.672  0.00  0.00    +0.000 F 
ATOM     32  F   UNL     1      48.991   2.017  16.859  0.00  0.00    +0.000 F 
ENDBRANCH  27  29
ENDBRANCH  21  23
ENDBRANCH   1  17
TORSDOF 5
ENDMDL
MODEL 7
REMARK VINA RESULT:    -6.718      4.144      6.061
REMARK INTER + INTRA:         -10.116
REMARK INTER:                  -8.756
REMARK INTRA:                  -1.359
REMARK UNBOUND:                -1.434
REMARK  Name = 
REMARK  5 active torsions:
REMARK  status: ('A' for Active; 'I' for Inactive)
REMARK    1  A    between atoms: C_2  and  C_4
REMARK    2  A    between atoms: N_8  and  C_9
REMARK    3  A    between atoms: C_9  and  C_10
REMARK    4  A    between atoms: C_14  and  C_15
REMARK    5  A    between atoms: C_19  and  C_20
REMARK                            x       y       z     vdW  Elec       q    Type
REMARK                         _______ _______ _______ _____ _____    ______ ____
ROOT
ATOM      1  C   UNL     1      46.120   8.921  12.329  0.00  0.00    +0.000 C 
ATOM      2  C   UNL     1      45.826  10.406  12.485  0.00  0.00    +0.000 C 
ATOM      3  C   UNL     1      46.118   9.854  11.132  0.00  0.00    +0.000 C 
ENDROOT
BRANCH   1   8
ATOM      4  C   UNL     1      44.193   4.149  11.414  0.00  0.00    +0.000 A 
ATOM      5  C   UNL     1      44.910   4.978  10.557  0.00  0.00    +0.000 A 
ATOM      6  C   UNL     1      45.228   6.275  10.970  0.00  0.00    +0.000 A 
ATOM      7  C   UNL     1      44.815   6.726  12.217  0.00  0.00    +0.000 A 
ATOM      8  N   UNL     1      44.999   8.033  12.668  0.00  0.00    +0.000 N 
ATOM      9  N   UNL     1      44.115   5.928  13.054  0.00  0.00    +0.000 NA
ATOM     10  C   UNL     1      43.814   4.670  12.641  0.00  0.00    +0.000 A 
ATOM     11  H   UNL     1      44.666   8.056  13.630  0.00  0.00    +0.000 HD
BRANCH   4  13
ATOM     12  N   UNL     1      44.423   2.179  10.007  0.00  0.00    +0.000 N 
ATOM     13  C   UNL     1      43.783   2.774  11.059  0.00  0.00    +0.000 C 
ATOM     14  O   UNL     1      42.923   2.177  11.692  0.00  0.00    +0.000 OA
ATOM     15  H   UNL     1      44.188   1.210   9.826  0.00  0.00    +0.000 HD
ATOM     16  H   UNL     1      45.282   2.532   9.610  0.00  0.00    +0.000 HD
ENDBRANCH   4  13
ENDBRANCH   1   8
BRANCH   1  17
ATOM     17  C   UNL     1      47.490   8.420  12.790  0.00  0.00    +0.000 A 
ATOM     18  C   UNL     1      48.667   8.760  12.108  0.00  0.00    +0.000 A 
ATOM     19  C   UNL     1      49.917   8.410  12.613  0.00  0.00    +0.000 A 
ATOM     20  C   UNL     1      50.015   7.716  13.819  0.00  0.00    +0.000 A 
ATOM     21  C   UNL     1      48.870   7.338  14.539  0.00  0.00    +0.000 A 
ATOM     22  C   UNL     1      47.624   7.672  13.978  0.00  0.00    +0.000 A 
BRANCH  21  23
ATOM     23  C   UNL     1      48.962   6.676  15.862  0.00  0.00    +0.000 A 
ATOM     24  C   UNL     1      49.516   7.324  16.980  0.00  0.00    +0.000 A 
ATOM     25  C   UNL     1      49.635   6.679  18.215  0.00  0.00    +0.000 A 
ATOM     26  C   UNL     1      49.175   5.374  18.370  0.00  0.00    +0.000 A 
ATOM     27  C   UNL     1      48.601   4.699  17.288  0.00  0.00    +0.000 A 
ATOM     28  C   UNL     1      48.523   5.351  16.043  0.00  0.00    +0.000 A 
BRANCH  27  29
ATOM     29  C   UNL     1      48.051   3.304  17.431  0.00  0.00    +0.000 C 
ATOM     30  F   UNL     1      48.387   2.473  16.405  0.00  0.00    +0.000 F 
ATOM     31  F   UNL     1      48.491   2.690  18.566  0.00  0.00    +0.000 F 
ATOM     32  F   UNL     1      46.691   3.280  17.501  0.00  0.00    +0.000 F 
ENDBRANCH  27  29
ENDBRANCH  21  23
ENDBRANCH   1  17
TORSDOF 5
ENDMDL
MODEL 8
REMARK VINA RESULT:    -6.589      4.362      7.300
REMARK INTER + INTRA:          -9.949
REMARK INTER:                  -8.673
REMARK INTRA:                  -1.275
REMARK UNBOUND:                -1.434
REMARK  Name = 
REMARK  5 active torsions:
REMARK  status: ('A' for Active; 'I' for Inactive)
REMARK    1  A    between atoms: C_2  and  C_4
REMARK    2  A    between atoms: N_8  and  C_9
REMARK    3  A    between atoms: C_9  and  C_10
REMARK    4  A    between atoms: C_14  and  C_15
REMARK    5  A    between atoms: C_19  and  C_20
REMARK                            x       y       z     vdW  Elec       q    Type
REMARK                         _______ _______ _______ _____ _____    ______ ____
ROOT
ATOM      1  C   UNL     1      48.426   8.084  13.755  0.00  0.00    +0.000 C 
ATOM      2  C   UNL     1      48.378   7.910  15.266  0.00  0.00    +0.000 C 
ATOM      3  C   UNL     1      48.845   6.781  14.414  0.00  0.00    +0.000 C 
ENDROOT
BRANCH   1   8
ATOM      4  C   UNL     1      51.997   9.007  10.051  0.00  0.00    +0.000 A 
ATOM      5  C   UNL     1      51.660   7.799  10.655  0.00  0.00    +0.000 A 
ATOM      6  C   UNL     1      50.753   7.798  11.718  0.00  0.00    +0.000 A 
ATOM      7  C   UNL     1      50.211   8.995  12.167  0.00  0.00    +0.000 A 
ATOM      8  N   UNL     1      49.379   9.098  13.283  0.00  0.00    +0.000 N 
ATOM      9  N   UNL     1      50.536  10.172  11.589  0.00  0.00    +0.000 NA
ATOM     10  C   UNL     1      51.418  10.159  10.556  0.00  0.00    +0.000 A 
ATOM     11  H   UNL     1      49.081  10.070  13.331  0.00  0.00    +0.000 HD
BRANCH   4  13
ATOM     12  N   UNL     1      54.065   8.301   8.982  0.00  0.00    +0.000 N 
ATOM     13  C   UNL     1      52.967   9.116   8.941  0.00  0.00    +0.000 C 
ATOM     14  O   UNL     1      52.790   9.887   8.008  0.00  0.00    +0.000 OA
ATOM     15  H   UNL     1      54.679   8.330   8.177  0.00  0.00    +0.000 HD
ATOM     16  H   UNL     1      54.137   7.501   9.595  0.00  0.00    +0.000 HD
ENDBRANCH   4  13
ENDBRANCH   1   8
BRANCH   1  17
ATOM     17  C   UNL     1      47.097   8.058  12.998  0.00  0.00    +0.000 A 
ATOM     18  C   UNL     1      46.386   9.233  12.717  0.00  0.00    +0.000 A 
ATOM     19  C   UNL     1      45.249   9.211  11.912  0.00  0.00    +0.000 A 
ATOM     20  C   UNL     1      44.803   8.006  11.365  0.00  0.00    +0.000 A 
ATOM     21  C   UNL     1      45.468   6.797  11.623  0.00  0.00    +0.000 A 
ATOM     22  C   UNL     1      46.588   6.852  12.473  0.00  0.00    +0.000 A 
BRANCH  21  23
ATOM     23  C   UNL     1      45.055   5.526  10.981  0.00  0.00    +0.000 A 
ATOM     24  C   UNL     1      44.053   4.707  11.531  0.00  0.00    +0.000 A 
ATOM     25  C   UNL     1      43.697   3.491  10.940  0.00  0.00    +0.000 A 
ATOM     26  C   UNL     1      44.317   3.075   9.765  0.00  0.00    +0.000 A 
ATOM     27  C   UNL     1      45.306   3.869   9.175  0.00  0.00    +0.000 A 
ATOM     28  C   UNL     1      45.679   5.072   9.803  0.00  0.00    +0.000 A 
BRANCH  27  29
ATOM     29  C   UNL     1      45.965   3.473   7.879  0.00  0.00    +0.000 C 
ATOM     30  F   UNL     1      45.092   3.318   6.845  0.00  0.00    +0.000 F 
ATOM     31  F   UNL     1      46.875   4.397   7.460  0.00  0.00    +0.000 F 
ATOM     32  F   UNL     1      46.646   2.297   7.973  0.00  0.00    +0.000 F 
ENDBRANCH  27  29
ENDBRANCH  21  23
ENDBRANCH   1  17
TORSDOF 5
ENDMDL
MODEL 9
REMARK VINA RESULT:    -6.508      5.243      8.449
REMARK INTER + INTRA:          -9.844
REMARK INTER:                  -8.512
REMARK INTRA:                  -1.332
REMARK UNBOUND:                -1.434
REMARK  Name = 
REMARK  5 active torsions:
REMARK  status: ('A' for Active; 'I' for Inactive)
REMARK    1  A    between atoms: C_2  and  C_4
REMARK    2  A    between atoms: N_8  and  C_9
REMARK    3  A    between atoms: C_9  and  C_10
REMARK    4  A    between atoms: C_14  and  C_15
REMARK    5  A    between atoms: C_19  and  C_20
REMARK                            x       y       z     vdW  Elec       q    Type
REMARK                         _______ _______ _______ _____ _____    ______ ____
ROOT
ATOM      1  C   UNL     1      49.710   8.234  12.876  0.00  0.00    +0.000 C 
ATOM      2  C   UNL     1      50.666   8.186  11.693  0.00  0.00    +0.000 C 
ATOM      3  C   UNL     1      50.761   9.309  12.667  0.00  0.00    +0.000 C 
ENDROOT
BRANCH   1   8
ATOM      4  C   UNL     1      48.414   6.737  17.714  0.00  0.00    +0.000 A 
ATOM      5  C   UNL     1      48.678   8.019  17.239  0.00  0.00    +0.000 A 
ATOM      6  C   UNL     1      49.129   8.180  15.927  0.00  0.00    +0.000 A 
ATOM      7  C   UNL     1      49.319   7.067  15.117  0.00  0.00    +0.000 A 
ATOM      8  N   UNL     1      49.860   7.128  13.833  0.00  0.00    +0.000 N 
ATOM      9  N   UNL     1      49.069   5.820  15.572  0.00  0.00    +0.000 NA
ATOM     10  C   UNL     1      48.631   5.677  16.850  0.00  0.00    +0.000 A 
ATOM     11  H   UNL     1      49.816   6.183  13.456  0.00  0.00    +0.000 HD
BRANCH   4  13
ATOM     12  N   UNL     1      46.927   5.582  19.253  0.00  0.00    +0.000 N 
ATOM     13  C   UNL     1      47.964   6.459  19.094  0.00  0.00    +0.000 C 
ATOM     14  O   UNL     1      48.508   6.973  20.061  0.00  0.00    +0.000 OA
ATOM     15  H   UNL     1      46.682   5.341  20.207  0.00  0.00    +0.000 HD
ATOM     16  H   UNL     1      46.606   4.966  18.520  0.00  0.00    +0.000 HD
ENDBRANCH   4  13
ENDBRANCH   1   8
BRANCH   1  17
ATOM     17  C   UNL     1      48.262   8.643  12.599  0.00  0.00    +0.000 A 
ATOM     18  C   UNL     1      47.909   9.976  12.346  0.00  0.00    +0.000 A 
ATOM     19  C   UNL     1      46.614  10.316  11.963  0.00  0.00    +0.000 A 
ATOM     20  C   UNL     1      45.643   9.324  11.819  0.00  0.00    +0.000 A 
ATOM     21  C   UNL     1      45.937   7.974  12.072  0.00  0.00    +0.000 A 
ATOM     22  C   UNL     1      47.244   7.673  12.496  0.00  0.00    +0.000 A 
BRANCH  21  23
ATOM     23  C   UNL     1      44.940   6.901  11.841  0.00  0.00    +0.000 A 
ATOM     24  C   UNL     1      43.603   7.187  11.513  0.00  0.00    +0.000 A 
ATOM     25  C   UNL     1      42.660   6.170  11.335  0.00  0.00    +0.000 A 
ATOM     26  C   UNL     1      43.039   4.836  11.455  0.00  0.00    +0.000 A 
ATOM     27  C   UNL     1      44.363   4.507  11.763  0.00  0.00    +0.000 A 
ATOM     28  C   UNL     1      45.290   5.544  11.975  0.00  0.00    +0.000 A 
BRANCH  27  29
ATOM     29  C   UNL     1      44.818   3.073  11.855  0.00  0.00    +0.000 C 
ATOM     30  F   UNL     1      43.835   2.209  12.234  0.00  0.00    +0.000 F 
ATOM     31  F   UNL     1      45.286   2.604  10.664  0.00  0.00    +0.000 F 
ATOM     32  F   UNL     1      45.833   2.900  12.746  0.00  0.00    +0.000 F 
ENDBRANCH  27  29
ENDBRANCH  21  23
ENDBRANCH   1  17
TORSDOF 5
ENDMDL
