MODEL 1
REMARK VINA RESULT:    -8.983      0.000      0.000
REMARK INTER + INTRA:         -13.410
REMARK INTER:                 -12.658
REMARK INTRA:                  -0.751
REMARK UNBOUND:                -0.751
REMARK  Name = 
REMARK  7 active torsions:
REMARK  status: ('A' for Active; 'I' for Inactive)
REMARK    1  A    between atoms: C_2  and  C_20
REMARK    2  A    between atoms: N_3  and  C_4
REMARK    3  A    between atoms: C_4  and  C_5
REMARK    4  A    between atoms: C_8  and  C_9
REMARK    5  A    between atoms: C_9  and  O_10
REMARK    6  A    between atoms: O_10  and  C_11
REMARK    7  A    between atoms: C_11  and  C_12
REMARK                            x       y       z     vdW  Elec       q    Type
REMARK                         _______ _______ _______ _____ _____    ______ ____
ROOT
ATOM      1  C   UNL     1      45.994   4.402  14.762  0.00  0.00    +0.000 C 
ENDROOT
BRANCH   1   2
ATOM      2  C   UNL     1      46.155   4.757  13.274  0.00  0.00    +0.000 C 
ATOM      3  C   UNL     1      45.877   3.557  12.348  0.00  0.00    +0.000 C 
ATOM      4  C   UNL     1      44.398   3.170  12.325  0.00  0.00    +0.000 C 
ATOM      5  C   UNL     1      43.487   4.352  11.949  0.00  0.00    +0.000 C 
ATOM      6  C   UNL     1      43.761   5.551  12.869  0.00  0.00    +0.000 C 
ATOM      7  C   UNL     1      45.242   5.938  12.913  0.00  0.00    +0.000 C 
BRANCH   5   8
ATOM      8  C   UNL     1      43.605   4.759  10.470  0.00  0.00    +0.000 C 
BRANCH   8   9
ATOM      9  O   UNL     1      44.097   3.660   9.707  0.00  0.00    +0.000 OA
BRANCH   9  10
ATOM     10  C   UNL     1      44.648   4.086   8.461  0.00  0.00    +0.000 C 
BRANCH  10  11
ATOM     11  C   UNL     1      45.633   3.056   7.995  0.00  0.00    +0.000 A 
ATOM     12  C   UNL     1      46.593   3.348   7.023  0.00  0.00    +0.000 A 
ATOM     13  C   UNL     1      47.483   2.360   6.611  0.00  0.00    +0.000 A 
ATOM     14  C   UNL     1      47.380   1.104   7.185  0.00  0.00    +0.000 A 
ATOM     15  N   UNL     1      46.466   0.782   8.126  0.00  0.00    +0.000 NA
ATOM     16  C   UNL     1      45.621   1.765   8.511  0.00  0.00    +0.000 A 
ENDBRANCH  10  11
ENDBRANCH   9  10
ENDBRANCH   8   9
ENDBRANCH   5   8
ENDBRANCH   1   2
BRANCH   1  19
ATOM     17  O   UNL     1      46.676   3.248  17.242  0.00  0.00    +0.000 OA
ATOM     18  C   UNL     1      47.476   3.995  16.688  0.00  0.00    +0.000 C 
ATOM     19  N   UNL     1      47.209   4.620  15.501  0.00  0.00    +0.000 N 
ATOM     20  H   UNL     1      47.955   5.094  15.002  0.00  0.00    +0.000 HD
BRANCH  18  21
ATOM     21  C   UNL     1      48.779   4.300  17.278  0.00  0.00    +0.000 A 
ATOM     22  C   UNL     1      49.006   5.523  17.894  0.00  0.00    +0.000 A 
ATOM     23  S   UNL     1      50.579   5.664  18.541  0.00  0.00    +0.000 S 
ATOM     24  C   UNL     1      50.993   4.097  18.037  0.00  0.00    +0.000 A 
ATOM     25  N   UNL     1      52.219   3.567  18.309  0.00  0.00    +0.000 NA
ATOM     26  C   UNL     1      52.378   2.355  17.891  0.00  0.00    +0.000 A 
ATOM     27  N   UNL     1      51.438   1.626  17.218  0.00  0.00    +0.000 N 
ATOM     28  C   UNL     1      50.209   2.137  16.871  0.00  0.00    +0.000 A 
ATOM     29  O   UNL     1      49.441   1.490  16.167  0.00  0.00    +0.000 OA
ATOM     30  C   UNL     1      49.962   3.481  17.360  0.00  0.00    +0.000 A 
ATOM     31  H   UNL     1      51.635   0.694  16.884  0.00  0.00    +0.000 HD
ENDBRANCH  18  21
ENDBRANCH   1  19
TORSDOF 7
ENDMDL
MODEL 2
REMARK VINA RESULT:    -8.679      2.003      2.731
REMARK INTER + INTRA:         -12.981
REMARK INTER:                 -11.777
REMARK INTRA:                  -1.204
REMARK UNBOUND:                -0.751
REMARK  Name = 
REMARK  7 active torsions:
REMARK  status: ('A' for Active; 'I' for Inactive)
REMARK    1  A    between atoms: C_2  and  C_20
REMARK    2  A    between atoms: N_3  and  C_4
REMARK    3  A    between atoms: C_4  and  C_5
REMARK    4  A    between atoms: C_8  and  C_9
REMARK    5  A    between atoms: C_9  and  O_10
REMARK    6  A    between atoms: O_10  and  C_11
REMARK    7  A    between atoms: C_11  and  C_12
REMARK                            x       y       z     vdW  Elec       q    Type
REMARK                         _______ _______ _______ _____ _____    ______ ____
ROOT
ATOM      1  C   UNL     1      46.620   7.575  12.823  0.00  0.00    +0.000 C 
ENDROOT
BRANCH   1   2
ATOM      2  C   UNL     1      45.189   7.076  12.560  0.00  0.00    +0.000 C 
ATOM      3  C   UNL     1      44.855   7.010  11.057  0.00  0.00    +0.000 C 
ATOM      4  C   UNL     1      45.614   5.894  10.340  0.00  0.00    +0.000 C 
ATOM      5  C   UNL     1      45.392   4.518  10.993  0.00  0.00    +0.000 C 
ATOM      6  C   UNL     1      45.723   4.579  12.492  0.00  0.00    +0.000 C 
ATOM      7  C   UNL     1      44.981   5.704  13.218  0.00  0.00    +0.000 C 
BRANCH   5   8
ATOM      8  C   UNL     1      43.974   3.965  10.769  0.00  0.00    +0.000 C 
BRANCH   8   9
ATOM      9  O   UNL     1      43.904   3.324   9.497  0.00  0.00    +0.000 OA
BRANCH   9  10
ATOM     10  C   UNL     1      44.657   2.113   9.473  0.00  0.00    +0.000 C 
BRANCH  10  11
ATOM     11  C   UNL     1      45.622   2.171   8.326  0.00  0.00    +0.000 A 
ATOM     12  C   UNL     1      45.767   3.323   7.549  0.00  0.00    +0.000 A 
ATOM     13  C   UNL     1      46.666   3.331   6.487  0.00  0.00    +0.000 A 
ATOM     14  C   UNL     1      47.391   2.179   6.232  0.00  0.00    +0.000 A 
ATOM     15  N   UNL     1      47.279   1.046   6.958  0.00  0.00    +0.000 NA
ATOM     16  C   UNL     1      46.403   1.071   7.989  0.00  0.00    +0.000 A 
ENDBRANCH  10  11
ENDBRANCH   9  10
ENDBRANCH   8   9
ENDBRANCH   5   8
ENDBRANCH   1   2
BRANCH   1  19
ATOM     17  O   UNL     1      49.008   6.201  13.420  0.00  0.00    +0.000 OA
ATOM     18  C   UNL     1      48.278   6.562  14.338  0.00  0.00    +0.000 C 
ATOM     19  N   UNL     1      47.088   7.203  14.131  0.00  0.00    +0.000 N 
ATOM     20  H   UNL     1      46.601   7.625  14.915  0.00  0.00    +0.000 HD
BRANCH  18  21
ATOM     21  C   UNL     1      48.617   6.301  15.737  0.00  0.00    +0.000 A 
ATOM     22  C   UNL     1      49.221   7.281  16.511  0.00  0.00    +0.000 A 
ATOM     23  S   UNL     1      49.503   6.783  18.119  0.00  0.00    +0.000 S 
ATOM     24  C   UNL     1      48.811   5.259  17.833  0.00  0.00    +0.000 A 
ATOM     25  N   UNL     1      48.704   4.334  18.827  0.00  0.00    +0.000 NA
ATOM     26  C   UNL     1      48.128   3.234  18.469  0.00  0.00    +0.000 A 
ATOM     27  N   UNL     1      47.660   2.965  17.213  0.00  0.00    +0.000 N 
ATOM     28  C   UNL     1      47.797   3.844  16.165  0.00  0.00    +0.000 A 
ATOM     29  O   UNL     1      47.469   3.517  15.029  0.00  0.00    +0.000 OA
ATOM     30  C   UNL     1      48.396   5.116  16.526  0.00  0.00    +0.000 A 
ATOM     31  H   UNL     1      47.251   2.071  16.984  0.00  0.00    +0.000 HD
ENDBRANCH  18  21
ENDBRANCH   1  19
TORSDOF 7
ENDMDL
MODEL 3
REMARK VINA RESULT:    -8.265      1.972      2.510
REMARK INTER + INTRA:         -12.398
REMARK INTER:                 -11.988
REMARK INTRA:                  -0.411
REMARK UNBOUND:                -0.751
REMARK  Name = 
REMARK  7 active torsions:
REMARK  status: ('A' for Active; 'I' for Inactive)
REMARK    1  A    between atoms: C_2  and  C_20
REMARK    2  A    between atoms: N_3  and  C_4
REMARK    3  A    between atoms: C_4  and  C_5
REMARK    4  A    between atoms: C_8  and  C_9
REMARK    5  A    between atoms: C_9  and  O_10
REMARK    6  A    between atoms: O_10  and  C_11
REMARK    7  A    between atoms: C_11  and  C_12
REMARK                            x       y       z     vdW  Elec       q    Type
REMARK                         _______ _______ _______ _____ _____    ______ ____
ROOT
ATOM      1  C   UNL     1      46.389   6.787  12.759  0.00  0.00    +0.000 C 
ENDROOT
BRANCH   1   2
ATOM      2  C   UNL     1      46.343   5.492  11.930  0.00  0.00    +0.000 C 
ATOM      3  C   UNL     1      45.864   4.282  12.754  0.00  0.00    +0.000 C 
ATOM      4  C   UNL     1      44.380   4.370  13.109  0.00  0.00    +0.000 C 
ATOM      5  C   UNL     1      43.488   4.553  11.869  0.00  0.00    +0.000 C 
ATOM      6  C   UNL     1      43.963   5.758  11.043  0.00  0.00    +0.000 C 
ATOM      7  C   UNL     1      45.452   5.689  10.695  0.00  0.00    +0.000 C 
BRANCH   5   8
ATOM      8  C   UNL     1      43.405   3.289  10.994  0.00  0.00    +0.000 C 
BRANCH   8   9
ATOM      9  O   UNL     1      44.361   3.371   9.939  0.00  0.00    +0.000 OA
BRANCH   9  10
ATOM     10  C   UNL     1      44.601   2.097   9.344  0.00  0.00    +0.000 C 
BRANCH  10  11
ATOM     11  C   UNL     1      45.692   2.241   8.325  0.00  0.00    +0.000 A 
ATOM     12  C   UNL     1      45.956   3.465   7.704  0.00  0.00    +0.000 A 
ATOM     13  C   UNL     1      46.971   3.554   6.756  0.00  0.00    +0.000 A 
ATOM     14  C   UNL     1      47.689   2.408   6.454  0.00  0.00    +0.000 A 
ATOM     15  N   UNL     1      47.464   1.208   7.030  0.00  0.00    +0.000 NA
ATOM     16  C   UNL     1      46.476   1.155   7.954  0.00  0.00    +0.000 A 
ENDBRANCH  10  11
ENDBRANCH   9  10
ENDBRANCH   8   9
ENDBRANCH   5   8
ENDBRANCH   1   2
BRANCH   1  19
ATOM     17  O   UNL     1      49.108   6.558  13.464  0.00  0.00    +0.000 OA
ATOM     18  C   UNL     1      48.254   6.495  14.342  0.00  0.00    +0.000 C 
ATOM     19  N   UNL     1      46.914   6.563  14.079  0.00  0.00    +0.000 N 
ATOM     20  H   UNL     1      46.256   6.671  14.844  0.00  0.00    +0.000 HD
BRANCH  18  21
ATOM     21  C   UNL     1      48.609   6.307  15.749  0.00  0.00    +0.000 A 
ATOM     22  C   UNL     1      49.210   7.330  16.467  0.00  0.00    +0.000 A 
ATOM     23  S   UNL     1      49.514   6.916  18.095  0.00  0.00    +0.000 S 
ATOM     24  C   UNL     1      48.837   5.372  17.891  0.00  0.00    +0.000 A 
ATOM     25  N   UNL     1      48.751   4.495  18.931  0.00  0.00    +0.000 NA
ATOM     26  C   UNL     1      48.184   3.373  18.633  0.00  0.00    +0.000 A 
ATOM     27  N   UNL     1      47.706   3.037  17.397  0.00  0.00    +0.000 N 
ATOM     28  C   UNL     1      47.823   3.865  16.305  0.00  0.00    +0.000 A 
ATOM     29  O   UNL     1      47.487   3.478  15.190  0.00  0.00    +0.000 OA
ATOM     30  C   UNL     1      48.410   5.159  16.597  0.00  0.00    +0.000 A 
ATOM     31  H   UNL     1      47.306   2.128  17.216  0.00  0.00    +0.000 HD
ENDBRANCH  18  21
ENDBRANCH   1  19
TORSDOF 7
ENDMDL
MODEL 4
REMARK VINA RESULT:    -8.109      4.828      5.486
REMARK INTER + INTRA:         -12.179
REMARK INTER:                 -10.942
REMARK INTRA:                  -1.237
REMARK UNBOUND:                -0.751
REMARK  Name = 
REMARK  7 active torsions:
REMARK  status: ('A' for Active; 'I' for Inactive)
REMARK    1  A    between atoms: C_2  and  C_20
REMARK    2  A    between atoms: N_3  and  C_4
REMARK    3  A    between atoms: C_4  and  C_5
REMARK    4  A    between atoms: C_8  and  C_9
REMARK    5  A    between atoms: C_9  and  O_10
REMARK    6  A    between atoms: O_10  and  C_11
REMARK    7  A    between atoms: C_11  and  C_12
REMARK                            x       y       z     vdW  Elec       q    Type
REMARK                         _______ _______ _______ _____ _____    ______ ____
ROOT
ATOM      1  C   UNL     1      44.964   7.578  12.516  0.00  0.00    +0.000 C 
ENDROOT
BRANCH   1   2
ATOM      2  C   UNL     1      45.208   6.065  12.651  0.00  0.00    +0.000 C 
ATOM      3  C   UNL     1      43.903   5.275  12.862  0.00  0.00    +0.000 C 
ATOM      4  C   UNL     1      43.030   5.247  11.607  0.00  0.00    +0.000 C 
ATOM      5  C   UNL     1      43.784   4.707  10.379  0.00  0.00    +0.000 C 
ATOM      6  C   UNL     1      45.087   5.492  10.166  0.00  0.00    +0.000 C 
ATOM      7  C   UNL     1      45.962   5.541  11.421  0.00  0.00    +0.000 C 
BRANCH   5   8
ATOM      8  C   UNL     1      44.063   3.196  10.457  0.00  0.00    +0.000 C 
BRANCH   8   9
ATOM      9  O   UNL     1      44.264   2.676   9.145  0.00  0.00    +0.000 OA
BRANCH   9  10
ATOM     10  C   UNL     1      45.356   1.758   9.102  0.00  0.00    +0.000 C 
BRANCH  10  11
ATOM     11  C   UNL     1      46.180   2.049   7.884  0.00  0.00    +0.000 A 
ATOM     12  C   UNL     1      46.022   3.233   7.159  0.00  0.00    +0.000 A 
ATOM     13  C   UNL     1      46.801   3.461   6.028  0.00  0.00    +0.000 A 
ATOM     14  C   UNL     1      47.714   2.488   5.654  0.00  0.00    +0.000 A 
ATOM     15  N   UNL     1      47.896   1.331   6.327  0.00  0.00    +0.000 NA
ATOM     16  C   UNL     1      47.130   1.143   7.426  0.00  0.00    +0.000 A 
ENDBRANCH  10  11
ENDBRANCH   9  10
ENDBRANCH   8   9
ENDBRANCH   5   8
ENDBRANCH   1   2
BRANCH   1  19
ATOM     17  O   UNL     1      46.970   8.871  14.017  0.00  0.00    +0.000 OA
ATOM     18  C   UNL     1      47.062   8.841  12.794  0.00  0.00    +0.000 C 
ATOM     19  N   UNL     1      46.116   8.264  11.993  0.00  0.00    +0.000 N 
ATOM     20  H   UNL     1      46.311   8.118  11.007  0.00  0.00    +0.000 HD
BRANCH  18  21
ATOM     21  C   UNL     1      48.189   9.455  12.092  0.00  0.00    +0.000 A 
ATOM     22  C   UNL     1      48.113  10.767  11.648  0.00  0.00    +0.000 A 
ATOM     23  S   UNL     1      49.543  11.298  10.882  0.00  0.00    +0.000 S 
ATOM     24  C   UNL     1      50.307   9.803  11.137  0.00  0.00    +0.000 A 
ATOM     25  N   UNL     1      51.594   9.590  10.743  0.00  0.00    +0.000 NA
ATOM     26  C   UNL     1      52.050   8.417  11.032  0.00  0.00    +0.000 A 
ATOM     27  N   UNL     1      51.344   7.433  11.667  0.00  0.00    +0.000 N 
ATOM     28  C   UNL     1      50.027   7.581  12.031  0.00  0.00    +0.000 A 
ATOM     29  O   UNL     1      49.396   6.635  12.492  0.00  0.00    +0.000 OA
ATOM     30  C   UNL     1      49.480   8.900  11.771  0.00  0.00    +0.000 A 
ATOM     31  H   UNL     1      51.744   6.521  11.832  0.00  0.00    +0.000 HD
ENDBRANCH  18  21
ENDBRANCH   1  19
TORSDOF 7
ENDMDL
MODEL 5
REMARK VINA RESULT:    -8.040      2.743      3.478
REMARK INTER + INTRA:         -12.082
REMARK INTER:                 -10.911
REMARK INTRA:                  -1.171
REMARK UNBOUND:                -0.751
REMARK  Name = 
REMARK  7 active torsions:
REMARK  status: ('A' for Active; 'I' for Inactive)
REMARK    1  A    between atoms: C_2  and  C_20
REMARK    2  A    between atoms: N_3  and  C_4
REMARK    3  A    between atoms: C_4  and  C_5
REMARK    4  A    between atoms: C_8  and  C_9
REMARK    5  A    between atoms: C_9  and  O_10
REMARK    6  A    between atoms: O_10  and  C_11
REMARK    7  A    between atoms: C_11  and  C_12
REMARK                            x       y       z     vdW  Elec       q    Type
REMARK                         _______ _______ _______ _____ _____    ______ ____
ROOT
ATOM      1  C   UNL     1      45.980   7.260  12.462  0.00  0.00    +0.000 C 
ENDROOT
BRANCH   1   2
ATOM      2  C   UNL     1      46.247   5.824  11.978  0.00  0.00    +0.000 C 
ATOM      3  C   UNL     1      45.720   4.763  12.963  0.00  0.00    +0.000 C 
ATOM      4  C   UNL     1      44.193   4.705  12.995  0.00  0.00    +0.000 C 
ATOM      5  C   UNL     1      43.584   4.481  11.600  0.00  0.00    +0.000 C 
ATOM      6  C   UNL     1      44.107   5.536  10.614  0.00  0.00    +0.000 C 
ATOM      7  C   UNL     1      45.636   5.615  10.585  0.00  0.00    +0.000 C 
BRANCH   5   8
ATOM      8  C   UNL     1      43.822   3.060  11.058  0.00  0.00    +0.000 C 
BRANCH   8   9
ATOM      9  O   UNL     1      44.136   3.123   9.668  0.00  0.00    +0.000 OA
BRANCH   9  10
ATOM     10  C   UNL     1      44.595   1.865   9.174  0.00  0.00    +0.000 C 
BRANCH  10  11
ATOM     11  C   UNL     1      45.742   2.108   8.238  0.00  0.00    +0.000 A 
ATOM     12  C   UNL     1      45.977   3.367   7.679  0.00  0.00    +0.000 A 
ATOM     13  C   UNL     1      47.046   3.547   6.807  0.00  0.00    +0.000 A 
ATOM     14  C   UNL     1      47.847   2.454   6.516  0.00  0.00    +0.000 A 
ATOM     15  N   UNL     1      47.652   1.223   7.034  0.00  0.00    +0.000 NA
ATOM     16  C   UNL     1      46.610   1.081   7.885  0.00  0.00    +0.000 A 
ENDBRANCH  10  11
ENDBRANCH   9  10
ENDBRANCH   8   9
ENDBRANCH   5   8
ENDBRANCH   1   2
BRANCH   1  19
ATOM     17  O   UNL     1      48.584   8.324  12.625  0.00  0.00    +0.000 OA
ATOM     18  C   UNL     1      47.958   8.111  13.658  0.00  0.00    +0.000 C 
ATOM     19  N   UNL     1      46.704   7.566  13.666  0.00  0.00    +0.000 N 
ATOM     20  H   UNL     1      46.163   7.560  14.524  0.00  0.00    +0.000 HD
BRANCH  18  21
ATOM     21  C   UNL     1      48.526   8.399  14.975  0.00  0.00    +0.000 A 
ATOM     22  C   UNL     1      48.835   9.701  15.341  0.00  0.00    +0.000 A 
ATOM     23  S   UNL     1      49.457   9.821  16.925  0.00  0.00    +0.000 S 
ATOM     24  C   UNL     1      49.314   8.147  17.173  0.00  0.00    +0.000 A 
ATOM     25  N   UNL     1      49.653   7.577  18.363  0.00  0.00    +0.000 NA
ATOM     26  C   UNL     1      49.461   6.301  18.415  0.00  0.00    +0.000 A 
ATOM     27  N   UNL     1      48.974   5.538  17.390  0.00  0.00    +0.000 N 
ATOM     28  C   UNL     1      48.673   6.058  16.154  0.00  0.00    +0.000 A 
ATOM     29  O   UNL     1      48.350   5.321  15.228  0.00  0.00    +0.000 OA
ATOM     30  C   UNL     1      48.826   7.498  16.059  0.00  0.00    +0.000 A 
ATOM     31  H   UNL     1      48.880   4.536  17.478  0.00  0.00    +0.000 HD
ENDBRANCH  18  21
ENDBRANCH   1  19
TORSDOF 7
ENDMDL
MODEL 6
REMARK VINA RESULT:    -7.968      2.254      2.856
REMARK INTER + INTRA:         -11.981
REMARK INTER:                 -11.067
REMARK INTRA:                  -0.913
REMARK UNBOUND:                -0.751
REMARK  Name = 
REMARK  7 active torsions:
REMARK  status: ('A' for Active; 'I' for Inactive)
REMARK    1  A    between atoms: C_2  and  C_20
REMARK    2  A    between atoms: N_3  and  C_4
REMARK    3  A    between atoms: C_4  and  C_5
REMARK    4  A    between atoms: C_8  and  C_9
REMARK    5  A    between atoms: C_9  and  O_10
REMARK    6  A    between atoms: O_10  and  C_11
REMARK    7  A    between atoms: C_11  and  C_12
REMARK                            x       y       z     vdW  Elec       q    Type
REMARK                         _______ _______ _______ _____ _____    ______ ____
ROOT
ATOM      1  C   UNL     1      46.238   4.223  14.549  0.00  0.00    +0.000 C 
ENDROOT
BRANCH   1   2
ATOM      2  C   UNL     1      46.246   4.489  13.034  0.00  0.00    +0.000 C 
ATOM      3  C   UNL     1      45.642   3.323  12.228  0.00  0.00    +0.000 C 
ATOM      4  C   UNL     1      44.131   3.200  12.423  0.00  0.00    +0.000 C 
ATOM      5  C   UNL     1      43.389   4.509  12.100  0.00  0.00    +0.000 C 
ATOM      6  C   UNL     1      43.988   5.675  12.900  0.00  0.00    +0.000 C 
ATOM      7  C   UNL     1      45.504   5.798  12.725  0.00  0.00    +0.000 C 
BRANCH   5   8
ATOM      8  C   UNL     1      43.365   4.834  10.595  0.00  0.00    +0.000 C 
BRANCH   8   9
ATOM      9  O   UNL     1      44.010   3.791   9.868  0.00  0.00    +0.000 OA
BRANCH   9  10
ATOM     10  C   UNL     1      44.750   4.299   8.759  0.00  0.00    +0.000 C 
BRANCH  10  11
ATOM     11  C   UNL     1      45.607   3.198   8.209  0.00  0.00    +0.000 A 
ATOM     12  C   UNL     1      46.515   3.426   7.172  0.00  0.00    +0.000 A 
ATOM     13  C   UNL     1      47.285   2.374   6.683  0.00  0.00    +0.000 A 
ATOM     14  C   UNL     1      47.115   1.120   7.248  0.00  0.00    +0.000 A 
ATOM     15  N   UNL     1      46.248   0.859   8.249  0.00  0.00    +0.000 NA
ATOM     16  C   UNL     1      45.520   1.903   8.709  0.00  0.00    +0.000 A 
ENDBRANCH  10  11
ENDBRANCH   9  10
ENDBRANCH   8   9
ENDBRANCH   5   8
ENDBRANCH   1   2
BRANCH   1  19
ATOM     17  O   UNL     1      48.341   3.531  16.293  0.00  0.00    +0.000 OA
ATOM     18  C   UNL     1      48.116   4.715  16.066  0.00  0.00    +0.000 C 
ATOM     19  N   UNL     1      47.094   5.135  15.260  0.00  0.00    +0.000 N 
ATOM     20  H   UNL     1      47.047   6.107  14.971  0.00  0.00    +0.000 HD
BRANCH  18  21
ATOM     21  C   UNL     1      48.914   5.781  16.674  0.00  0.00    +0.000 A 
ATOM     22  C   UNL     1      49.073   5.845  18.050  0.00  0.00    +0.000 A 
ATOM     23  S   UNL     1      50.062   7.143  18.549  0.00  0.00    +0.000 S 
ATOM     24  C   UNL     1      50.319   7.643  16.947  0.00  0.00    +0.000 A 
ATOM     25  N   UNL     1      51.121   8.706  16.658  0.00  0.00    +0.000 NA
ATOM     26  C   UNL     1      51.247   8.948  15.395  0.00  0.00    +0.000 A 
ATOM     27  N   UNL     1      50.642   8.239  14.395  0.00  0.00    +0.000 N 
ATOM     28  C   UNL     1      49.780   7.196  14.640  0.00  0.00    +0.000 A 
ATOM     29  O   UNL     1      49.168   6.663  13.720  0.00  0.00    +0.000 OA
ATOM     30  C   UNL     1      49.642   6.853  16.043  0.00  0.00    +0.000 A 
ATOM     31  H   UNL     1      50.750   8.499  13.425  0.00  0.00    +0.000 HD
ENDBRANCH  18  21
ENDBRANCH   1  19
TORSDOF 7
ENDMDL
MODEL 7
REMARK VINA RESULT:    -7.856      1.332      1.687
REMARK INTER + INTRA:         -11.822
REMARK INTER:                 -10.982
REMARK INTRA:                  -0.840
REMARK UNBOUND:                -0.751
REMARK  Name = 
REMARK  7 active torsions:
REMARK  status: ('A' for Active; 'I' for Inactive)
REMARK    1  A    between atoms: C_2  and  C_20
REMARK    2  A    between atoms: N_3  and  C_4
REMARK    3  A    between atoms: C_4  and  C_5
REMARK    4  A    between atoms: C_8  and  C_9
REMARK    5  A    between atoms: C_9  and  O_10
REMARK    6  A    between atoms: O_10  and  C_11
REMARK    7  A    between atoms: C_11  and  C_12
REMARK                            x       y       z     vdW  Elec       q    Type
REMARK                         _______ _______ _______ _____ _____    ______ ____
ROOT
ATOM      1  C   UNL     1      47.561   6.149  14.986  0.00  0.00    +0.000 C 
ENDROOT
BRANCH   1   2
ATOM      2  C   UNL     1      47.713   5.667  13.533  0.00  0.00    +0.000 C 
ATOM      3  C   UNL     1      46.811   4.458  13.216  0.00  0.00    +0.000 C 
ATOM      4  C   UNL     1      45.330   4.833  13.171  0.00  0.00    +0.000 C 
ATOM      5  C   UNL     1      45.044   5.981  12.186  0.00  0.00    +0.000 C 
ATOM      6  C   UNL     1      45.942   7.187  12.498  0.00  0.00    +0.000 C 
ATOM      7  C   UNL     1      47.427   6.821  12.562  0.00  0.00    +0.000 C 
BRANCH   5   8
ATOM      8  C   UNL     1      45.184   5.561  10.712  0.00  0.00    +0.000 C 
BRANCH   8   9
ATOM      9  O   UNL     1      44.683   4.237  10.540  0.00  0.00    +0.000 OA
BRANCH   9  10
ATOM     10  C   UNL     1      44.259   4.003   9.198  0.00  0.00    +0.000 C 
BRANCH  10  11
ATOM     11  C   UNL     1      45.324   3.221   8.488  0.00  0.00    +0.000 A 
ATOM     12  C   UNL     1      45.470   1.845   8.676  0.00  0.00    +0.000 A 
ATOM     13  C   UNL     1      46.478   1.158   8.006  0.00  0.00    +0.000 A 
ATOM     14  C   UNL     1      47.315   1.877   7.168  0.00  0.00    +0.000 A 
ATOM     15  N   UNL     1      47.208   3.207   6.960  0.00  0.00    +0.000 NA
ATOM     16  C   UNL     1      46.213   3.845   7.620  0.00  0.00    +0.000 A 
ENDBRANCH  10  11
ENDBRANCH   9  10
ENDBRANCH   8   9
ENDBRANCH   5   8
ENDBRANCH   1   2
BRANCH   1  19
ATOM     17  O   UNL     1      47.565   4.160  16.982  0.00  0.00    +0.000 OA
ATOM     18  C   UNL     1      48.606   4.759  16.731  0.00  0.00    +0.000 C 
ATOM     19  N   UNL     1      48.680   5.760  15.802  0.00  0.00    +0.000 N 
ATOM     20  H   UNL     1      49.586   6.112  15.512  0.00  0.00    +0.000 HD
BRANCH  18  21
ATOM     21  C   UNL     1      49.852   4.466  17.439  0.00  0.00    +0.000 A 
ATOM     22  C   UNL     1      50.446   5.423  18.249  0.00  0.00    +0.000 A 
ATOM     23  S   UNL     1      51.873   4.869  19.003  0.00  0.00    +0.000 S 
ATOM     24  C   UNL     1      51.729   3.336  18.286  0.00  0.00    +0.000 A 
ATOM     25  N   UNL     1      52.629   2.346  18.546  0.00  0.00    +0.000 NA
ATOM     26  C   UNL     1      52.372   1.227  17.955  0.00  0.00    +0.000 A 
ATOM     27  N   UNL     1      51.311   1.002  17.123  0.00  0.00    +0.000 N 
ATOM     28  C   UNL     1      50.410   1.985  16.787  0.00  0.00    +0.000 A 
ATOM     29  O   UNL     1      49.541   1.774  15.946  0.00  0.00    +0.000 OA
ATOM     30  C   UNL     1      50.627   3.251  17.462  0.00  0.00    +0.000 A 
ATOM     31  H   UNL     1      51.183   0.114  16.660  0.00  0.00    +0.000 HD
ENDBRANCH  18  21
ENDBRANCH   1  19
TORSDOF 7
ENDMDL
MODEL 8
REMARK VINA RESULT:    -7.664      1.535      2.119
REMARK INTER + INTRA:         -11.552
REMARK INTER:                 -10.585
REMARK INTRA:                  -0.967
REMARK UNBOUND:                -0.751
REMARK  Name = 
REMARK  7 active torsions:
REMARK  status: ('A' for Active; 'I' for Inactive)
REMARK    1  A    between atoms: C_2  and  C_20
REMARK    2  A    between atoms: N_3  and  C_4
REMARK    3  A    between atoms: C_4  and  C_5
REMARK    4  A    between atoms: C_8  and  C_9
REMARK    5  A    between atoms: C_9  and  O_10
REMARK    6  A    between atoms: O_10  and  C_11
REMARK    7  A    between atoms: C_11  and  C_12
REMARK                            x       y       z     vdW  Elec       q    Type
REMARK                         _______ _______ _______ _____ _____    ______ ____
ROOT
ATOM      1  C   UNL     1      47.277   5.412  14.157  0.00  0.00    +0.000 C 
ENDROOT
BRANCH   1   2
ATOM      2  C   UNL     1      45.784   5.192  13.859  0.00  0.00    +0.000 C 
ATOM      3  C   UNL     1      45.182   6.320  12.999  0.00  0.00    +0.000 C 
ATOM      4  C   UNL     1      45.700   6.296  11.561  0.00  0.00    +0.000 C 
ATOM      5  C   UNL     1      45.480   4.934  10.879  0.00  0.00    +0.000 C 
ATOM      6  C   UNL     1      46.077   3.806  11.734  0.00  0.00    +0.000 C 
ATOM      7  C   UNL     1      45.578   3.830  13.181  0.00  0.00    +0.000 C 
BRANCH   5   8
ATOM      8  C   UNL     1      44.001   4.652  10.558  0.00  0.00    +0.000 C 
BRANCH   8   9
ATOM      9  O   UNL     1      43.911   3.744   9.463  0.00  0.00    +0.000 OA
BRANCH   9  10
ATOM     10  C   UNL     1      44.675   4.189   8.343  0.00  0.00    +0.000 C 
BRANCH  10  11
ATOM     11  C   UNL     1      45.572   3.073   7.900  0.00  0.00    +0.000 A 
ATOM     12  C   UNL     1      46.422   3.210   6.799  0.00  0.00    +0.000 A 
ATOM     13  C   UNL     1      47.232   2.145   6.414  0.00  0.00    +0.000 A 
ATOM     14  C   UNL     1      47.161   0.970   7.144  0.00  0.00    +0.000 A 
ATOM     15  N   UNL     1      46.353   0.798   8.212  0.00  0.00    +0.000 NA
ATOM     16  C   UNL     1      45.584   1.853   8.566  0.00  0.00    +0.000 A 
ENDBRANCH  10  11
ENDBRANCH   9  10
ENDBRANCH   8   9
ENDBRANCH   5   8
ENDBRANCH   1   2
BRANCH   1  19
ATOM     17  O   UNL     1      47.588   3.394  16.099  0.00  0.00    +0.000 OA
ATOM     18  C   UNL     1      47.692   4.569  16.434  0.00  0.00    +0.000 C 
ATOM     19  N   UNL     1      47.522   5.607  15.560  0.00  0.00    +0.000 N 
ATOM     20  H   UNL     1      47.778   6.549  15.841  0.00  0.00    +0.000 HD
BRANCH  18  21
ATOM     21  C   UNL     1      47.979   4.953  17.817  0.00  0.00    +0.000 A 
ATOM     22  C   UNL     1      47.006   5.561  18.597  0.00  0.00    +0.000 A 
ATOM     23  S   UNL     1      47.535   5.898  20.183  0.00  0.00    +0.000 S 
ATOM     24  C   UNL     1      49.065   5.229  19.881  0.00  0.00    +0.000 A 
ATOM     25  N   UNL     1      50.016   5.168  20.855  0.00  0.00    +0.000 NA
ATOM     26  C   UNL     1      51.118   4.604  20.487  0.00  0.00    +0.000 A 
ATOM     27  N   UNL     1      51.367   4.104  19.239  0.00  0.00    +0.000 N 
ATOM     28  C   UNL     1      50.461   4.194  18.209  0.00  0.00    +0.000 A 
ATOM     29  O   UNL     1      50.768   3.840  17.075  0.00  0.00    +0.000 OA
ATOM     30  C   UNL     1      49.187   4.778  18.583  0.00  0.00    +0.000 A 
ATOM     31  H   UNL     1      52.264   3.707  19.000  0.00  0.00    +0.000 HD
ENDBRANCH  18  21
ENDBRANCH   1  19
TORSDOF 7
ENDMDL
MODEL 9
REMARK VINA RESULT:    -7.598      2.776      3.830
REMARK INTER + INTRA:         -11.458
REMARK INTER:                 -10.669
REMARK INTRA:                  -0.789
REMARK UNBOUND:                -0.751
REMARK  Name = 
REMARK  7 active torsions:
REMARK  status: ('A' for Active; 'I' for Inactive)
REMARK    1  A    between atoms: C_2  and  C_20
REMARK    2  A    between atoms: N_3  and  C_4
REMARK    3  A    between atoms: C_4  and  C_5
REMARK    4  A    between atoms: C_8  and  C_9
REMARK    5  A    between atoms: C_9  and  O_10
REMARK    6  A    between atoms: O_10  and  C_11
REMARK    7  A    between atoms: C_11  and  C_12
REMARK                            x       y       z     vdW  Elec       q    Type
REMARK                         _______ _______ _______ _____ _____    ______ ____
ROOT
ATOM      1  C   UNL     1      47.641   7.499  13.648  0.00  0.00    +0.000 C 
ENDROOT
BRANCH   1   2
ATOM      2  C   UNL     1      47.680   6.273  12.720  0.00  0.00    +0.000 C 
ATOM      3  C   UNL     1      46.956   5.054  13.323  0.00  0.00    +0.000 C 
ATOM      4  C   UNL     1      45.440   5.244  13.376  0.00  0.00    +0.000 C 
ATOM      5  C   UNL     1      44.843   5.587  12.000  0.00  0.00    +0.000 C 
ATOM      6  C   UNL     1      45.562   6.802  11.394  0.00  0.00    +0.000 C 
ATOM      7  C   UNL     1      47.083   6.630  11.351  0.00  0.00    +0.000 C 
BRANCH   5   8
ATOM      8  C   UNL     1      44.857   4.399  11.022  0.00  0.00    +0.000 C 
BRANCH   8   9
ATOM      9  O   UNL     1      45.151   4.863   9.706  0.00  0.00    +0.000 OA
BRANCH   9  10
ATOM     10  C   UNL     1      44.536   4.049   8.709  0.00  0.00    +0.000 C 
BRANCH  10  11
ATOM     11  C   UNL     1      45.567   3.115   8.150  0.00  0.00    +0.000 A 
ATOM     12  C   UNL     1      46.512   3.542   7.213  0.00  0.00    +0.000 A 
ATOM     13  C   UNL     1      47.446   2.640   6.712  0.00  0.00    +0.000 A 
ATOM     14  C   UNL     1      47.400   1.331   7.162  0.00  0.00    +0.000 A 
ATOM     15  N   UNL     1      46.503   0.879   8.065  0.00  0.00    +0.000 NA
ATOM     16  C   UNL     1      45.614   1.781   8.540  0.00  0.00    +0.000 A 
ENDBRANCH  10  11
ENDBRANCH   9  10
ENDBRANCH   8   9
ENDBRANCH   5   8
ENDBRANCH   1   2
BRANCH   1  19
ATOM     17  O   UNL     1      50.115   6.963  14.888  0.00  0.00    +0.000 OA
ATOM     18  C   UNL     1      49.088   6.924  15.558  0.00  0.00    +0.000 C 
ATOM     19  N   UNL     1      47.847   7.138  15.025  0.00  0.00    +0.000 N 
ATOM     20  H   UNL     1      47.048   7.258  15.641  0.00  0.00    +0.000 HD
BRANCH  18  21
ATOM     21  C   UNL     1      49.112   6.610  16.987  0.00  0.00    +0.000 A 
ATOM     22  C   UNL     1      49.611   5.395  17.434  0.00  0.00    +0.000 A 
ATOM     23  S   UNL     1      49.576   5.242  19.133  0.00  0.00    +0.000 S 
ATOM     24  C   UNL     1      48.914   6.795  19.320  0.00  0.00    +0.000 A 
ATOM     25  N   UNL     1      48.660   7.311  20.555  0.00  0.00    +0.000 NA
ATOM     26  C   UNL     1      48.187   8.513  20.541  0.00  0.00    +0.000 A 
ATOM     27  N   UNL     1      47.934   9.245  19.414  0.00  0.00    +0.000 N 
ATOM     28  C   UNL     1      48.119   8.746  18.146  0.00  0.00    +0.000 A 
ATOM     29  O   UNL     1      47.769   9.391  17.164  0.00  0.00    +0.000 OA
ATOM     30  C   UNL     1      48.695   7.414  18.107  0.00  0.00    +0.000 A 
ATOM     31  H   UNL     1      47.528  10.168  19.466  0.00  0.00    +0.000 HD
ENDBRANCH  18  21
ENDBRANCH   1  19
TORSDOF 7
ENDMDL
