MODEL 1
REMARK VINA RESULT:    -9.163      0.000      0.000
REMARK INTER + INTRA:         -12.804
REMARK INTER:                 -11.841
REMARK INTRA:                  -0.964
REMARK UNBOUND:                -0.964
REMARK  Name = 
REMARK  7 active torsions:
REMARK  status: ('A' for Active; 'I' for Inactive)
REMARK    1  A    between atoms: C_1  and  C_2
REMARK    2  A    between atoms: C_2  and  C_3
REMARK    3  A    between atoms: C_2  and  C_4
REMARK    4  A    between atoms: C_2  and  C_18
REMARK    5  A    between atoms: C_5  and  C_6
REMARK    6  A    between atoms: C_10  and  C_11
REMARK    7  A    between atoms: C_21  and  C_22
REMARK                            x       y       z     vdW  Elec       q    Type
REMARK                         _______ _______ _______ _____ _____    ______ ____
ROOT
ATOM      1  C   UNL     1      43.438   2.797  11.399  0.00  0.00    +0.000 C 
ATOM      2  C   UNL     1      44.304   3.990  10.932  0.00  0.00    +0.000 C 
ATOM      3  C   UNL     1      43.353   5.182  10.659  0.00  0.00    +0.000 C 
ENDROOT
BRANCH   2   4
ATOM      4  C   UNL     1      45.055   3.537   9.664  0.00  0.00    +0.000 A 
ATOM      5  C   UNL     1      45.630   4.475   8.783  0.00  0.00    +0.000 A 
ATOM      6  C   UNL     1      46.354   4.064   7.655  0.00  0.00    +0.000 A 
ATOM      7  C   UNL     1      46.540   2.705   7.381  0.00  0.00    +0.000 A 
ATOM      8  C   UNL     1      45.990   1.772   8.257  0.00  0.00    +0.000 A 
ATOM      9  F   UNL     1      46.147   0.454   8.061  0.00  0.00    +0.000 F 
ATOM     10  C   UNL     1      45.264   2.177   9.380  0.00  0.00    +0.000 A 
BRANCH   7  11
ATOM     11  C   UNL     1      47.327   2.322   6.183  0.00  0.00    +0.000 C 
ATOM     12  N   UNL     1      47.107   3.000   5.018  0.00  0.00    +0.000 N 
ATOM     13  O   UNL     1      48.151   1.416   6.224  0.00  0.00    +0.000 OA
ATOM     14  H   UNL     1      46.429   3.749   4.935  0.00  0.00    +0.000 HD
ATOM     15  H   UNL     1      47.639   2.733   4.202  0.00  0.00    +0.000 HD
ENDBRANCH   7  11
ENDBRANCH   2   4
BRANCH   2  16
ATOM     16  C   UNL     1      45.266   4.501  12.009  0.00  0.00    +0.000 C 
ATOM     17  C   UNL     1      45.904   5.685  12.008  0.00  0.00    +0.000 C 
BRANCH  17  18
ATOM     18  C   UNL     1      46.889   6.139  12.998  0.00  0.00    +0.000 A 
ATOM     19  C   UNL     1      47.496   7.396  12.948  0.00  0.00    +0.000 A 
ATOM     20  C   UNL     1      48.347   7.807  13.972  0.00  0.00    +0.000 A 
ATOM     21  C   UNL     1      48.584   6.971  15.067  0.00  0.00    +0.000 A 
ATOM     22  C   UNL     1      47.971   5.711  15.169  0.00  0.00    +0.000 A 
ATOM     23  C   UNL     1      47.135   5.315  14.108  0.00  0.00    +0.000 A 
BRANCH  22  24
ATOM     24  C   UNL     1      48.150   4.852  16.358  0.00  0.00    +0.000 A 
ATOM     25  C   UNL     1      47.402   3.682  16.565  0.00  0.00    +0.000 A 
ATOM     26  C   UNL     1      47.571   2.923  17.723  0.00  0.00    +0.000 A 
ATOM     27  C   UNL     1      48.501   3.344  18.656  0.00  0.00    +0.000 A 
ATOM     28  N   UNL     1      49.251   4.454  18.509  0.00  0.00    +0.000 NA
ATOM     29  C   UNL     1      49.052   5.174  17.376  0.00  0.00    +0.000 A 
ENDBRANCH  22  24
ENDBRANCH  17  18
ENDBRANCH   2  16
TORSDOF 5
ENDMDL
MODEL 2
REMARK VINA RESULT:    -8.543      1.721      3.403
REMARK INTER + INTRA:         -12.004
REMARK INTER:                 -10.974
REMARK INTRA:                  -1.030
REMARK UNBOUND:                -0.964
REMARK  Name = 
REMARK  7 active torsions:
REMARK  status: ('A' for Active; 'I' for Inactive)
REMARK    1  A    between atoms: C_1  and  C_2
REMARK    2  A    between atoms: C_2  and  C_3
REMARK    3  A    between atoms: C_2  and  C_4
REMARK    4  A    between atoms: C_2  and  C_18
REMARK    5  A    between atoms: C_5  and  C_6
REMARK    6  A    between atoms: C_10  and  C_11
REMARK    7  A    between atoms: C_21  and  C_22
REMARK                            x       y       z     vdW  Elec       q    Type
REMARK                         _______ _______ _______ _____ _____    ______ ____
ROOT
ATOM      1  C   UNL     1      43.518   2.839  11.560  0.00  0.00    +0.000 C 
ATOM      2  C   UNL     1      44.262   4.063  10.978  0.00  0.00    +0.000 C 
ATOM      3  C   UNL     1      43.202   5.141  10.639  0.00  0.00    +0.000 C 
ENDROOT
BRANCH   2   4
ATOM      4  C   UNL     1      45.027   3.580   9.730  0.00  0.00    +0.000 A 
ATOM      5  C   UNL     1      45.650   4.493   8.856  0.00  0.00    +0.000 A 
ATOM      6  C   UNL     1      46.385   4.053   7.747  0.00  0.00    +0.000 A 
ATOM      7  C   UNL     1      46.534   2.687   7.485  0.00  0.00    +0.000 A 
ATOM      8  C   UNL     1      45.937   1.777   8.354  0.00  0.00    +0.000 A 
ATOM      9  F   UNL     1      46.056   0.453   8.168  0.00  0.00    +0.000 F 
ATOM     10  C   UNL     1      45.199   2.212   9.458  0.00  0.00    +0.000 A 
BRANCH   7  11
ATOM     11  C   UNL     1      47.334   2.271   6.306  0.00  0.00    +0.000 C 
ATOM     12  N   UNL     1      47.099   2.891   5.112  0.00  0.00    +0.000 N 
ATOM     13  O   UNL     1      48.183   1.391   6.390  0.00  0.00    +0.000 OA
ATOM     14  H   UNL     1      46.402   3.616   4.994  0.00  0.00    +0.000 HD
ATOM     15  H   UNL     1      47.641   2.602   4.310  0.00  0.00    +0.000 HD
ENDBRANCH   7  11
ENDBRANCH   2   4
BRANCH   2  16
ATOM     16  C   UNL     1      45.195   4.743  11.986  0.00  0.00    +0.000 C 
ATOM     17  C   UNL     1      45.919   4.128  12.938  0.00  0.00    +0.000 C 
BRANCH  17  18
ATOM     18  C   UNL     1      46.748   4.787  13.957  0.00  0.00    +0.000 A 
ATOM     19  C   UNL     1      47.026   4.213  15.200  0.00  0.00    +0.000 A 
ATOM     20  C   UNL     1      47.900   4.842  16.084  0.00  0.00    +0.000 A 
ATOM     21  C   UNL     1      48.521   6.042  15.725  0.00  0.00    +0.000 A 
ATOM     22  C   UNL     1      48.290   6.637  14.473  0.00  0.00    +0.000 A 
ATOM     23  C   UNL     1      47.385   5.990  13.611  0.00  0.00    +0.000 A 
BRANCH  22  24
ATOM     24  C   UNL     1      49.000   7.861  14.049  0.00  0.00    +0.000 A 
ATOM     25  C   UNL     1      49.773   7.921  12.879  0.00  0.00    +0.000 A 
ATOM     26  C   UNL     1      50.463   9.084  12.538  0.00  0.00    +0.000 A 
ATOM     27  C   UNL     1      50.358  10.180  13.374  0.00  0.00    +0.000 A 
ATOM     28  N   UNL     1      49.628  10.184  14.506  0.00  0.00    +0.000 NA
ATOM     29  C   UNL     1      48.979   9.032  14.813  0.00  0.00    +0.000 A 
ENDBRANCH  22  24
ENDBRANCH  17  18
ENDBRANCH   2  16
TORSDOF 5
ENDMDL
MODEL 3
REMARK VINA RESULT:    -8.275      2.579      4.345
REMARK INTER + INTRA:         -11.657
REMARK INTER:                 -10.966
REMARK INTRA:                  -0.691
REMARK UNBOUND:                -0.964
REMARK  Name = 
REMARK  7 active torsions:
REMARK  status: ('A' for Active; 'I' for Inactive)
REMARK    1  A    between atoms: C_1  and  C_2
REMARK    2  A    between atoms: C_2  and  C_3
REMARK    3  A    between atoms: C_2  and  C_4
REMARK    4  A    between atoms: C_2  and  C_18
REMARK    5  A    between atoms: C_5  and  C_6
REMARK    6  A    between atoms: C_10  and  C_11
REMARK    7  A    between atoms: C_21  and  C_22
REMARK                            x       y       z     vdW  Elec       q    Type
REMARK                         _______ _______ _______ _____ _____    ______ ____
ROOT
ATOM      1  C   UNL     1      43.639   2.967  11.586  0.00  0.00    +0.000 C 
ATOM      2  C   UNL     1      44.372   4.175  10.958  0.00  0.00    +0.000 C 
ATOM      3  C   UNL     1      43.311   5.260  10.646  0.00  0.00    +0.000 C 
ENDROOT
BRANCH   2   4
ATOM      4  C   UNL     1      45.080   3.665   9.686  0.00  0.00    +0.000 A 
ATOM      5  C   UNL     1      45.654   4.561   8.762  0.00  0.00    +0.000 A 
ATOM      6  C   UNL     1      46.338   4.098   7.629  0.00  0.00    +0.000 A 
ATOM      7  C   UNL     1      46.485   2.727   7.394  0.00  0.00    +0.000 A 
ATOM      8  C   UNL     1      45.937   1.835   8.313  0.00  0.00    +0.000 A 
ATOM      9  F   UNL     1      46.057   0.508   8.154  0.00  0.00    +0.000 F 
ATOM     10  C   UNL     1      45.249   2.292   9.440  0.00  0.00    +0.000 A 
BRANCH   7  11
ATOM     11  C   UNL     1      47.231   2.288   6.189  0.00  0.00    +0.000 C 
ATOM     12  N   UNL     1      47.059   2.987   5.028  0.00  0.00    +0.000 N 
ATOM     13  O   UNL     1      47.981   1.319   6.222  0.00  0.00    +0.000 OA
ATOM     14  H   UNL     1      46.442   3.787   4.953  0.00  0.00    +0.000 HD
ATOM     15  H   UNL     1      47.563   2.682   4.208  0.00  0.00    +0.000 HD
ENDBRANCH   7  11
ENDBRANCH   2   4
BRANCH   2  16
ATOM     16  C   UNL     1      45.353   4.857  11.918  0.00  0.00    +0.000 C 
ATOM     17  C   UNL     1      46.185   5.869  11.617  0.00  0.00    +0.000 C 
BRANCH  17  18
ATOM     18  C   UNL     1      47.183   6.466  12.515  0.00  0.00    +0.000 A 
ATOM     19  C   UNL     1      47.333   6.082  13.849  0.00  0.00    +0.000 A 
ATOM     20  C   UNL     1      48.364   6.614  14.621  0.00  0.00    +0.000 A 
ATOM     21  C   UNL     1      49.267   7.520  14.060  0.00  0.00    +0.000 A 
ATOM     22  C   UNL     1      49.168   7.911  12.714  0.00  0.00    +0.000 A 
ATOM     23  C   UNL     1      48.103   7.375  11.966  0.00  0.00    +0.000 A 
BRANCH  22  24
ATOM     24  C   UNL     1      50.162   8.806  12.087  0.00  0.00    +0.000 A 
ATOM     25  C   UNL     1      49.800   9.970  11.391  0.00  0.00    +0.000 A 
ATOM     26  C   UNL     1      50.767  10.764  10.776  0.00  0.00    +0.000 A 
ATOM     27  C   UNL     1      52.093  10.384  10.879  0.00  0.00    +0.000 A 
ATOM     28  N   UNL     1      52.501   9.282  11.538  0.00  0.00    +0.000 NA
ATOM     29  C   UNL     1      51.532   8.527  12.115  0.00  0.00    +0.000 A 
ENDBRANCH  22  24
ENDBRANCH  17  18
ENDBRANCH   2  16
TORSDOF 5
ENDMDL
MODEL 4
REMARK VINA RESULT:    -8.176      0.970      1.442
REMARK INTER + INTRA:         -11.530
REMARK INTER:                 -11.006
REMARK INTRA:                  -0.524
REMARK UNBOUND:                -0.964
REMARK  Name = 
REMARK  7 active torsions:
REMARK  status: ('A' for Active; 'I' for Inactive)
REMARK    1  A    between atoms: C_1  and  C_2
REMARK    2  A    between atoms: C_2  and  C_3
REMARK    3  A    between atoms: C_2  and  C_4
REMARK    4  A    between atoms: C_2  and  C_18
REMARK    5  A    between atoms: C_5  and  C_6
REMARK    6  A    between atoms: C_10  and  C_11
REMARK    7  A    between atoms: C_21  and  C_22
REMARK                            x       y       z     vdW  Elec       q    Type
REMARK                         _______ _______ _______ _____ _____    ______ ____
ROOT
ATOM      1  C   UNL     1      43.677   3.078  11.965  0.00  0.00    +0.000 C 
ATOM      2  C   UNL     1      44.238   4.316  11.226  0.00  0.00    +0.000 C 
ATOM      3  C   UNL     1      43.049   5.261  10.922  0.00  0.00    +0.000 C 
ENDROOT
BRANCH   2   4
ATOM      4  C   UNL     1      44.925   3.806   9.944  0.00  0.00    +0.000 A 
ATOM      5  C   UNL     1      45.497   4.701   9.017  0.00  0.00    +0.000 A 
ATOM      6  C   UNL     1      46.162   4.238   7.874  0.00  0.00    +0.000 A 
ATOM      7  C   UNL     1      46.293   2.867   7.629  0.00  0.00    +0.000 A 
ATOM      8  C   UNL     1      45.747   1.975   8.549  0.00  0.00    +0.000 A 
ATOM      9  F   UNL     1      45.852   0.648   8.382  0.00  0.00    +0.000 F 
ATOM     10  C   UNL     1      45.077   2.433   9.687  0.00  0.00    +0.000 A 
BRANCH   7  11
ATOM     11  C   UNL     1      47.020   2.427   6.413  0.00  0.00    +0.000 C 
ATOM     12  N   UNL     1      46.990   3.235   5.312  0.00  0.00    +0.000 N 
ATOM     13  O   UNL     1      47.629   1.364   6.383  0.00  0.00    +0.000 OA
ATOM     14  H   UNL     1      46.492   4.117   5.288  0.00  0.00    +0.000 HD
ATOM     15  H   UNL     1      47.481   2.930   4.483  0.00  0.00    +0.000 HD
ENDBRANCH   7  11
ENDBRANCH   2   4
BRANCH   2  16
ATOM     16  C   UNL     1      45.190   5.156  12.084  0.00  0.00    +0.000 C 
ATOM     17  C   UNL     1      46.034   6.103  11.639  0.00  0.00    +0.000 C 
BRANCH  17  18
ATOM     18  C   UNL     1      47.005   6.849  12.451  0.00  0.00    +0.000 A 
ATOM     19  C   UNL     1      47.329   8.187  12.213  0.00  0.00    +0.000 A 
ATOM     20  C   UNL     1      48.182   8.867  13.079  0.00  0.00    +0.000 A 
ATOM     21  C   UNL     1      48.704   8.222  14.203  0.00  0.00    +0.000 A 
ATOM     22  C   UNL     1      48.381   6.886  14.494  0.00  0.00    +0.000 A 
ATOM     23  C   UNL     1      47.535   6.218  13.588  0.00  0.00    +0.000 A 
BRANCH  22  24
ATOM     24  C   UNL     1      48.861   6.216  15.720  0.00  0.00    +0.000 A 
ATOM     25  C   UNL     1      50.094   6.526  16.318  0.00  0.00    +0.000 A 
ATOM     26  C   UNL     1      50.530   5.839  17.451  0.00  0.00    +0.000 A 
ATOM     27  C   UNL     1      49.714   4.855  17.978  0.00  0.00    +0.000 A 
ATOM     28  N   UNL     1      48.520   4.519  17.452  0.00  0.00    +0.000 NA
ATOM     29  C   UNL     1      48.132   5.199  16.343  0.00  0.00    +0.000 A 
ENDBRANCH  22  24
ENDBRANCH  17  18
ENDBRANCH   2  16
TORSDOF 5
ENDMDL
MODEL 5
REMARK VINA RESULT:    -7.392      3.065      4.911
REMARK INTER + INTRA:         -10.516
REMARK INTER:                  -9.459
REMARK INTRA:                  -1.057
REMARK UNBOUND:                -0.964
REMARK  Name = 
REMARK  7 active torsions:
REMARK  status: ('A' for Active; 'I' for Inactive)
REMARK    1  A    between atoms: C_1  and  C_2
REMARK    2  A    between atoms: C_2  and  C_3
REMARK    3  A    between atoms: C_2  and  C_4
REMARK    4  A    between atoms: C_2  and  C_18
REMARK    5  A    between atoms: C_5  and  C_6
REMARK    6  A    between atoms: C_10  and  C_11
REMARK    7  A    between atoms: C_21  and  C_22
REMARK                            x       y       z     vdW  Elec       q    Type
REMARK                         _______ _______ _______ _____ _____    ______ ____
ROOT
ATOM      1  C   UNL     1      46.753   8.294  13.279  0.00  0.00    +0.000 C 
ATOM      2  C   UNL     1      47.621   7.023  13.129  0.00  0.00    +0.000 C 
ATOM      3  C   UNL     1      48.826   7.381  12.224  0.00  0.00    +0.000 C 
ENDROOT
BRANCH   2   4
ATOM      4  C   UNL     1      46.726   5.933  12.508  0.00  0.00    +0.000 A 
ATOM      5  C   UNL     1      46.342   4.795  13.246  0.00  0.00    +0.000 A 
ATOM      6  C   UNL     1      45.490   3.826  12.699  0.00  0.00    +0.000 A 
ATOM      7  C   UNL     1      44.981   3.971  11.404  0.00  0.00    +0.000 A 
ATOM      8  C   UNL     1      45.340   5.101  10.674  0.00  0.00    +0.000 A 
ATOM      9  F   UNL     1      44.873   5.308   9.433  0.00  0.00    +0.000 F 
ATOM     10  C   UNL     1      46.194   6.067  11.214  0.00  0.00    +0.000 A 
BRANCH   7  11
ATOM     11  C   UNL     1      44.070   2.925  10.876  0.00  0.00    +0.000 C 
ATOM     12  N   UNL     1      44.505   2.150   9.838  0.00  0.00    +0.000 N 
ATOM     13  O   UNL     1      42.951   2.757  11.347  0.00  0.00    +0.000 OA
ATOM     14  H   UNL     1      45.417   2.260   9.412  0.00  0.00    +0.000 HD
ATOM     15  H   UNL     1      43.881   1.443   9.477  0.00  0.00    +0.000 HD
ENDBRANCH   7  11
ENDBRANCH   2   4
BRANCH   2  16
ATOM     16  C   UNL     1      48.251   6.557  14.446  0.00  0.00    +0.000 C 
ATOM     17  C   UNL     1      48.722   7.349  15.425  0.00  0.00    +0.000 C 
BRANCH  17  18
ATOM     18  C   UNL     1      49.400   6.902  16.649  0.00  0.00    +0.000 A 
ATOM     19  C   UNL     1      49.372   7.627  17.843  0.00  0.00    +0.000 A 
ATOM     20  C   UNL     1      49.950   7.102  18.997  0.00  0.00    +0.000 A 
ATOM     21  C   UNL     1      50.545   5.837  18.972  0.00  0.00    +0.000 A 
ATOM     22  C   UNL     1      50.571   5.065  17.799  0.00  0.00    +0.000 A 
ATOM     23  C   UNL     1      49.999   5.632  16.644  0.00  0.00    +0.000 A 
BRANCH  22  24
ATOM     24  C   UNL     1      51.125   3.695  17.779  0.00  0.00    +0.000 A 
ATOM     25  C   UNL     1      52.437   3.405  18.185  0.00  0.00    +0.000 A 
ATOM     26  C   UNL     1      52.936   2.105  18.109  0.00  0.00    +0.000 A 
ATOM     27  C   UNL     1      52.103   1.107  17.636  0.00  0.00    +0.000 A 
ATOM     28  N   UNL     1      50.835   1.325  17.237  0.00  0.00    +0.000 NA
ATOM     29  C   UNL     1      50.386   2.604  17.314  0.00  0.00    +0.000 A 
ENDBRANCH  22  24
ENDBRANCH  17  18
ENDBRANCH   2  16
TORSDOF 5
ENDMDL
MODEL 6
REMARK VINA RESULT:    -7.389      4.488      8.726
REMARK INTER + INTRA:         -10.512
REMARK INTER:                  -9.419
REMARK INTRA:                  -1.093
REMARK UNBOUND:                -0.964
REMARK  Name = 
REMARK  7 active torsions:
REMARK  status: ('A' for Active; 'I' for Inactive)
REMARK    1  A    between atoms: C_1  and  C_2
REMARK    2  A    between atoms: C_2  and  C_3
REMARK    3  A    between atoms: C_2  and  C_4
REMARK    4  A    between atoms: C_2  and  C_18
REMARK    5  A    between atoms: C_5  and  C_6
REMARK    6  A    between atoms: C_10  and  C_11
REMARK    7  A    between atoms: C_21  and  C_22
REMARK                            x       y       z     vdW  Elec       q    Type
REMARK                         _______ _______ _______ _____ _____    ______ ____
ROOT
ATOM      1  C   UNL     1      49.799   6.560  18.218  0.00  0.00    +0.000 C 
ATOM      2  C   UNL     1      49.064   5.314  17.673  0.00  0.00    +0.000 C 
ATOM      3  C   UNL     1      47.826   5.068  18.570  0.00  0.00    +0.000 C 
ENDROOT
BRANCH   2   4
ATOM      4  C   UNL     1      50.063   4.141  17.719  0.00  0.00    +0.000 A 
ATOM      5  C   UNL     1      49.697   2.852  17.284  0.00  0.00    +0.000 A 
ATOM      6  C   UNL     1      50.618   1.795  17.282  0.00  0.00    +0.000 A 
ATOM      7  C   UNL     1      51.938   1.997  17.697  0.00  0.00    +0.000 A 
ATOM      8  C   UNL     1      52.314   3.273  18.111  0.00  0.00    +0.000 A 
ATOM      9  F   UNL     1      53.569   3.537  18.506  0.00  0.00    +0.000 F 
ATOM     10  C   UNL     1      51.397   4.327  18.120  0.00  0.00    +0.000 A 
BRANCH   7  11
ATOM     11  C   UNL     1      52.879   0.850  17.661  0.00  0.00    +0.000 C 
ATOM     12  N   UNL     1      52.559  -0.274  18.369  0.00  0.00    +0.000 N 
ATOM     13  O   UNL     1      53.923   0.902  17.022  0.00  0.00    +0.000 OA
ATOM     14  H   UNL     1      51.712  -0.357  18.919  0.00  0.00    +0.000 HD
ATOM     15  H   UNL     1      53.204  -1.051  18.348  0.00  0.00    +0.000 HD
ENDBRANCH   7  11
ENDBRANCH   2   4
BRANCH   2  16
ATOM     16  C   UNL     1      48.489   5.514  16.266  0.00  0.00    +0.000 C 
ATOM     17  C   UNL     1      48.866   6.451  15.380  0.00  0.00    +0.000 C 
BRANCH  17  18
ATOM     18  C   UNL     1      48.258   6.695  14.065  0.00  0.00    +0.000 A 
ATOM     19  C   UNL     1      48.780   7.602  13.140  0.00  0.00    +0.000 A 
ATOM     20  C   UNL     1      48.216   7.715  11.871  0.00  0.00    +0.000 A 
ATOM     21  C   UNL     1      47.136   6.906  11.508  0.00  0.00    +0.000 A 
ATOM     22  C   UNL     1      46.599   5.961  12.398  0.00  0.00    +0.000 A 
ATOM     23  C   UNL     1      47.175   5.887  13.680  0.00  0.00    +0.000 A 
BRANCH  22  24
ATOM     24  C   UNL     1      45.510   5.045  11.999  0.00  0.00    +0.000 A 
ATOM     25  C   UNL     1      44.849   5.148  10.765  0.00  0.00    +0.000 A 
ATOM     26  C   UNL     1      43.796   4.290  10.446  0.00  0.00    +0.000 A 
ATOM     27  C   UNL     1      43.428   3.330  11.370  0.00  0.00    +0.000 A 
ATOM     28  N   UNL     1      44.028   3.180  12.566  0.00  0.00    +0.000 NA
ATOM     29  C   UNL     1      45.041   4.039  12.849  0.00  0.00    +0.000 A 
ENDBRANCH  22  24
ENDBRANCH  17  18
ENDBRANCH   2  16
TORSDOF 5
ENDMDL
MODEL 7
REMARK VINA RESULT:    -7.378      3.979      8.931
REMARK INTER + INTRA:         -10.498
REMARK INTER:                  -9.338
REMARK INTRA:                  -1.160
REMARK UNBOUND:                -0.964
REMARK  Name = 
REMARK  7 active torsions:
REMARK  status: ('A' for Active; 'I' for Inactive)
REMARK    1  A    between atoms: C_1  and  C_2
REMARK    2  A    between atoms: C_2  and  C_3
REMARK    3  A    between atoms: C_2  and  C_4
REMARK    4  A    between atoms: C_2  and  C_18
REMARK    5  A    between atoms: C_5  and  C_6
REMARK    6  A    between atoms: C_10  and  C_11
REMARK    7  A    between atoms: C_21  and  C_22
REMARK                            x       y       z     vdW  Elec       q    Type
REMARK                         _______ _______ _______ _____ _____    ______ ____
ROOT
ATOM      1  C   UNL     1      49.851   8.438  11.771  0.00  0.00    +0.000 C 
ATOM      2  C   UNL     1      48.413   8.486  12.339  0.00  0.00    +0.000 C 
ATOM      3  C   UNL     1      47.801   9.855  11.954  0.00  0.00    +0.000 C 
ENDROOT
BRANCH   2   4
ATOM      4  C   UNL     1      48.521   8.300  13.865  0.00  0.00    +0.000 A 
ATOM      5  C   UNL     1      48.223   9.354  14.752  0.00  0.00    +0.000 A 
ATOM      6  C   UNL     1      48.275   9.173  16.141  0.00  0.00    +0.000 A 
ATOM      7  C   UNL     1      48.610   7.930  16.688  0.00  0.00    +0.000 A 
ATOM      8  C   UNL     1      48.888   6.878  15.818  0.00  0.00    +0.000 A 
ATOM      9  F   UNL     1      49.200   5.656  16.279  0.00  0.00    +0.000 F 
ATOM     10  C   UNL     1      48.843   7.055  14.433  0.00  0.00    +0.000 A 
BRANCH   7  11
ATOM     11  C   UNL     1      48.637   7.786  18.164  0.00  0.00    +0.000 C 
ATOM     12  N   UNL     1      47.460   7.540  18.813  0.00  0.00    +0.000 N 
ATOM     13  O   UNL     1      49.681   7.890  18.797  0.00  0.00    +0.000 OA
ATOM     14  H   UNL     1      46.572   7.456  18.332  0.00  0.00    +0.000 HD
ATOM     15  H   UNL     1      47.479   7.448  19.819  0.00  0.00    +0.000 HD
ENDBRANCH   7  11
ENDBRANCH   2   4
BRANCH   2  16
ATOM     16  C   UNL     1      47.476   7.452  11.706  0.00  0.00    +0.000 C 
ATOM     17  C   UNL     1      46.144   7.378  11.877  0.00  0.00    +0.000 C 
BRANCH  17  18
ATOM     18  C   UNL     1      45.259   6.337  11.337  0.00  0.00    +0.000 A 
ATOM     19  C   UNL     1      43.877   6.332  11.542  0.00  0.00    +0.000 A 
ATOM     20  C   UNL     1      43.078   5.373  10.921  0.00  0.00    +0.000 A 
ATOM     21  C   UNL     1      43.653   4.423  10.072  0.00  0.00    +0.000 A 
ATOM     22  C   UNL     1      45.034   4.411   9.818  0.00  0.00    +0.000 A 
ATOM     23  C   UNL     1      45.818   5.377  10.478  0.00  0.00    +0.000 A 
BRANCH  22  24
ATOM     24  C   UNL     1      45.643   3.463   8.862  0.00  0.00    +0.000 A 
ATOM     25  C   UNL     1      46.280   3.881   7.683  0.00  0.00    +0.000 A 
ATOM     26  C   UNL     1      46.803   2.951   6.785  0.00  0.00    +0.000 A 
ATOM     27  C   UNL     1      46.690   1.607   7.091  0.00  0.00    +0.000 A 
ATOM     28  N   UNL     1      46.094   1.147   8.208  0.00  0.00    +0.000 NA
ATOM     29  C   UNL     1      45.587   2.079   9.054  0.00  0.00    +0.000 A 
ENDBRANCH  22  24
ENDBRANCH  17  18
ENDBRANCH   2  16
TORSDOF 5
ENDMDL
MODEL 8
REMARK VINA RESULT:    -7.234      4.250      8.261
REMARK INTER + INTRA:         -10.312
REMARK INTER:                  -9.266
REMARK INTRA:                  -1.047
REMARK UNBOUND:                -0.964
REMARK  Name = 
REMARK  7 active torsions:
REMARK  status: ('A' for Active; 'I' for Inactive)
REMARK    1  A    between atoms: C_1  and  C_2
REMARK    2  A    between atoms: C_2  and  C_3
REMARK    3  A    between atoms: C_2  and  C_4
REMARK    4  A    between atoms: C_2  and  C_18
REMARK    5  A    between atoms: C_5  and  C_6
REMARK    6  A    between atoms: C_10  and  C_11
REMARK    7  A    between atoms: C_21  and  C_22
REMARK                            x       y       z     vdW  Elec       q    Type
REMARK                         _______ _______ _______ _____ _____    ______ ____
ROOT
ATOM      1  C   UNL     1      46.000   9.355  11.978  0.00  0.00    +0.000 C 
ATOM      2  C   UNL     1      46.998   8.232  12.344  0.00  0.00    +0.000 C 
ATOM      3  C   UNL     1      46.972   8.064  13.884  0.00  0.00    +0.000 C 
ENDROOT
BRANCH   2   4
ATOM      4  C   UNL     1      48.383   8.669  11.826  0.00  0.00    +0.000 A 
ATOM      5  C   UNL     1      48.735  10.032  11.746  0.00  0.00    +0.000 A 
ATOM      6  C   UNL     1      50.010  10.429  11.319  0.00  0.00    +0.000 A 
ATOM      7  C   UNL     1      50.977   9.479  10.975  0.00  0.00    +0.000 A 
ATOM      8  C   UNL     1      50.642   8.130  11.069  0.00  0.00    +0.000 A 
ATOM      9  F   UNL     1      51.530   7.169  10.770  0.00  0.00    +0.000 F 
ATOM     10  C   UNL     1      49.371   7.730  11.489  0.00  0.00    +0.000 A 
BRANCH   7  11
ATOM     11  C   UNL     1      52.316   9.950  10.544  0.00  0.00    +0.000 C 
ATOM     12  N   UNL     1      53.184  10.399  11.499  0.00  0.00    +0.000 N 
ATOM     13  O   UNL     1      52.644   9.948   9.363  0.00  0.00    +0.000 OA
ATOM     14  H   UNL     1      52.953  10.428  12.485  0.00  0.00    +0.000 HD
ATOM     15  H   UNL     1      54.093  10.726  11.203  0.00  0.00    +0.000 HD
ENDBRANCH   7  11
ENDBRANCH   2   4
BRANCH   2  16
ATOM     16  C   UNL     1      46.596   6.859  11.797  0.00  0.00    +0.000 C 
ATOM     17  C   UNL     1      45.349   6.460  11.492  0.00  0.00    +0.000 C 
BRANCH  17  18
ATOM     18  C   UNL     1      44.954   5.116  11.047  0.00  0.00    +0.000 A 
ATOM     19  C   UNL     1      43.858   4.431  11.576  0.00  0.00    +0.000 A 
ATOM     20  C   UNL     1      43.474   3.201  11.043  0.00  0.00    +0.000 A 
ATOM     21  C   UNL     1      44.171   2.656   9.961  0.00  0.00    +0.000 A 
ATOM     22  C   UNL     1      45.262   3.327   9.382  0.00  0.00    +0.000 A 
ATOM     23  C   UNL     1      45.640   4.555   9.957  0.00  0.00    +0.000 A 
BRANCH  22  24
ATOM     24  C   UNL     1      45.957   2.800   8.189  0.00  0.00    +0.000 A 
ATOM     25  C   UNL     1      46.202   3.582   7.050  0.00  0.00    +0.000 A 
ATOM     26  C   UNL     1      46.822   3.034   5.927  0.00  0.00    +0.000 A 
ATOM     27  C   UNL     1      47.201   1.705   5.970  0.00  0.00    +0.000 A 
ATOM     28  N   UNL     1      46.998   0.907   7.037  0.00  0.00    +0.000 NA
ATOM     29  C   UNL     1      46.381   1.471   8.106  0.00  0.00    +0.000 A 
ENDBRANCH  22  24
ENDBRANCH  17  18
ENDBRANCH   2  16
TORSDOF 5
ENDMDL
MODEL 9
REMARK VINA RESULT:    -7.174      4.809      7.272
REMARK INTER + INTRA:         -10.235
REMARK INTER:                  -9.299
REMARK INTRA:                  -0.936
REMARK UNBOUND:                -0.964
REMARK  Name = 
REMARK  7 active torsions:
REMARK  status: ('A' for Active; 'I' for Inactive)
REMARK    1  A    between atoms: C_1  and  C_2
REMARK    2  A    between atoms: C_2  and  C_3
REMARK    3  A    between atoms: C_2  and  C_4
REMARK    4  A    between atoms: C_2  and  C_18
REMARK    5  A    between atoms: C_5  and  C_6
REMARK    6  A    between atoms: C_10  and  C_11
REMARK    7  A    between atoms: C_21  and  C_22
REMARK                            x       y       z     vdW  Elec       q    Type
REMARK                         _______ _______ _______ _____ _____    ______ ____
ROOT
ATOM      1  C   UNL     1      47.959   6.933  14.195  0.00  0.00    +0.000 C 
ATOM      2  C   UNL     1      47.454   7.329  12.788  0.00  0.00    +0.000 C 
ATOM      3  C   UNL     1      46.633   8.634  12.933  0.00  0.00    +0.000 C 
ENDROOT
BRANCH   2   4
ATOM      4  C   UNL     1      46.603   6.155  12.265  0.00  0.00    +0.000 A 
ATOM      5  C   UNL     1      46.189   5.115  13.121  0.00  0.00    +0.000 A 
ATOM      6  C   UNL     1      45.375   4.072  12.658  0.00  0.00    +0.000 A 
ATOM      7  C   UNL     1      44.936   4.043  11.330  0.00  0.00    +0.000 A 
ATOM      8  C   UNL     1      45.326   5.077  10.482  0.00  0.00    +0.000 A 
ATOM      9  F   UNL     1      44.925   5.118   9.201  0.00  0.00    +0.000 F 
ATOM     10  C   UNL     1      46.141   6.116  10.938  0.00  0.00    +0.000 A 
BRANCH   7  11
ATOM     11  C   UNL     1      44.064   2.926  10.892  0.00  0.00    +0.000 C 
ATOM     12  N   UNL     1      44.499   2.123   9.876  0.00  0.00    +0.000 N 
ATOM     13  O   UNL     1      42.976   2.723  11.418  0.00  0.00    +0.000 OA
ATOM     14  H   UNL     1      45.387   2.259   9.407  0.00  0.00    +0.000 HD
ATOM     15  H   UNL     1      43.901   1.366   9.576  0.00  0.00    +0.000 HD
ENDBRANCH   7  11
ENDBRANCH   2   4
BRANCH   2  16
ATOM     16  C   UNL     1      48.583   7.688  11.816  0.00  0.00    +0.000 C 
ATOM     17  C   UNL     1      49.889   7.790  12.118  0.00  0.00    +0.000 C 
BRANCH  17  18
ATOM     18  C   UNL     1      50.959   8.216  11.204  0.00  0.00    +0.000 A 
ATOM     19  C   UNL     1      51.572   9.468  11.282  0.00  0.00    +0.000 A 
ATOM     20  C   UNL     1      52.648   9.776  10.452  0.00  0.00    +0.000 A 
ATOM     21  C   UNL     1      53.135   8.824   9.551  0.00  0.00    +0.000 A 
ATOM     22  C   UNL     1      52.565   7.543   9.462  0.00  0.00    +0.000 A 
ATOM     23  C   UNL     1      51.464   7.271  10.297  0.00  0.00    +0.000 A 
BRANCH  22  24
ATOM     24  C   UNL     1      53.120   6.503   8.572  0.00  0.00    +0.000 A 
ATOM     25  C   UNL     1      54.190   5.677   8.950  0.00  0.00    +0.000 A 
ATOM     26  C   UNL     1      54.713   4.736   8.062  0.00  0.00    +0.000 A 
ATOM     27  C   UNL     1      54.144   4.629   6.807  0.00  0.00    +0.000 A 
ATOM     28  N   UNL     1      53.113   5.390   6.391  0.00  0.00    +0.000 NA
ATOM     29  C   UNL     1      52.636   6.302   7.276  0.00  0.00    +0.000 A 
ENDBRANCH  22  24
ENDBRANCH  17  18
ENDBRANCH   2  16
TORSDOF 5
ENDMDL
