MODEL 1
REMARK VINA RESULT:    -9.109      0.000      0.000
REMARK INTER + INTRA:         -12.368
REMARK INTER:                 -11.772
REMARK INTRA:                  -0.596
REMARK UNBOUND:                -0.596
REMARK  Name = 
REMARK  5 active torsions:
REMARK  status: ('A' for Active; 'I' for Inactive)
REMARK    1  A    between atoms: C_2  and  C_4
REMARK    2  A    between atoms: C_7  and  O_8
REMARK    3  A    between atoms: O_8  and  C_9
REMARK    4  A    between atoms: C_9  and  C_10
REMARK    5  A    between atoms: C_15  and  C_16
REMARK                            x       y       z     vdW  Elec       q    Type
REMARK                         _______ _______ _______ _____ _____    ______ ____
ROOT
ATOM      1  C   UNL     1      44.882   4.835  12.011  0.00  0.00    +0.000 A 
ATOM      2  C   UNL     1      45.514   3.859  12.794  0.00  0.00    +0.000 A 
ATOM      3  C   UNL     1      46.689   4.158  13.457  0.00  0.00    +0.000 A 
ATOM      4  F   UNL     1      47.280   3.221  14.208  0.00  0.00    +0.000 F 
ATOM      5  C   UNL     1      47.278   5.405  13.326  0.00  0.00    +0.000 A 
ATOM      6  C   UNL     1      46.717   6.383  12.487  0.00  0.00    +0.000 A 
ATOM      7  C   UNL     1      45.483   6.094  11.872  0.00  0.00    +0.000 A 
ENDROOT
BRANCH   6   8
ATOM      8  C   UNL     1      47.427   7.703  12.173  0.00  0.00    +0.000 C 
ATOM      9  C   UNL     1      48.937   7.622  12.488  0.00  0.00    +0.000 C 
ATOM     10  C   UNL     1      49.194   7.605  13.995  0.00  0.00    +0.000 C 
ATOM     11  C   UNL     1      48.484   8.749  14.719  0.00  0.00    +0.000 C 
ATOM     12  N   UNL     1      47.076   8.886  14.360  0.00  0.00    +0.000 NA
ATOM     13  C   UNL     1      46.869   8.948  12.907  0.00  0.00    +0.000 C 
ATOM     14  H   UNL     1      46.681   9.713  14.806  0.00  0.00    +0.000 HD
ENDBRANCH   6   8
BRANCH   1  15
ATOM     15  C   UNL     1      43.593   4.448  11.334  0.00  0.00    +0.000 C 
BRANCH  15  16
ATOM     16  O   UNL     1      43.621   4.615   9.915  0.00  0.00    +0.000 OA
BRANCH  16  20
ATOM     17  C   UNL     1      46.369   2.308   7.791  0.00  0.00    +0.000 A 
ATOM     18  C   UNL     1      45.507   1.666   8.682  0.00  0.00    +0.000 A 
ATOM     19  C   UNL     1      44.579   2.409   9.410  0.00  0.00    +0.000 A 
ATOM     20  C   UNL     1      44.505   3.796   9.261  0.00  0.00    +0.000 A 
ATOM     21  C   UNL     1      45.386   4.440   8.387  0.00  0.00    +0.000 A 
ATOM     22  C   UNL     1      46.322   3.700   7.658  0.00  0.00    +0.000 A 
BRANCH  17  24
ATOM     23  N   UNL     1      48.418   2.220   6.493  0.00  0.00    +0.000 N 
ATOM     24  C   UNL     1      47.351   1.529   6.995  0.00  0.00    +0.000 C 
ATOM     25  O   UNL     1      47.235   0.325   6.832  0.00  0.00    +0.000 OA
ATOM     26  H   UNL     1      49.135   1.668   6.037  0.00  0.00    +0.000 HD
ATOM     27  H   UNL     1      48.678   3.139   6.823  0.00  0.00    +0.000 HD
ENDBRANCH  17  24
ENDBRANCH  16  20
ENDBRANCH  15  16
ENDBRANCH   1  15
TORSDOF 5
ENDMDL
MODEL 2
REMARK VINA RESULT:    -8.871      1.033      1.699
REMARK INTER + INTRA:         -12.059
REMARK INTER:                 -11.473
REMARK INTRA:                  -0.587
REMARK UNBOUND:                -0.596
REMARK  Name = 
REMARK  5 active torsions:
REMARK  status: ('A' for Active; 'I' for Inactive)
REMARK    1  A    between atoms: C_2  and  C_4
REMARK    2  A    between atoms: C_7  and  O_8
REMARK    3  A    between atoms: O_8  and  C_9
REMARK    4  A    between atoms: C_9  and  C_10
REMARK    5  A    between atoms: C_15  and  C_16
REMARK                            x       y       z     vdW  Elec       q    Type
REMARK                         _______ _______ _______ _____ _____    ______ ____
ROOT
ATOM      1  C   UNL     1      44.851   5.143  11.970  0.00  0.00    +0.000 A 
ATOM      2  C   UNL     1      45.393   3.962  12.495  0.00  0.00    +0.000 A 
ATOM      3  C   UNL     1      46.433   4.022  13.403  0.00  0.00    +0.000 A 
ATOM      4  F   UNL     1      46.938   2.888  13.905  0.00  0.00    +0.000 F 
ATOM      5  C   UNL     1      46.977   5.240  13.776  0.00  0.00    +0.000 A 
ATOM      6  C   UNL     1      46.514   6.440  13.211  0.00  0.00    +0.000 A 
ATOM      7  C   UNL     1      45.408   6.375  12.341  0.00  0.00    +0.000 A 
ENDROOT
BRANCH   6   8
ATOM      8  C   UNL     1      47.204   7.785  13.455  0.00  0.00    +0.000 C 
ATOM      9  C   UNL     1      47.560   8.488  12.127  0.00  0.00    +0.000 C 
ATOM     10  C   UNL     1      48.720   7.790  11.418  0.00  0.00    +0.000 C 
ATOM     11  C   UNL     1      49.925   7.585  12.338  0.00  0.00    +0.000 C 
ATOM     12  N   UNL     1      49.582   7.001  13.630  0.00  0.00    +0.000 NA
ATOM     13  C   UNL     1      48.497   7.724  14.306  0.00  0.00    +0.000 C 
ATOM     14  H   UNL     1      50.407   6.968  14.228  0.00  0.00    +0.000 HD
ENDBRANCH   6   8
BRANCH   1  15
ATOM     15  C   UNL     1      43.705   5.005  11.002  0.00  0.00    +0.000 C 
BRANCH  15  16
ATOM     16  O   UNL     1      43.604   3.705  10.417  0.00  0.00    +0.000 OA
BRANCH  16  20
ATOM     17  C   UNL     1      46.461   2.688   7.556  0.00  0.00    +0.000 A 
ATOM     18  C   UNL     1      46.058   4.021   7.651  0.00  0.00    +0.000 A 
ATOM     19  C   UNL     1      45.103   4.394   8.595  0.00  0.00    +0.000 A 
ATOM     20  C   UNL     1      44.536   3.442   9.446  0.00  0.00    +0.000 A 
ATOM     21  C   UNL     1      44.923   2.103   9.332  0.00  0.00    +0.000 A 
ATOM     22  C   UNL     1      45.877   1.723   8.384  0.00  0.00    +0.000 A 
BRANCH  17  24
ATOM     23  N   UNL     1      47.511   2.962   5.384  0.00  0.00    +0.000 N 
ATOM     24  C   UNL     1      47.491   2.278   6.568  0.00  0.00    +0.000 C 
ATOM     25  O   UNL     1      48.305   1.403   6.814  0.00  0.00    +0.000 OA
ATOM     26  H   UNL     1      48.276   2.746   4.756  0.00  0.00    +0.000 HD
ATOM     27  H   UNL     1      47.037   3.844   5.256  0.00  0.00    +0.000 HD
ENDBRANCH  17  24
ENDBRANCH  16  20
ENDBRANCH  15  16
ENDBRANCH   1  15
TORSDOF 5
ENDMDL
MODEL 3
REMARK VINA RESULT:    -8.488      2.020      2.818
REMARK INTER + INTRA:         -11.565
REMARK INTER:                 -10.740
REMARK INTRA:                  -0.825
REMARK UNBOUND:                -0.596
REMARK  Name = 
REMARK  5 active torsions:
REMARK  status: ('A' for Active; 'I' for Inactive)
REMARK    1  A    between atoms: C_2  and  C_4
REMARK    2  A    between atoms: C_7  and  O_8
REMARK    3  A    between atoms: O_8  and  C_9
REMARK    4  A    between atoms: C_9  and  C_10
REMARK    5  A    between atoms: C_15  and  C_16
REMARK                            x       y       z     vdW  Elec       q    Type
REMARK                         _______ _______ _______ _____ _____    ______ ____
ROOT
ATOM      1  C   UNL     1      44.918   6.085  11.875  0.00  0.00    +0.000 A 
ATOM      2  C   UNL     1      44.144   7.112  11.319  0.00  0.00    +0.000 A 
ATOM      3  C   UNL     1      44.543   8.428  11.453  0.00  0.00    +0.000 A 
ATOM      4  F   UNL     1      43.800   9.402  10.911  0.00  0.00    +0.000 F 
ATOM      5  C   UNL     1      45.685   8.753  12.167  0.00  0.00    +0.000 A 
ATOM      6  C   UNL     1      46.442   7.757  12.807  0.00  0.00    +0.000 A 
ATOM      7  C   UNL     1      46.069   6.414  12.606  0.00  0.00    +0.000 A 
ENDROOT
BRANCH   6   8
ATOM      8  C   UNL     1      47.602   8.085  13.752  0.00  0.00    +0.000 C 
ATOM      9  C   UNL     1      48.418   9.296  13.247  0.00  0.00    +0.000 C 
ATOM     10  C   UNL     1      49.252   8.936  12.018  0.00  0.00    +0.000 C 
ATOM     11  C   UNL     1      50.099   7.682  12.238  0.00  0.00    +0.000 C 
ATOM     12  N   UNL     1      49.352   6.560  12.797  0.00  0.00    +0.000 NA
ATOM     13  C   UNL     1      48.601   6.929  14.004  0.00  0.00    +0.000 C 
ATOM     14  H   UNL     1      49.985   5.787  13.000  0.00  0.00    +0.000 HD
ENDBRANCH   6   8
BRANCH   1  15
ATOM     15  C   UNL     1      44.436   4.671  11.674  0.00  0.00    +0.000 C 
BRANCH  15  16
ATOM     16  O   UNL     1      43.873   4.438  10.382  0.00  0.00    +0.000 OA
BRANCH  16  20
ATOM     17  C   UNL     1      46.447   2.464   7.761  0.00  0.00    +0.000 A 
ATOM     18  C   UNL     1      46.360   3.856   7.689  0.00  0.00    +0.000 A 
ATOM     19  C   UNL     1      45.507   4.546   8.549  0.00  0.00    +0.000 A 
ATOM     20  C   UNL     1      44.729   3.856   9.482  0.00  0.00    +0.000 A 
ATOM     21  C   UNL     1      44.798   2.461   9.535  0.00  0.00    +0.000 A 
ATOM     22  C   UNL     1      45.649   1.764   8.672  0.00  0.00    +0.000 A 
BRANCH  17  24
ATOM     23  N   UNL     1      48.462   2.391   6.410  0.00  0.00    +0.000 N 
ATOM     24  C   UNL     1      47.363   1.717   6.865  0.00  0.00    +0.000 C 
ATOM     25  O   UNL     1      47.170   0.545   6.580  0.00  0.00    +0.000 OA
ATOM     26  H   UNL     1      49.134   1.848   5.881  0.00  0.00    +0.000 HD
ATOM     27  H   UNL     1      48.784   3.253   6.827  0.00  0.00    +0.000 HD
ENDBRANCH  17  24
ENDBRANCH  16  20
ENDBRANCH  15  16
ENDBRANCH   1  15
TORSDOF 5
ENDMDL
MODEL 4
REMARK VINA RESULT:    -7.300      2.253      3.187
REMARK INTER + INTRA:         -10.029
REMARK INTER:                  -9.229
REMARK INTRA:                  -0.800
REMARK UNBOUND:                -0.596
REMARK  Name = 
REMARK  5 active torsions:
REMARK  status: ('A' for Active; 'I' for Inactive)
REMARK    1  A    between atoms: C_2  and  C_4
REMARK    2  A    between atoms: C_7  and  O_8
REMARK    3  A    between atoms: O_8  and  C_9
REMARK    4  A    between atoms: C_9  and  C_10
REMARK    5  A    between atoms: C_15  and  C_16
REMARK                            x       y       z     vdW  Elec       q    Type
REMARK                         _______ _______ _______ _____ _____    ______ ____
ROOT
ATOM      1  C   UNL     1      45.642   4.726  12.837  0.00  0.00    +0.000 A 
ATOM      2  C   UNL     1      45.459   6.098  12.614  0.00  0.00    +0.000 A 
ATOM      3  C   UNL     1      46.315   7.013  13.194  0.00  0.00    +0.000 A 
ATOM      4  F   UNL     1      46.136   8.321  12.968  0.00  0.00    +0.000 F 
ATOM      5  C   UNL     1      47.336   6.596  14.032  0.00  0.00    +0.000 A 
ATOM      6  C   UNL     1      47.502   5.236  14.344  0.00  0.00    +0.000 A 
ATOM      7  C   UNL     1      46.671   4.304  13.692  0.00  0.00    +0.000 A 
ENDROOT
BRANCH   6   8
ATOM      8  C   UNL     1      48.498   4.749  15.401  0.00  0.00    +0.000 C 
ATOM      9  C   UNL     1      47.962   3.512  16.155  0.00  0.00    +0.000 C 
ATOM     10  C   UNL     1      46.823   3.884  17.103  0.00  0.00    +0.000 C 
ATOM     11  C   UNL     1      47.192   5.046  18.028  0.00  0.00    +0.000 C 
ATOM     12  N   UNL     1      47.780   6.185  17.331  0.00  0.00    +0.000 NA
ATOM     13  C   UNL     1      48.902   5.799  16.466  0.00  0.00    +0.000 C 
ATOM     14  H   UNL     1      48.083   6.888  18.005  0.00  0.00    +0.000 HD
ENDBRANCH   6   8
BRANCH   1  15
ATOM     15  C   UNL     1      44.686   3.782  12.156  0.00  0.00    +0.000 C 
BRANCH  15  16
ATOM     16  O   UNL     1      44.203   4.264  10.901  0.00  0.00    +0.000 OA
BRANCH  16  20
ATOM     17  C   UNL     1      46.446   2.854   7.681  0.00  0.00    +0.000 A 
ATOM     18  C   UNL     1      46.337   4.234   7.864  0.00  0.00    +0.000 A 
ATOM     19  C   UNL     1      45.592   4.738   8.929  0.00  0.00    +0.000 A 
ATOM     20  C   UNL     1      44.945   3.873   9.816  0.00  0.00    +0.000 A 
ATOM     21  C   UNL     1      45.034   2.493   9.615  0.00  0.00    +0.000 A 
ATOM     22  C   UNL     1      45.776   1.982   8.545  0.00  0.00    +0.000 A 
BRANCH  17  24
ATOM     23  N   UNL     1      47.136   2.932   5.355  0.00  0.00    +0.000 N 
ATOM     24  C   UNL     1      47.250   2.302   6.562  0.00  0.00    +0.000 C 
ATOM     25  O   UNL     1      48.007   1.357   6.720  0.00  0.00    +0.000 OA
ATOM     26  H   UNL     1      47.759   2.615   4.622  0.00  0.00    +0.000 HD
ATOM     27  H   UNL     1      46.733   3.854   5.257  0.00  0.00    +0.000 HD
ENDBRANCH  17  24
ENDBRANCH  16  20
ENDBRANCH  15  16
ENDBRANCH   1  15
TORSDOF 5
ENDMDL
MODEL 5
REMARK VINA RESULT:    -7.138      5.074      7.694
REMARK INTER + INTRA:          -9.821
REMARK INTER:                  -9.283
REMARK INTRA:                  -0.538
REMARK UNBOUND:                -0.596
REMARK  Name = 
REMARK  5 active torsions:
REMARK  status: ('A' for Active; 'I' for Inactive)
REMARK    1  A    between atoms: C_2  and  C_4
REMARK    2  A    between atoms: C_7  and  O_8
REMARK    3  A    between atoms: O_8  and  C_9
REMARK    4  A    between atoms: C_9  and  C_10
REMARK    5  A    between atoms: C_15  and  C_16
REMARK                            x       y       z     vdW  Elec       q    Type
REMARK                         _______ _______ _______ _____ _____    ______ ____
ROOT
ATOM      1  C   UNL     1      47.496   5.908  14.279  0.00  0.00    +0.000 A 
ATOM      2  C   UNL     1      48.044   6.700  13.262  0.00  0.00    +0.000 A 
ATOM      3  C   UNL     1      47.461   6.718  12.009  0.00  0.00    +0.000 A 
ATOM      4  F   UNL     1      47.988   7.484  11.046  0.00  0.00    +0.000 F 
ATOM      5  C   UNL     1      46.358   5.927  11.730  0.00  0.00    +0.000 A 
ATOM      6  C   UNL     1      45.829   5.060  12.701  0.00  0.00    +0.000 A 
ATOM      7  C   UNL     1      46.385   5.102  13.995  0.00  0.00    +0.000 A 
ENDROOT
BRANCH   6   8
ATOM      8  C   UNL     1      44.730   4.041  12.383  0.00  0.00    +0.000 C 
ATOM      9  C   UNL     1      44.208   4.205  10.939  0.00  0.00    +0.000 C 
ATOM     10  C   UNL     1      43.364   5.470  10.788  0.00  0.00    +0.000 C 
ATOM     11  C   UNL     1      42.263   5.563  11.846  0.00  0.00    +0.000 C 
ATOM     12  N   UNL     1      42.734   5.323  13.206  0.00  0.00    +0.000 NA
ATOM     13  C   UNL     1      43.500   4.076  13.324  0.00  0.00    +0.000 C 
ATOM     14  H   UNL     1      41.946   5.313  13.851  0.00  0.00    +0.000 HD
ENDBRANCH   6   8
BRANCH   1  15
ATOM     15  C   UNL     1      48.168   5.953  15.627  0.00  0.00    +0.000 C 
BRANCH  15  16
ATOM     16  O   UNL     1      47.769   4.895  16.500  0.00  0.00    +0.000 OA
BRANCH  16  20
ATOM     17  C   UNL     1      50.931   2.337  17.422  0.00  0.00    +0.000 A 
ATOM     18  C   UNL     1      49.735   1.781  16.962  0.00  0.00    +0.000 A 
ATOM     19  C   UNL     1      48.659   2.609  16.648  0.00  0.00    +0.000 A 
ATOM     20  C   UNL     1      48.760   3.994  16.796  0.00  0.00    +0.000 A 
ATOM     21  C   UNL     1      49.949   4.547  17.281  0.00  0.00    +0.000 A 
ATOM     22  C   UNL     1      51.031   3.721  17.602  0.00  0.00    +0.000 A 
BRANCH  17  24
ATOM     23  N   UNL     1      51.816   0.178  18.092  0.00  0.00    +0.000 N 
ATOM     24  C   UNL     1      52.093   1.471  17.744  0.00  0.00    +0.000 C 
ATOM     25  O   UNL     1      53.240   1.879  17.663  0.00  0.00    +0.000 OA
ATOM     26  H   UNL     1      52.614  -0.433  18.214  0.00  0.00    +0.000 HD
ATOM     27  H   UNL     1      50.920  -0.254  17.917  0.00  0.00    +0.000 HD
ENDBRANCH  17  24
ENDBRANCH  16  20
ENDBRANCH  15  16
ENDBRANCH   1  15
TORSDOF 5
ENDMDL
MODEL 6
REMARK VINA RESULT:    -6.981      4.497      6.419
REMARK INTER + INTRA:          -9.618
REMARK INTER:                  -8.617
REMARK INTRA:                  -1.001
REMARK UNBOUND:                -0.596
REMARK  Name = 
REMARK  5 active torsions:
REMARK  status: ('A' for Active; 'I' for Inactive)
REMARK    1  A    between atoms: C_2  and  C_4
REMARK    2  A    between atoms: C_7  and  O_8
REMARK    3  A    between atoms: O_8  and  C_9
REMARK    4  A    between atoms: C_9  and  C_10
REMARK    5  A    between atoms: C_15  and  C_16
REMARK                            x       y       z     vdW  Elec       q    Type
REMARK                         _______ _______ _______ _____ _____    ______ ____
ROOT
ATOM      1  C   UNL     1      49.000   7.641  14.962  0.00  0.00    +0.000 A 
ATOM      2  C   UNL     1      48.468   8.863  15.396  0.00  0.00    +0.000 A 
ATOM      3  C   UNL     1      48.243   9.079  16.742  0.00  0.00    +0.000 A 
ATOM      4  F   UNL     1      47.741  10.253  17.148  0.00  0.00    +0.000 F 
ATOM      5  C   UNL     1      48.501   8.085  17.672  0.00  0.00    +0.000 A 
ATOM      6  C   UNL     1      48.959   6.820  17.267  0.00  0.00    +0.000 A 
ATOM      7  C   UNL     1      49.253   6.632  15.902  0.00  0.00    +0.000 A 
ENDROOT
BRANCH   6   8
ATOM      8  C   UNL     1      49.084   5.641  18.236  0.00  0.00    +0.000 C 
ATOM      9  C   UNL     1      49.489   4.345  17.500  0.00  0.00    +0.000 C 
ATOM     10  C   UNL     1      48.337   3.796  16.658  0.00  0.00    +0.000 C 
ATOM     11  C   UNL     1      47.044   3.658  17.463  0.00  0.00    +0.000 C 
ATOM     12  N   UNL     1      46.701   4.851  18.230  0.00  0.00    +0.000 NA
ATOM     13  C   UNL     1      47.814   5.323  19.064  0.00  0.00    +0.000 C 
ATOM     14  H   UNL     1      45.882   4.670  18.809  0.00  0.00    +0.000 HD
ENDBRANCH   6   8
BRANCH   1  15
ATOM     15  C   UNL     1      49.241   7.480  13.483  0.00  0.00    +0.000 C 
BRANCH  15  16
ATOM     16  O   UNL     1      48.768   6.238  12.959  0.00  0.00    +0.000 OA
BRANCH  16  20
ATOM     17  C   UNL     1      44.635   5.746  12.704  0.00  0.00    +0.000 A 
ATOM     18  C   UNL     1      45.213   6.862  12.095  0.00  0.00    +0.000 A 
ATOM     19  C   UNL     1      46.592   7.057  12.165  0.00  0.00    +0.000 A 
ATOM     20  C   UNL     1      47.404   6.148  12.846  0.00  0.00    +0.000 A 
ATOM     21  C   UNL     1      46.821   5.045  13.477  0.00  0.00    +0.000 A 
ATOM     22  C   UNL     1      45.438   4.847  13.415  0.00  0.00    +0.000 A 
BRANCH  17  24
ATOM     23  N   UNL     1      42.486   6.238  11.688  0.00  0.00    +0.000 N 
ATOM     24  C   UNL     1      43.171   5.515  12.625  0.00  0.00    +0.000 C 
ATOM     25  O   UNL     1      42.611   4.691  13.331  0.00  0.00    +0.000 OA
ATOM     26  H   UNL     1      41.508   6.005  11.570  0.00  0.00    +0.000 HD
ATOM     27  H   UNL     1      42.946   6.720  10.928  0.00  0.00    +0.000 HD
ENDBRANCH  17  24
ENDBRANCH  16  20
ENDBRANCH  15  16
ENDBRANCH   1  15
TORSDOF 5
ENDMDL
MODEL 7
REMARK VINA RESULT:    -6.747      3.583      5.006
REMARK INTER + INTRA:          -9.315
REMARK INTER:                  -8.630
REMARK INTRA:                  -0.685
REMARK UNBOUND:                -0.596
REMARK  Name = 
REMARK  5 active torsions:
REMARK  status: ('A' for Active; 'I' for Inactive)
REMARK    1  A    between atoms: C_2  and  C_4
REMARK    2  A    between atoms: C_7  and  O_8
REMARK    3  A    between atoms: O_8  and  C_9
REMARK    4  A    between atoms: C_9  and  C_10
REMARK    5  A    between atoms: C_15  and  C_16
REMARK                            x       y       z     vdW  Elec       q    Type
REMARK                         _______ _______ _______ _____ _____    ______ ____
ROOT
ATOM      1  C   UNL     1      48.117   6.613  14.371  0.00  0.00    +0.000 A 
ATOM      2  C   UNL     1      49.109   7.551  14.687  0.00  0.00    +0.000 A 
ATOM      3  C   UNL     1      49.900   7.370  15.806  0.00  0.00    +0.000 A 
ATOM      4  F   UNL     1      50.850   8.268  16.095  0.00  0.00    +0.000 F 
ATOM      5  C   UNL     1      49.699   6.288  16.647  0.00  0.00    +0.000 A 
ATOM      6  C   UNL     1      48.663   5.370  16.407  0.00  0.00    +0.000 A 
ATOM      7  C   UNL     1      47.909   5.523  15.227  0.00  0.00    +0.000 A 
ENDROOT
BRANCH   6   8
ATOM      8  C   UNL     1      48.293   4.268  17.404  0.00  0.00    +0.000 C 
ATOM      9  C   UNL     1      49.457   3.968  18.374  0.00  0.00    +0.000 C 
ATOM     10  C   UNL     1      50.597   3.233  17.670  0.00  0.00    +0.000 C 
ATOM     11  C   UNL     1      50.109   1.999  16.907  0.00  0.00    +0.000 C 
ATOM     12  N   UNL     1      48.953   2.257  16.054  0.00  0.00    +0.000 NA
ATOM     13  C   UNL     1      47.859   2.921  16.774  0.00  0.00    +0.000 C 
ATOM     14  H   UNL     1      48.624   1.385  15.641  0.00  0.00    +0.000 HD
ENDBRANCH   6   8
BRANCH   1  15
ATOM     15  C   UNL     1      47.306   6.860  13.125  0.00  0.00    +0.000 C 
BRANCH  15  16
ATOM     16  O   UNL     1      45.970   6.360  13.205  0.00  0.00    +0.000 OA
BRANCH  16  20
ATOM     17  C   UNL     1      44.983   3.758  10.100  0.00  0.00    +0.000 A 
ATOM     18  C   UNL     1      44.899   3.292  11.413  0.00  0.00    +0.000 A 
ATOM     19  C   UNL     1      45.224   4.135  12.474  0.00  0.00    +0.000 A 
ATOM     20  C   UNL     1      45.643   5.447  12.236  0.00  0.00    +0.000 A 
ATOM     21  C   UNL     1      45.751   5.904  10.919  0.00  0.00    +0.000 A 
ATOM     22  C   UNL     1      45.430   5.060   9.851  0.00  0.00    +0.000 A 
BRANCH  17  24
ATOM     23  N   UNL     1      44.339   3.495   7.774  0.00  0.00    +0.000 N 
ATOM     24  C   UNL     1      44.623   2.878   8.960  0.00  0.00    +0.000 C 
ATOM     25  O   UNL     1      44.619   1.662   9.064  0.00  0.00    +0.000 OA
ATOM     26  H   UNL     1      44.192   2.888   6.977  0.00  0.00    +0.000 HD
ATOM     27  H   UNL     1      44.584   4.458   7.588  0.00  0.00    +0.000 HD
ENDBRANCH  17  24
ENDBRANCH  16  20
ENDBRANCH  15  16
ENDBRANCH   1  15
TORSDOF 5
ENDMDL
MODEL 8
REMARK VINA RESULT:    -6.564      4.011      6.162
REMARK INTER + INTRA:          -9.079
REMARK INTER:                  -8.459
REMARK INTRA:                  -0.620
REMARK UNBOUND:                -0.596
REMARK  Name = 
REMARK  5 active torsions:
REMARK  status: ('A' for Active; 'I' for Inactive)
REMARK    1  A    between atoms: C_2  and  C_4
REMARK    2  A    between atoms: C_7  and  O_8
REMARK    3  A    between atoms: O_8  and  C_9
REMARK    4  A    between atoms: C_9  and  C_10
REMARK    5  A    between atoms: C_15  and  C_16
REMARK                            x       y       z     vdW  Elec       q    Type
REMARK                         _______ _______ _______ _____ _____    ______ ____
ROOT
ATOM      1  C   UNL     1      49.320   7.076  15.020  0.00  0.00    +0.000 A 
ATOM      2  C   UNL     1      50.682   7.403  15.054  0.00  0.00    +0.000 A 
ATOM      3  C   UNL     1      51.466   6.989  16.114  0.00  0.00    +0.000 A 
ATOM      4  F   UNL     1      52.768   7.301  16.134  0.00  0.00    +0.000 F 
ATOM      5  C   UNL     1      50.913   6.284  17.171  0.00  0.00    +0.000 A 
ATOM      6  C   UNL     1      49.536   6.007  17.210  0.00  0.00    +0.000 A 
ATOM      7  C   UNL     1      48.759   6.369  16.093  0.00  0.00    +0.000 A 
ENDROOT
BRANCH   6   8
ATOM      8  C   UNL     1      48.855   5.392  18.437  0.00  0.00    +0.000 C 
ATOM      9  C   UNL     1      49.390   3.973  18.728  0.00  0.00    +0.000 C 
ATOM     10  C   UNL     1      48.893   2.964  17.693  0.00  0.00    +0.000 C 
ATOM     11  C   UNL     1      47.375   3.016  17.512  0.00  0.00    +0.000 C 
ATOM     12  N   UNL     1      46.853   4.366  17.322  0.00  0.00    +0.000 NA
ATOM     13  C   UNL     1      47.311   5.297  18.362  0.00  0.00    +0.000 C 
ATOM     14  H   UNL     1      45.835   4.345  17.294  0.00  0.00    +0.000 HD
ENDBRANCH   6   8
BRANCH   1  15
ATOM     15  C   UNL     1      48.529   7.540  13.824  0.00  0.00    +0.000 C 
BRANCH  15  16
ATOM     16  O   UNL     1      48.397   6.546  12.806  0.00  0.00    +0.000 OA
BRANCH  16  20
ATOM     17  C   UNL     1      44.478   5.365  12.006  0.00  0.00    +0.000 A 
ATOM     18  C   UNL     1      45.099   4.881  13.160  0.00  0.00    +0.000 A 
ATOM     19  C   UNL     1      46.409   5.254  13.454  0.00  0.00    +0.000 A 
ATOM     20  C   UNL     1      47.114   6.107  12.601  0.00  0.00    +0.000 A 
ATOM     21  C   UNL     1      46.499   6.570  11.434  0.00  0.00    +0.000 A 
ATOM     22  C   UNL     1      45.187   6.195  11.131  0.00  0.00    +0.000 A 
BRANCH  17  24
ATOM     23  N   UNL     1      42.151   5.996  11.722  0.00  0.00    +0.000 N 
ATOM     24  C   UNL     1      43.077   4.991  11.688  0.00  0.00    +0.000 C 
ATOM     25  O   UNL     1      42.773   3.853  11.370  0.00  0.00    +0.000 OA
ATOM     26  H   UNL     1      41.218   5.757  11.409  0.00  0.00    +0.000 HD
ATOM     27  H   UNL     1      42.407   6.974  11.722  0.00  0.00    +0.000 HD
ENDBRANCH  17  24
ENDBRANCH  16  20
ENDBRANCH  15  16
ENDBRANCH   1  15
TORSDOF 5
ENDMDL
MODEL 9
REMARK VINA RESULT:    -6.403      4.526      8.419
REMARK INTER + INTRA:          -8.870
REMARK INTER:                  -8.130
REMARK INTRA:                  -0.740
REMARK UNBOUND:                -0.596
REMARK  Name = 
REMARK  5 active torsions:
REMARK  status: ('A' for Active; 'I' for Inactive)
REMARK    1  A    between atoms: C_2  and  C_4
REMARK    2  A    between atoms: C_7  and  O_8
REMARK    3  A    between atoms: O_8  and  C_9
REMARK    4  A    between atoms: C_9  and  C_10
REMARK    5  A    between atoms: C_15  and  C_16
REMARK                            x       y       z     vdW  Elec       q    Type
REMARK                         _______ _______ _______ _____ _____    ______ ____
ROOT
ATOM      1  C   UNL     1      47.195   7.229  13.258  0.00  0.00    +0.000 A 
ATOM      2  C   UNL     1      46.551   8.472  13.202  0.00  0.00    +0.000 A 
ATOM      3  C   UNL     1      45.381   8.612  12.480  0.00  0.00    +0.000 A 
ATOM      4  F   UNL     1      44.768   9.802  12.439  0.00  0.00    +0.000 F 
ATOM      5  C   UNL     1      44.853   7.544  11.773  0.00  0.00    +0.000 A 
ATOM      6  C   UNL     1      45.513   6.304  11.740  0.00  0.00    +0.000 A 
ATOM      7  C   UNL     1      46.665   6.150  12.536  0.00  0.00    +0.000 A 
ENDROOT
BRANCH   6   8
ATOM      8  C   UNL     1      45.064   5.157  10.831  0.00  0.00    +0.000 C 
ATOM      9  C   UNL     1      43.527   5.129  10.673  0.00  0.00    +0.000 C 
ATOM     10  C   UNL     1      42.841   4.655  11.954  0.00  0.00    +0.000 C 
ATOM     11  C   UNL     1      43.422   3.338  12.472  0.00  0.00    +0.000 C 
ATOM     12  N   UNL     1      44.880   3.328  12.541  0.00  0.00    +0.000 NA
ATOM     13  C   UNL     1      45.507   3.742  11.279  0.00  0.00    +0.000 C 
ATOM     14  H   UNL     1      45.210   2.401  12.809  0.00  0.00    +0.000 HD
ENDBRANCH   6   8
BRANCH   1  15
ATOM     15  C   UNL     1      48.454   7.141  14.081  0.00  0.00    +0.000 C 
BRANCH  15  16
ATOM     16  O   UNL     1      48.648   5.866  14.695  0.00  0.00    +0.000 OA
BRANCH  16  20
ATOM     17  C   UNL     1      48.047   5.679  18.817  0.00  0.00    +0.000 A 
ATOM     18  C   UNL     1      48.812   6.727  18.301  0.00  0.00    +0.000 A 
ATOM     19  C   UNL     1      49.034   6.816  16.928  0.00  0.00    +0.000 A 
ATOM     20  C   UNL     1      48.503   5.861  16.059  0.00  0.00    +0.000 A 
ATOM     21  C   UNL     1      47.758   4.798  16.579  0.00  0.00    +0.000 A 
ATOM     22  C   UNL     1      47.536   4.701  17.957  0.00  0.00    +0.000 A 
BRANCH  17  24
ATOM     23  N   UNL     1      48.281   4.476  20.912  0.00  0.00    +0.000 N 
ATOM     24  C   UNL     1      47.786   5.579  20.275  0.00  0.00    +0.000 C 
ATOM     25  O   UNL     1      47.196   6.457  20.884  0.00  0.00    +0.000 OA
ATOM     26  H   UNL     1      48.187   4.461  21.921  0.00  0.00    +0.000 HD
ATOM     27  H   UNL     1      48.983   3.877  20.501  0.00  0.00    +0.000 HD
ENDBRANCH  17  24
ENDBRANCH  16  20
ENDBRANCH  15  16
ENDBRANCH   1  15
TORSDOF 5
ENDMDL
