MODEL 1
REMARK VINA RESULT:    -9.045      0.000      0.000
REMARK INTER + INTRA:         -11.055
REMARK INTER:                 -11.160
REMARK INTRA:                   0.105
REMARK UNBOUND:                 0.105
REMARK  Name = 
REMARK  5 active torsions:
REMARK  status: ('A' for Active; 'I' for Inactive)
REMARK    1  A    between atoms: C_1  and  O_2
REMARK    2  A    between atoms: O_2  and  C_3
REMARK    3  A    between atoms: C_5  and  C_6
REMARK    4  A    between atoms: C_6  and  N_7
REMARK    5  A    between atoms: C_11  and  C_12
REMARK                            x       y       z     vdW  Elec       q    Type
REMARK                         _______ _______ _______ _____ _____    ______ ____
ROOT
ATOM      1  N   UNL     1      44.426   5.151   9.901  0.00  0.00    +0.000 N 
ATOM      2  C   UNL     1      45.110   4.175   9.185  0.00  0.00    +0.000 A 
ATOM      3  C   UNL     1      45.173   2.839   9.561  0.00  0.00    +0.000 A 
ATOM      4  C   UNL     1      45.863   1.925   8.755  0.00  0.00    +0.000 A 
ATOM      5  C   UNL     1      46.471   2.372   7.585  0.00  0.00    +0.000 A 
ATOM      6  C   UNL     1      46.367   3.720   7.284  0.00  0.00    +0.000 A 
ATOM      7  N   UNL     1      45.696   4.617   8.052  0.00  0.00    +0.000 NA
ATOM      8  H   UNL     1      44.610   6.048   9.460  0.00  0.00    +0.000 HD
ENDROOT
BRANCH   5   9
ATOM      9  C   UNL     1      47.233   1.498   6.670  0.00  0.00    +0.000 C 
ATOM     10  N   UNL     1      48.216   2.071   5.914  0.00  0.00    +0.000 N 
ATOM     11  O   UNL     1      47.012   0.296   6.607  0.00  0.00    +0.000 OA
ATOM     12  H   UNL     1      48.593   2.989   6.107  0.00  0.00    +0.000 HD
ATOM     13  H   UNL     1      48.787   1.439   5.367  0.00  0.00    +0.000 HD
ENDBRANCH   5   9
BRANCH   1  14
ATOM     14  C   UNL     1      44.084   5.100  11.326  0.00  0.00    +0.000 C 
ATOM     15  C   UNL     1      42.710   5.518  11.810  0.00  0.00    +0.000 C 
ATOM     16  C   UNL     1      43.030   4.064  11.709  0.00  0.00    +0.000 C 
BRANCH  14  19
ATOM     17  C   UNL     1      46.892   4.266  13.798  0.00  0.00    +0.000 A 
ATOM     18  C   UNL     1      45.813   4.090  12.944  0.00  0.00    +0.000 A 
ATOM     19  C   UNL     1      45.289   5.194  12.262  0.00  0.00    +0.000 A 
ATOM     20  C   UNL     1      45.914   6.429  12.484  0.00  0.00    +0.000 A 
ATOM     21  C   UNL     1      47.003   6.505  13.337  0.00  0.00    +0.000 A 
ATOM     22  N   UNL     1      47.506   5.447  14.001  0.00  0.00    +0.000 NA
BRANCH  17  24
ATOM     23  C   UNL     1      47.648   3.405  15.826  0.00  0.00    +0.000 C 
ATOM     24  O   UNL     1      47.342   3.140  14.459  0.00  0.00    +0.000 OA
ENDBRANCH  17  24
ENDBRANCH  14  19
ENDBRANCH   1  14
TORSDOF 4
ENDMDL
MODEL 2
REMARK VINA RESULT:    -8.506      1.054      1.746
REMARK INTER + INTRA:         -10.389
REMARK INTER:                 -10.546
REMARK INTRA:                   0.157
REMARK UNBOUND:                 0.105
REMARK  Name = 
REMARK  5 active torsions:
REMARK  status: ('A' for Active; 'I' for Inactive)
REMARK    1  A    between atoms: C_1  and  O_2
REMARK    2  A    between atoms: O_2  and  C_3
REMARK    3  A    between atoms: C_5  and  C_6
REMARK    4  A    between atoms: C_6  and  N_7
REMARK    5  A    between atoms: C_11  and  C_12
REMARK                            x       y       z     vdW  Elec       q    Type
REMARK                         _______ _______ _______ _____ _____    ______ ____
ROOT
ATOM      1  N   UNL     1      44.613   5.276   9.874  0.00  0.00    +0.000 N 
ATOM      2  C   UNL     1      45.261   4.297   9.128  0.00  0.00    +0.000 A 
ATOM      3  C   UNL     1      45.205   2.939   9.415  0.00  0.00    +0.000 A 
ATOM      4  C   UNL     1      45.869   2.029   8.584  0.00  0.00    +0.000 A 
ATOM      5  C   UNL     1      46.572   2.502   7.478  0.00  0.00    +0.000 A 
ATOM      6  C   UNL     1      46.583   3.870   7.265  0.00  0.00    +0.000 A 
ATOM      7  N   UNL     1      45.939   4.764   8.058  0.00  0.00    +0.000 NA
ATOM      8  H   UNL     1      44.886   6.182   9.505  0.00  0.00    +0.000 HD
ENDROOT
BRANCH   5   9
ATOM      9  C   UNL     1      47.316   1.632   6.545  0.00  0.00    +0.000 C 
ATOM     10  N   UNL     1      48.272   2.212   5.761  0.00  0.00    +0.000 N 
ATOM     11  O   UNL     1      47.105   0.428   6.492  0.00  0.00    +0.000 OA
ATOM     12  H   UNL     1      48.646   3.134   5.940  0.00  0.00    +0.000 HD
ATOM     13  H   UNL     1      48.834   1.583   5.199  0.00  0.00    +0.000 HD
ENDBRANCH   5   9
BRANCH   1  14
ATOM     14  C   UNL     1      44.191   5.159  11.273  0.00  0.00    +0.000 C 
ATOM     15  C   UNL     1      42.866   5.734  11.734  0.00  0.00    +0.000 C 
ATOM     16  C   UNL     1      42.981   4.262  11.519  0.00  0.00    +0.000 C 
BRANCH  14  19
ATOM     17  C   UNL     1      47.210   5.830  13.537  0.00  0.00    +0.000 A 
ATOM     18  C   UNL     1      46.165   6.064  12.655  0.00  0.00    +0.000 A 
ATOM     19  C   UNL     1      45.345   5.000  12.263  0.00  0.00    +0.000 A 
ATOM     20  C   UNL     1      45.635   3.743  12.811  0.00  0.00    +0.000 A 
ATOM     21  C   UNL     1      46.685   3.608  13.704  0.00  0.00    +0.000 A 
ATOM     22  N   UNL     1      47.481   4.627  14.080  0.00  0.00    +0.000 NA
BRANCH  17  24
ATOM     23  C   UNL     1      48.975   7.192  12.864  0.00  0.00    +0.000 C 
ATOM     24  O   UNL     1      47.995   6.918  13.863  0.00  0.00    +0.000 OA
ENDBRANCH  17  24
ENDBRANCH  14  19
ENDBRANCH   1  14
TORSDOF 4
ENDMDL
MODEL 3
REMARK VINA RESULT:    -7.548      2.320      3.130
REMARK INTER + INTRA:          -9.208
REMARK INTER:                  -8.665
REMARK INTRA:                  -0.542
REMARK UNBOUND:                 0.105
REMARK  Name = 
REMARK  5 active torsions:
REMARK  status: ('A' for Active; 'I' for Inactive)
REMARK    1  A    between atoms: C_1  and  O_2
REMARK    2  A    between atoms: O_2  and  C_3
REMARK    3  A    between atoms: C_5  and  C_6
REMARK    4  A    between atoms: C_6  and  N_7
REMARK    5  A    between atoms: C_11  and  C_12
REMARK                            x       y       z     vdW  Elec       q    Type
REMARK                         _______ _______ _______ _____ _____    ______ ____
ROOT
ATOM      1  N   UNL     1      44.573   3.971  11.342  0.00  0.00    +0.000 N 
ATOM      2  C   UNL     1      45.122   3.711  10.091  0.00  0.00    +0.000 A 
ATOM      3  C   UNL     1      45.641   4.690   9.253  0.00  0.00    +0.000 A 
ATOM      4  C   UNL     1      46.200   4.323   8.023  0.00  0.00    +0.000 A 
ATOM      5  C   UNL     1      46.231   2.978   7.662  0.00  0.00    +0.000 A 
ATOM      6  C   UNL     1      45.687   2.065   8.550  0.00  0.00    +0.000 A 
ATOM      7  N   UNL     1      45.148   2.405   9.749  0.00  0.00    +0.000 NA
ATOM      8  H   UNL     1      44.194   3.100  11.703  0.00  0.00    +0.000 HD
ENDROOT
BRANCH   5   9
ATOM      9  C   UNL     1      46.784   2.482   6.386  0.00  0.00    +0.000 C 
ATOM     10  N   UNL     1      46.955   3.384   5.374  0.00  0.00    +0.000 N 
ATOM     11  O   UNL     1      47.103   1.310   6.243  0.00  0.00    +0.000 OA
ATOM     12  H   UNL     1      46.939   4.385   5.520  0.00  0.00    +0.000 HD
ATOM     13  H   UNL     1      47.424   3.043   4.543  0.00  0.00    +0.000 HD
ENDBRANCH   5   9
BRANCH   1  14
ATOM     14  C   UNL     1      44.014   5.249  11.793  0.00  0.00    +0.000 C 
ATOM     15  C   UNL     1      42.627   5.684  11.362  0.00  0.00    +0.000 C 
ATOM     16  C   UNL     1      42.821   5.143  12.739  0.00  0.00    +0.000 C 
BRANCH  14  19
ATOM     17  C   UNL     1      45.972   8.523  12.164  0.00  0.00    +0.000 A 
ATOM     18  C   UNL     1      44.960   7.642  11.810  0.00  0.00    +0.000 A 
ATOM     19  C   UNL     1      45.064   6.294  12.167  0.00  0.00    +0.000 A 
ATOM     20  C   UNL     1      46.207   5.918  12.888  0.00  0.00    +0.000 A 
ATOM     21  C   UNL     1      47.155   6.872  13.220  0.00  0.00    +0.000 A 
ATOM     22  N   UNL     1      47.062   8.169  12.872  0.00  0.00    +0.000 NA
BRANCH  17  24
ATOM     23  C   UNL     1      47.029  10.576  11.866  0.00  0.00    +0.000 C 
ATOM     24  O   UNL     1      45.818   9.833  11.757  0.00  0.00    +0.000 OA
ENDBRANCH  17  24
ENDBRANCH  14  19
ENDBRANCH   1  14
TORSDOF 4
ENDMDL
MODEL 4
REMARK VINA RESULT:    -7.344      2.354      6.689
REMARK INTER + INTRA:          -8.955
REMARK INTER:                  -8.626
REMARK INTRA:                  -0.330
REMARK UNBOUND:                 0.105
REMARK  Name = 
REMARK  5 active torsions:
REMARK  status: ('A' for Active; 'I' for Inactive)
REMARK    1  A    between atoms: C_1  and  O_2
REMARK    2  A    between atoms: O_2  and  C_3
REMARK    3  A    between atoms: C_5  and  C_6
REMARK    4  A    between atoms: C_6  and  N_7
REMARK    5  A    between atoms: C_11  and  C_12
REMARK                            x       y       z     vdW  Elec       q    Type
REMARK                         _______ _______ _______ _____ _____    ______ ____
ROOT
ATOM      1  N   UNL     1      44.577   5.993  11.065  0.00  0.00    +0.000 N 
ATOM      2  C   UNL     1      45.469   6.669  11.890  0.00  0.00    +0.000 A 
ATOM      3  C   UNL     1      46.629   6.104  12.406  0.00  0.00    +0.000 A 
ATOM      4  C   UNL     1      47.479   6.878  13.205  0.00  0.00    +0.000 A 
ATOM      5  C   UNL     1      47.150   8.206  13.464  0.00  0.00    +0.000 A 
ATOM      6  C   UNL     1      45.974   8.692  12.917  0.00  0.00    +0.000 A 
ATOM      7  N   UNL     1      45.142   7.956  12.136  0.00  0.00    +0.000 NA
ATOM      8  H   UNL     1      43.779   6.602  10.903  0.00  0.00    +0.000 HD
ENDROOT
BRANCH   5   9
ATOM      9  C   UNL     1      47.968   9.106  14.302  0.00  0.00    +0.000 C 
ATOM     10  N   UNL     1      47.671   9.180  15.633  0.00  0.00    +0.000 N 
ATOM     11  O   UNL     1      48.897   9.747  13.829  0.00  0.00    +0.000 OA
ATOM     12  H   UNL     1      47.088   8.502  16.106  0.00  0.00    +0.000 HD
ATOM     13  H   UNL     1      48.303   9.729  16.204  0.00  0.00    +0.000 HD
ENDBRANCH   5   9
BRANCH   1  14
ATOM     14  C   UNL     1      44.410   4.539  10.978  0.00  0.00    +0.000 C 
ATOM     15  C   UNL     1      44.146   3.713  12.222  0.00  0.00    +0.000 C 
ATOM     16  C   UNL     1      43.011   4.021  11.303  0.00  0.00    +0.000 C 
BRANCH  14  19
ATOM     17  C   UNL     1      45.849   2.022   8.472  0.00  0.00    +0.000 A 
ATOM     18  C   UNL     1      45.196   2.520   9.590  0.00  0.00    +0.000 A 
ATOM     19  C   UNL     1      45.085   3.904   9.764  0.00  0.00    +0.000 A 
ATOM     20  C   UNL     1      45.645   4.712   8.764  0.00  0.00    +0.000 A 
ATOM     21  C   UNL     1      46.258   4.126   7.669  0.00  0.00    +0.000 A 
ATOM     22  N   UNL     1      46.373   2.796   7.501  0.00  0.00    +0.000 NA
BRANCH  17  24
ATOM     23  C   UNL     1      46.904   0.243   7.403  0.00  0.00    +0.000 C 
ATOM     24  O   UNL     1      45.945   0.648   8.376  0.00  0.00    +0.000 OA
ENDBRANCH  17  24
ENDBRANCH  14  19
ENDBRANCH   1  14
TORSDOF 4
ENDMDL
MODEL 5
REMARK VINA RESULT:    -7.317      2.356      6.611
REMARK INTER + INTRA:          -8.922
REMARK INTER:                  -8.420
REMARK INTRA:                  -0.502
REMARK UNBOUND:                 0.105
REMARK  Name = 
REMARK  5 active torsions:
REMARK  status: ('A' for Active; 'I' for Inactive)
REMARK    1  A    between atoms: C_1  and  O_2
REMARK    2  A    between atoms: O_2  and  C_3
REMARK    3  A    between atoms: C_5  and  C_6
REMARK    4  A    between atoms: C_6  and  N_7
REMARK    5  A    between atoms: C_11  and  C_12
REMARK                            x       y       z     vdW  Elec       q    Type
REMARK                         _______ _______ _______ _____ _____    ______ ____
ROOT
ATOM      1  N   UNL     1      44.731   6.564  11.660  0.00  0.00    +0.000 N 
ATOM      2  C   UNL     1      45.851   6.724  12.468  0.00  0.00    +0.000 A 
ATOM      3  C   UNL     1      46.635   5.672  12.925  0.00  0.00    +0.000 A 
ATOM      4  C   UNL     1      47.762   5.939  13.711  0.00  0.00    +0.000 A 
ATOM      5  C   UNL     1      48.083   7.259  14.017  0.00  0.00    +0.000 A 
ATOM      6  C   UNL     1      47.248   8.250  13.528  0.00  0.00    +0.000 A 
ATOM      7  N   UNL     1      46.155   8.007  12.759  0.00  0.00    +0.000 NA
ATOM      8  H   UNL     1      44.297   7.475  11.544  0.00  0.00    +0.000 HD
ENDROOT
BRANCH   5   9
ATOM      9  C   UNL     1      49.240   7.653  14.846  0.00  0.00    +0.000 C 
ATOM     10  N   UNL     1      50.489   7.442  14.336  0.00  0.00    +0.000 N 
ATOM     11  O   UNL     1      49.088   8.173  15.944  0.00  0.00    +0.000 OA
ATOM     12  H   UNL     1      50.659   7.249  13.358  0.00  0.00    +0.000 HD
ATOM     13  H   UNL     1      51.263   7.805  14.879  0.00  0.00    +0.000 HD
ENDBRANCH   5   9
BRANCH   1  14
ATOM     14  C   UNL     1      43.915   5.351  11.541  0.00  0.00    +0.000 C 
ATOM     15  C   UNL     1      43.112   4.839  12.720  0.00  0.00    +0.000 C 
ATOM     16  C   UNL     1      42.406   5.567  11.625  0.00  0.00    +0.000 C 
BRANCH  14  19
ATOM     17  C   UNL     1      45.505   3.854   8.392  0.00  0.00    +0.000 A 
ATOM     18  C   UNL     1      45.142   4.790   9.350  0.00  0.00    +0.000 A 
ATOM     19  C   UNL     1      44.386   4.385  10.455  0.00  0.00    +0.000 A 
ATOM     20  C   UNL     1      44.050   3.025  10.527  0.00  0.00    +0.000 A 
ATOM     21  C   UNL     1      44.478   2.158   9.535  0.00  0.00    +0.000 A 
ATOM     22  N   UNL     1      45.200   2.544   8.466  0.00  0.00    +0.000 NA
BRANCH  17  24
ATOM     23  C   UNL     1      46.638   3.278   6.441  0.00  0.00    +0.000 C 
ATOM     24  O   UNL     1      46.228   4.327   7.315  0.00  0.00    +0.000 OA
ENDBRANCH  17  24
ENDBRANCH  14  19
ENDBRANCH   1  14
TORSDOF 4
ENDMDL
MODEL 6
REMARK VINA RESULT:    -7.227      1.919      6.861
REMARK INTER + INTRA:          -8.811
REMARK INTER:                  -8.402
REMARK INTRA:                  -0.409
REMARK UNBOUND:                 0.105
REMARK  Name = 
REMARK  5 active torsions:
REMARK  status: ('A' for Active; 'I' for Inactive)
REMARK    1  A    between atoms: C_1  and  O_2
REMARK    2  A    between atoms: O_2  and  C_3
REMARK    3  A    between atoms: C_5  and  C_6
REMARK    4  A    between atoms: C_6  and  N_7
REMARK    5  A    between atoms: C_11  and  C_12
REMARK                            x       y       z     vdW  Elec       q    Type
REMARK                         _______ _______ _______ _____ _____    ______ ____
ROOT
ATOM      1  N   UNL     1      45.719   5.948  11.689  0.00  0.00    +0.000 N 
ATOM      2  C   UNL     1      46.383   5.748  12.894  0.00  0.00    +0.000 A 
ATOM      3  C   UNL     1      46.368   4.551  13.599  0.00  0.00    +0.000 A 
ATOM      4  C   UNL     1      47.095   4.440  14.790  0.00  0.00    +0.000 A 
ATOM      5  C   UNL     1      47.826   5.534  15.247  0.00  0.00    +0.000 A 
ATOM      6  C   UNL     1      47.784   6.693  14.490  0.00  0.00    +0.000 A 
ATOM      7  N   UNL     1      47.090   6.813  13.329  0.00  0.00    +0.000 NA
ATOM      8  H   UNL     1      45.821   6.927  11.435  0.00  0.00    +0.000 HD
ENDROOT
BRANCH   5   9
ATOM      9  C   UNL     1      48.616   5.530  16.495  0.00  0.00    +0.000 C 
ATOM     10  N   UNL     1      48.248   6.399  17.483  0.00  0.00    +0.000 N 
ATOM     11  O   UNL     1      49.553   4.760  16.652  0.00  0.00    +0.000 OA
ATOM     12  H   UNL     1      47.353   6.869  17.497  0.00  0.00    +0.000 HD
ATOM     13  H   UNL     1      48.742   6.313  18.363  0.00  0.00    +0.000 HD
ENDBRANCH   5   9
BRANCH   1  14
ATOM     14  C   UNL     1      44.564   5.188  11.201  0.00  0.00    +0.000 C 
ATOM     15  C   UNL     1      43.361   4.948  12.092  0.00  0.00    +0.000 C 
ATOM     16  C   UNL     1      43.277   5.992  11.029  0.00  0.00    +0.000 C 
BRANCH  14  19
ATOM     17  C   UNL     1      45.804   3.651   7.916  0.00  0.00    +0.000 A 
ATOM     18  C   UNL     1      45.572   4.592   8.909  0.00  0.00    +0.000 A 
ATOM     19  C   UNL     1      44.890   4.213  10.071  0.00  0.00    +0.000 A 
ATOM     20  C   UNL     1      44.488   2.872  10.158  0.00  0.00    +0.000 A 
ATOM     21  C   UNL     1      44.785   1.997   9.127  0.00  0.00    +0.000 A 
ATOM     22  N   UNL     1      45.435   2.358   8.005  0.00  0.00    +0.000 NA
BRANCH  17  24
ATOM     23  C   UNL     1      46.704   3.046   5.855  0.00  0.00    +0.000 C 
ATOM     24  O   UNL     1      46.459   4.098   6.786  0.00  0.00    +0.000 OA
ENDBRANCH  17  24
ENDBRANCH  14  19
ENDBRANCH   1  14
TORSDOF 4
ENDMDL
MODEL 7
REMARK VINA RESULT:    -6.457      3.799      6.490
REMARK INTER + INTRA:          -7.861
REMARK INTER:                  -7.685
REMARK INTRA:                  -0.176
REMARK UNBOUND:                 0.105
REMARK  Name = 
REMARK  5 active torsions:
REMARK  status: ('A' for Active; 'I' for Inactive)
REMARK    1  A    between atoms: C_1  and  O_2
REMARK    2  A    between atoms: O_2  and  C_3
REMARK    3  A    between atoms: C_5  and  C_6
REMARK    4  A    between atoms: C_6  and  N_7
REMARK    5  A    between atoms: C_11  and  C_12
REMARK                            x       y       z     vdW  Elec       q    Type
REMARK                         _______ _______ _______ _____ _____    ______ ____
ROOT
ATOM      1  N   UNL     1      47.629   3.044  15.327  0.00  0.00    +0.000 N 
ATOM      2  C   UNL     1      47.088   3.895  14.367  0.00  0.00    +0.000 A 
ATOM      3  C   UNL     1      47.211   5.278  14.400  0.00  0.00    +0.000 A 
ATOM      4  C   UNL     1      46.656   6.046  13.369  0.00  0.00    +0.000 A 
ATOM      5  C   UNL     1      45.994   5.407  12.324  0.00  0.00    +0.000 A 
ATOM      6  C   UNL     1      45.910   4.026  12.369  0.00  0.00    +0.000 A 
ATOM      7  N   UNL     1      46.449   3.267  13.357  0.00  0.00    +0.000 NA
ATOM      8  H   UNL     1      47.322   2.099  15.114  0.00  0.00    +0.000 HD
ENDROOT
BRANCH   5   9
ATOM      9  C   UNL     1      45.362   6.120  11.195  0.00  0.00    +0.000 C 
ATOM     10  N   UNL     1      45.256   5.458  10.004  0.00  0.00    +0.000 N 
ATOM     11  O   UNL     1      44.924   7.255  11.324  0.00  0.00    +0.000 OA
ATOM     12  H   UNL     1      45.376   4.458   9.918  0.00  0.00    +0.000 HD
ATOM     13  H   UNL     1      44.736   5.930   9.274  0.00  0.00    +0.000 HD
ENDBRANCH   5   9
BRANCH   1  14
ATOM     14  C   UNL     1      47.972   3.403  16.706  0.00  0.00    +0.000 C 
ATOM     15  C   UNL     1      47.121   4.386  17.486  0.00  0.00    +0.000 C 
ATOM     16  C   UNL     1      46.986   2.927  17.770  0.00  0.00    +0.000 C 
BRANCH  14  19
ATOM     17  C   UNL     1      51.437   1.907  17.371  0.00  0.00    +0.000 A 
ATOM     18  C   UNL     1      50.098   1.987  17.018  0.00  0.00    +0.000 A 
ATOM     19  C   UNL     1      49.450   3.227  17.049  0.00  0.00    +0.000 A 
ATOM     20  C   UNL     1      50.223   4.333  17.432  0.00  0.00    +0.000 A 
ATOM     21  C   UNL     1      51.561   4.162  17.744  0.00  0.00    +0.000 A 
ATOM     22  N   UNL     1      52.187   2.970  17.722  0.00  0.00    +0.000 NA
BRANCH  17  24
ATOM     23  C   UNL     1      53.376   0.670  17.738  0.00  0.00    +0.000 C 
ATOM     24  O   UNL     1      52.006   0.649  17.343  0.00  0.00    +0.000 OA
ENDBRANCH  17  24
ENDBRANCH  14  19
ENDBRANCH   1  14
TORSDOF 4
ENDMDL
MODEL 8
REMARK VINA RESULT:    -6.084      3.715      5.274
REMARK INTER + INTRA:          -7.401
REMARK INTER:                  -6.886
REMARK INTRA:                  -0.515
REMARK UNBOUND:                 0.105
REMARK  Name = 
REMARK  5 active torsions:
REMARK  status: ('A' for Active; 'I' for Inactive)
REMARK    1  A    between atoms: C_1  and  O_2
REMARK    2  A    between atoms: O_2  and  C_3
REMARK    3  A    between atoms: C_5  and  C_6
REMARK    4  A    between atoms: C_6  and  N_7
REMARK    5  A    between atoms: C_11  and  C_12
REMARK                            x       y       z     vdW  Elec       q    Type
REMARK                         _______ _______ _______ _____ _____    ______ ____
ROOT
ATOM      1  N   UNL     1      46.956   7.985  12.227  0.00  0.00    +0.000 N 
ATOM      2  C   UNL     1      46.274   6.777  12.134  0.00  0.00    +0.000 A 
ATOM      3  C   UNL     1      46.679   5.606  12.764  0.00  0.00    +0.000 A 
ATOM      4  C   UNL     1      45.905   4.447  12.633  0.00  0.00    +0.000 A 
ATOM      5  C   UNL     1      44.737   4.489  11.876  0.00  0.00    +0.000 A 
ATOM      6  C   UNL     1      44.406   5.692  11.276  0.00  0.00    +0.000 A 
ATOM      7  N   UNL     1      45.142   6.826  11.399  0.00  0.00    +0.000 NA
ATOM      8  H   UNL     1      46.500   8.649  11.609  0.00  0.00    +0.000 HD
ENDROOT
BRANCH   5   9
ATOM      9  C   UNL     1      43.855   3.323  11.662  0.00  0.00    +0.000 C 
ATOM     10  N   UNL     1      43.734   2.422  12.682  0.00  0.00    +0.000 N 
ATOM     11  O   UNL     1      43.233   3.179  10.618  0.00  0.00    +0.000 OA
ATOM     12  H   UNL     1      44.025   2.621  13.629  0.00  0.00    +0.000 HD
ATOM     13  H   UNL     1      43.052   1.684  12.549  0.00  0.00    +0.000 HD
ENDBRANCH   5   9
BRANCH   1  14
ATOM     14  C   UNL     1      48.375   8.154  12.554  0.00  0.00    +0.000 C 
ATOM     15  C   UNL     1      49.450   7.829  11.536  0.00  0.00    +0.000 C 
ATOM     16  C   UNL     1      49.097   9.258  11.785  0.00  0.00    +0.000 C 
BRANCH  14  19
ATOM     17  C   UNL     1      49.680   7.051  15.985  0.00  0.00    +0.000 A 
ATOM     18  C   UNL     1      49.468   7.065  14.614  0.00  0.00    +0.000 A 
ATOM     19  C   UNL     1      48.686   8.078  14.048  0.00  0.00    +0.000 A 
ATOM     20  C   UNL     1      48.167   9.040  14.927  0.00  0.00    +0.000 A 
ATOM     21  C   UNL     1      48.451   8.960  16.280  0.00  0.00    +0.000 A 
ATOM     22  N   UNL     1      49.198   7.984  16.830  0.00  0.00    +0.000 NA
BRANCH  17  24
ATOM     23  C   UNL     1      49.685   5.150  17.330  0.00  0.00    +0.000 C 
ATOM     24  O   UNL     1      50.440   6.010  16.480  0.00  0.00    +0.000 OA
ENDBRANCH  17  24
ENDBRANCH  14  19
ENDBRANCH   1  14
TORSDOF 4
ENDMDL
MODEL 9
REMARK VINA RESULT:    -6.060      3.050      7.929
REMARK INTER + INTRA:          -7.372
REMARK INTER:                  -7.595
REMARK INTRA:                   0.223
REMARK UNBOUND:                 0.105
REMARK  Name = 
REMARK  5 active torsions:
REMARK  status: ('A' for Active; 'I' for Inactive)
REMARK    1  A    between atoms: C_1  and  O_2
REMARK    2  A    between atoms: O_2  and  C_3
REMARK    3  A    between atoms: C_5  and  C_6
REMARK    4  A    between atoms: C_6  and  N_7
REMARK    5  A    between atoms: C_11  and  C_12
REMARK                            x       y       z     vdW  Elec       q    Type
REMARK                         _______ _______ _______ _____ _____    ______ ____
ROOT
ATOM      1  N   UNL     1      46.931   3.877  14.327  0.00  0.00    +0.000 N 
ATOM      2  C   UNL     1      47.502   4.047  15.584  0.00  0.00    +0.000 A 
ATOM      3  C   UNL     1      47.294   5.163  16.385  0.00  0.00    +0.000 A 
ATOM      4  C   UNL     1      47.890   5.227  17.651  0.00  0.00    +0.000 A 
ATOM      5  C   UNL     1      48.678   4.165  18.087  0.00  0.00    +0.000 A 
ATOM      6  C   UNL     1      48.840   3.092  17.227  0.00  0.00    +0.000 A 
ATOM      7  N   UNL     1      48.263   3.013  16.000  0.00  0.00    +0.000 NA
ATOM      8  H   UNL     1      47.311   3.024  13.925  0.00  0.00    +0.000 HD
ENDROOT
BRANCH   5   9
ATOM      9  C   UNL     1      49.362   4.134  19.396  0.00  0.00    +0.000 C 
ATOM     10  N   UNL     1      48.643   3.718  20.480  0.00  0.00    +0.000 N 
ATOM     11  O   UNL     1      50.541   4.446  19.506  0.00  0.00    +0.000 OA
ATOM     12  H   UNL     1      47.762   3.228  20.401  0.00  0.00    +0.000 HD
ATOM     13  H   UNL     1      49.157   3.615  21.347  0.00  0.00    +0.000 HD
ENDBRANCH   5   9
BRANCH   1  14
ATOM     14  C   UNL     1      46.449   4.943  13.444  0.00  0.00    +0.000 C 
ATOM     15  C   UNL     1      46.832   6.389  13.693  0.00  0.00    +0.000 C 
ATOM     16  C   UNL     1      47.521   5.634  12.606  0.00  0.00    +0.000 C 
BRANCH  14  19
ATOM     17  C   UNL     1      43.816   3.295  11.199  0.00  0.00    +0.000 A 
ATOM     18  C   UNL     1      45.022   3.514  11.848  0.00  0.00    +0.000 A 
ATOM     19  C   UNL     1      45.150   4.608  12.712  0.00  0.00    +0.000 A 
ATOM     20  C   UNL     1      44.019   5.420  12.874  0.00  0.00    +0.000 A 
ATOM     21  C   UNL     1      42.848   5.110  12.202  0.00  0.00    +0.000 A 
ATOM     22  N   UNL     1      42.722   4.063  11.366  0.00  0.00    +0.000 NA
BRANCH  17  24
ATOM     23  C   UNL     1      44.717   2.322   9.284  0.00  0.00    +0.000 C 
ATOM     24  O   UNL     1      43.767   2.214  10.342  0.00  0.00    +0.000 OA
ENDBRANCH  17  24
ENDBRANCH  14  19
ENDBRANCH   1  14
TORSDOF 4
ENDMDL
