MODEL 1
REMARK VINA RESULT:    -9.112      0.000      0.000
REMARK INTER + INTRA:         -12.382
REMARK INTER:                 -11.776
REMARK INTRA:                  -0.606
REMARK UNBOUND:                -0.606
REMARK  Name = 
REMARK  5 active torsions:
REMARK  status: ('A' for Active; 'I' for Inactive)
REMARK    1  A    between atoms: C_2  and  C_18
REMARK    2  A    between atoms: N_3  and  C_4
REMARK    3  A    between atoms: C_4  and  C_5
REMARK    4  A    between atoms: C_8  and  C_9
REMARK    5  A    between atoms: C_9  and  C_10
REMARK                            x       y       z     vdW  Elec       q    Type
REMARK                         _______ _______ _______ _____ _____    ______ ____
ROOT
ATOM      1  O   UNL     1      47.050   3.271  14.021  0.00  0.00    +0.000 OA
ATOM      2  C   UNL     1      46.824   4.451  14.252  0.00  0.00    +0.000 C 
ATOM      3  N   UNL     1      45.660   5.105  13.926  0.00  0.00    +0.000 N 
ATOM      4  H   UNL     1      45.500   6.019  14.323  0.00  0.00    +0.000 HD
ENDROOT
BRANCH   2   5
ATOM      5  C   UNL     1      47.673   5.286  15.091  0.00  0.00    +0.000 A 
ATOM      6  C   UNL     1      48.292   6.432  14.624  0.00  0.00    +0.000 A 
ATOM      7  S   UNL     1      49.611   6.893  15.621  0.00  0.00    +0.000 S 
ATOM      8  C   UNL     1      49.281   5.645  16.736  0.00  0.00    +0.000 A 
ATOM      9  N   UNL     1      50.108   5.355  17.777  0.00  0.00    +0.000 NA
ATOM     10  C   UNL     1      49.683   4.401  18.540  0.00  0.00    +0.000 A 
ATOM     11  N   UNL     1      48.484   3.746  18.392  0.00  0.00    +0.000 N 
ATOM     12  C   UNL     1      47.602   4.025  17.375  0.00  0.00    +0.000 A 
ATOM     13  O   UNL     1      46.498   3.499  17.309  0.00  0.00    +0.000 OA
ATOM     14  C   UNL     1      48.108   4.992  16.424  0.00  0.00    +0.000 A 
ATOM     15  H   UNL     1      48.177   3.066  19.073  0.00  0.00    +0.000 HD
ENDBRANCH   2   5
BRANCH   3  16
ATOM     16  C   UNL     1      44.491   4.427  13.444  0.00  0.00    +0.000 C 
BRANCH  16  17
ATOM     17  C   UNL     1      44.604   4.237  11.953  0.00  0.00    +0.000 A 
ATOM     18  C   UNL     1      44.086   3.087  11.350  0.00  0.00    +0.000 A 
ATOM     19  C   UNL     1      44.215   2.891   9.975  0.00  0.00    +0.000 A 
ATOM     20  C   UNL     1      44.836   3.851   9.166  0.00  0.00    +0.000 A 
ATOM     21  C   UNL     1      45.392   4.982   9.773  0.00  0.00    +0.000 A 
ATOM     22  C   UNL     1      45.292   5.168  11.155  0.00  0.00    +0.000 A 
BRANCH  20  23
ATOM     23  C   UNL     1      44.886   3.674   7.663  0.00  0.00    +0.000 C 
BRANCH  23  24
ATOM     24  C   UNL     1      46.094   2.919   7.145  0.00  0.00    +0.000 A 
ATOM     25  C   UNL     1      46.755   3.323   5.998  0.00  0.00    +0.000 A 
ATOM     26  C   UNL     1      47.796   2.530   5.572  0.00  0.00    +0.000 A 
ATOM     27  N   UNL     1      48.183   1.410   6.206  0.00  0.00    +0.000 NA
ATOM     28  C   UNL     1      47.484   1.103   7.308  0.00  0.00    +0.000 A 
ATOM     29  N   UNL     1      46.451   1.798   7.813  0.00  0.00    +0.000 NA
ENDBRANCH  23  24
ENDBRANCH  20  23
ENDBRANCH  16  17
ENDBRANCH   3  16
TORSDOF 5
ENDMDL
MODEL 2
REMARK VINA RESULT:    -8.503      0.920      1.049
REMARK INTER + INTRA:         -11.595
REMARK INTER:                 -10.863
REMARK INTRA:                  -0.732
REMARK UNBOUND:                -0.606
REMARK  Name = 
REMARK  5 active torsions:
REMARK  status: ('A' for Active; 'I' for Inactive)
REMARK    1  A    between atoms: C_2  and  C_18
REMARK    2  A    between atoms: N_3  and  C_4
REMARK    3  A    between atoms: C_4  and  C_5
REMARK    4  A    between atoms: C_8  and  C_9
REMARK    5  A    between atoms: C_9  and  C_10
REMARK                            x       y       z     vdW  Elec       q    Type
REMARK                         _______ _______ _______ _____ _____    ______ ____
ROOT
ATOM      1  O   UNL     1      47.508   4.018  14.226  0.00  0.00    +0.000 OA
ATOM      2  C   UNL     1      47.353   5.229  14.155  0.00  0.00    +0.000 C 
ATOM      3  N   UNL     1      46.208   5.849  13.713  0.00  0.00    +0.000 N 
ATOM      4  H   UNL     1      46.114   6.841  13.868  0.00  0.00    +0.000 HD
ENDROOT
BRANCH   2   5
ATOM      5  C   UNL     1      48.284   6.198  14.721  0.00  0.00    +0.000 A 
ATOM      6  C   UNL     1      48.855   7.212  13.973  0.00  0.00    +0.000 A 
ATOM      7  S   UNL     1      50.267   7.835  14.723  0.00  0.00    +0.000 S 
ATOM      8  C   UNL     1      50.049   6.844  16.094  0.00  0.00    +0.000 A 
ATOM      9  N   UNL     1      50.974   6.751  17.086  0.00  0.00    +0.000 NA
ATOM     10  C   UNL     1      50.626   5.980  18.065  0.00  0.00    +0.000 A 
ATOM     11  N   UNL     1      49.417   5.335  18.170  0.00  0.00    +0.000 N 
ATOM     12  C   UNL     1      48.439   5.423  17.208  0.00  0.00    +0.000 A 
ATOM     13  O   UNL     1      47.332   4.919  17.358  0.00  0.00    +0.000 OA
ATOM     14  C   UNL     1      48.849   6.168  16.037  0.00  0.00    +0.000 A 
ATOM     15  H   UNL     1      49.179   4.813  19.000  0.00  0.00    +0.000 HD
ENDBRANCH   2   5
BRANCH   3  16
ATOM     16  C   UNL     1      44.985   5.143  13.463  0.00  0.00    +0.000 C 
BRANCH  16  17
ATOM     17  C   UNL     1      44.936   4.726  12.015  0.00  0.00    +0.000 A 
ATOM     18  C   UNL     1      44.369   3.500  11.656  0.00  0.00    +0.000 A 
ATOM     19  C   UNL     1      44.348   3.095  10.322  0.00  0.00    +0.000 A 
ATOM     20  C   UNL     1      44.866   3.917   9.312  0.00  0.00    +0.000 A 
ATOM     21  C   UNL     1      45.472   5.125   9.674  0.00  0.00    +0.000 A 
ATOM     22  C   UNL     1      45.522   5.520  11.015  0.00  0.00    +0.000 A 
BRANCH  20  23
ATOM     23  C   UNL     1      44.753   3.511   7.857  0.00  0.00    +0.000 C 
BRANCH  23  24
ATOM     24  C   UNL     1      45.981   2.835   7.283  0.00  0.00    +0.000 A 
ATOM     25  C   UNL     1      46.599   3.318   6.141  0.00  0.00    +0.000 A 
ATOM     26  C   UNL     1      47.664   2.591   5.660  0.00  0.00    +0.000 A 
ATOM     27  N   UNL     1      48.114   1.463   6.236  0.00  0.00    +0.000 NA
ATOM     28  C   UNL     1      47.453   1.077   7.336  0.00  0.00    +0.000 A 
ATOM     29  N   UNL     1      46.402   1.703   7.892  0.00  0.00    +0.000 NA
ENDBRANCH  23  24
ENDBRANCH  20  23
ENDBRANCH  16  17
ENDBRANCH   3  16
TORSDOF 5
ENDMDL
MODEL 3
REMARK VINA RESULT:    -8.448      1.713      2.744
REMARK INTER + INTRA:         -11.524
REMARK INTER:                 -10.603
REMARK INTRA:                  -0.921
REMARK UNBOUND:                -0.606
REMARK  Name = 
REMARK  5 active torsions:
REMARK  status: ('A' for Active; 'I' for Inactive)
REMARK    1  A    between atoms: C_2  and  C_18
REMARK    2  A    between atoms: N_3  and  C_4
REMARK    3  A    between atoms: C_4  and  C_5
REMARK    4  A    between atoms: C_8  and  C_9
REMARK    5  A    between atoms: C_9  and  C_10
REMARK                            x       y       z     vdW  Elec       q    Type
REMARK                         _______ _______ _______ _____ _____    ______ ____
ROOT
ATOM      1  O   UNL     1      46.728   3.599  14.405  0.00  0.00    +0.000 OA
ATOM      2  C   UNL     1      46.852   4.813  14.309  0.00  0.00    +0.000 C 
ATOM      3  N   UNL     1      45.939   5.651  13.715  0.00  0.00    +0.000 N 
ATOM      4  H   UNL     1      46.044   6.644  13.853  0.00  0.00    +0.000 HD
ENDROOT
BRANCH   2   5
ATOM      5  C   UNL     1      47.890   5.575  14.992  0.00  0.00    +0.000 A 
ATOM      6  C   UNL     1      48.250   5.339  16.306  0.00  0.00    +0.000 A 
ATOM      7  S   UNL     1      49.069   6.682  16.992  0.00  0.00    +0.000 S 
ATOM      8  C   UNL     1      49.054   7.524  15.508  0.00  0.00    +0.000 A 
ATOM      9  N   UNL     1      49.465   8.815  15.394  0.00  0.00    +0.000 NA
ATOM     10  C   UNL     1      49.416   9.282  14.188  0.00  0.00    +0.000 A 
ATOM     11  N   UNL     1      49.047   8.562  13.077  0.00  0.00    +0.000 N 
ATOM     12  C   UNL     1      48.655   7.246  13.138  0.00  0.00    +0.000 A 
ATOM     13  O   UNL     1      48.418   6.590  12.131  0.00  0.00    +0.000 OA
ATOM     14  C   UNL     1      48.566   6.734  14.489  0.00  0.00    +0.000 A 
ATOM     15  H   UNL     1      49.110   8.965  12.154  0.00  0.00    +0.000 HD
ENDBRANCH   2   5
BRANCH   3  16
ATOM     16  C   UNL     1      44.634   5.218  13.305  0.00  0.00    +0.000 C 
BRANCH  16  17
ATOM     17  C   UNL     1      44.682   4.785  11.862  0.00  0.00    +0.000 A 
ATOM     18  C   UNL     1      44.080   3.587  11.468  0.00  0.00    +0.000 A 
ATOM     19  C   UNL     1      44.147   3.166  10.140  0.00  0.00    +0.000 A 
ATOM     20  C   UNL     1      44.792   3.944   9.169  0.00  0.00    +0.000 A 
ATOM     21  C   UNL     1      45.432   5.122   9.570  0.00  0.00    +0.000 A 
ATOM     22  C   UNL     1      45.392   5.533  10.907  0.00  0.00    +0.000 A 
BRANCH  20  23
ATOM     23  C   UNL     1      44.777   3.526   7.714  0.00  0.00    +0.000 C 
BRANCH  23  24
ATOM     24  C   UNL     1      46.027   2.811   7.240  0.00  0.00    +0.000 A 
ATOM     25  C   UNL     1      46.717   3.239   6.119  0.00  0.00    +0.000 A 
ATOM     26  C   UNL     1      47.797   2.480   5.730  0.00  0.00    +0.000 A 
ATOM     27  N   UNL     1      48.195   1.371   6.375  0.00  0.00    +0.000 NA
ATOM     28  C   UNL     1      47.466   1.038   7.449  0.00  0.00    +0.000 A 
ATOM     29  N   UNL     1      46.394   1.699   7.918  0.00  0.00    +0.000 NA
ENDBRANCH  23  24
ENDBRANCH  20  23
ENDBRANCH  16  17
ENDBRANCH   3  16
TORSDOF 5
ENDMDL
MODEL 4
REMARK VINA RESULT:    -8.382      2.402      3.547
REMARK INTER + INTRA:         -11.438
REMARK INTER:                 -10.536
REMARK INTRA:                  -0.901
REMARK UNBOUND:                -0.606
REMARK  Name = 
REMARK  5 active torsions:
REMARK  status: ('A' for Active; 'I' for Inactive)
REMARK    1  A    between atoms: C_2  and  C_18
REMARK    2  A    between atoms: N_3  and  C_4
REMARK    3  A    between atoms: C_4  and  C_5
REMARK    4  A    between atoms: C_8  and  C_9
REMARK    5  A    between atoms: C_9  and  C_10
REMARK                            x       y       z     vdW  Elec       q    Type
REMARK                         _______ _______ _______ _____ _____    ______ ____
ROOT
ATOM      1  O   UNL     1      47.792   4.595  14.024  0.00  0.00    +0.000 OA
ATOM      2  C   UNL     1      47.498   5.778  13.914  0.00  0.00    +0.000 C 
ATOM      3  N   UNL     1      46.274   6.246  13.500  0.00  0.00    +0.000 N 
ATOM      4  H   UNL     1      46.074   7.227  13.622  0.00  0.00    +0.000 HD
ENDROOT
BRANCH   2   5
ATOM      5  C   UNL     1      48.333   6.867  14.404  0.00  0.00    +0.000 A 
ATOM      6  C   UNL     1      48.789   6.933  15.708  0.00  0.00    +0.000 A 
ATOM      7  S   UNL     1      49.266   8.525  16.134  0.00  0.00    +0.000 S 
ATOM      8  C   UNL     1      48.985   9.097  14.552  0.00  0.00    +0.000 A 
ATOM      9  N   UNL     1      49.051  10.416  14.227  0.00  0.00    +0.000 NA
ATOM     10  C   UNL     1      48.842  10.663  12.974  0.00  0.00    +0.000 A 
ATOM     11  N   UNL     1      48.627   9.712  12.007  0.00  0.00    +0.000 N 
ATOM     12  C   UNL     1      48.583   8.366  12.282  0.00  0.00    +0.000 A 
ATOM     13  O   UNL     1      48.482   7.524  11.397  0.00  0.00    +0.000 OA
ATOM     14  C   UNL     1      48.675   8.064  13.694  0.00  0.00    +0.000 A 
ATOM     15  H   UNL     1      48.553   9.970  11.034  0.00  0.00    +0.000 HD
ENDBRANCH   2   5
BRANCH   3  16
ATOM     16  C   UNL     1      45.130   5.398  13.328  0.00  0.00    +0.000 C 
BRANCH  16  17
ATOM     17  C   UNL     1      45.062   4.936  11.895  0.00  0.00    +0.000 A 
ATOM     18  C   UNL     1      44.463   3.713  11.578  0.00  0.00    +0.000 A 
ATOM     19  C   UNL     1      44.423   3.267  10.258  0.00  0.00    +0.000 A 
ATOM     20  C   UNL     1      44.954   4.043   9.219  0.00  0.00    +0.000 A 
ATOM     21  C   UNL     1      45.591   5.247   9.538  0.00  0.00    +0.000 A 
ATOM     22  C   UNL     1      45.659   5.684  10.865  0.00  0.00    +0.000 A 
BRANCH  20  23
ATOM     23  C   UNL     1      44.821   3.594   7.779  0.00  0.00    +0.000 C 
BRANCH  23  24
ATOM     24  C   UNL     1      46.028   2.868   7.219  0.00  0.00    +0.000 A 
ATOM     25  C   UNL     1      46.646   3.295   6.055  0.00  0.00    +0.000 A 
ATOM     26  C   UNL     1      47.690   2.526   5.592  0.00  0.00    +0.000 A 
ATOM     27  N   UNL     1      48.119   1.411   6.206  0.00  0.00    +0.000 NA
ATOM     28  C   UNL     1      47.461   1.081   7.325  0.00  0.00    +0.000 A 
ATOM     29  N   UNL     1      46.429   1.751   7.867  0.00  0.00    +0.000 NA
ENDBRANCH  23  24
ENDBRANCH  20  23
ENDBRANCH  16  17
ENDBRANCH   3  16
TORSDOF 5
ENDMDL
MODEL 5
REMARK VINA RESULT:    -8.163      1.855      2.410
REMARK INTER + INTRA:         -11.155
REMARK INTER:                 -10.726
REMARK INTRA:                  -0.429
REMARK UNBOUND:                -0.606
REMARK  Name = 
REMARK  5 active torsions:
REMARK  status: ('A' for Active; 'I' for Inactive)
REMARK    1  A    between atoms: C_2  and  C_18
REMARK    2  A    between atoms: N_3  and  C_4
REMARK    3  A    between atoms: C_4  and  C_5
REMARK    4  A    between atoms: C_8  and  C_9
REMARK    5  A    between atoms: C_9  and  C_10
REMARK                            x       y       z     vdW  Elec       q    Type
REMARK                         _______ _______ _______ _____ _____    ______ ____
ROOT
ATOM      1  O   UNL     1      48.743   6.252  13.320  0.00  0.00    +0.000 OA
ATOM      2  C   UNL     1      47.832   6.057  14.113  0.00  0.00    +0.000 C 
ATOM      3  N   UNL     1      46.530   6.453  13.924  0.00  0.00    +0.000 N 
ATOM      4  H   UNL     1      45.826   6.083  14.544  0.00  0.00    +0.000 HD
ENDROOT
BRANCH   2   5
ATOM      5  C   UNL     1      47.950   5.195  15.282  0.00  0.00    +0.000 A 
ATOM      6  C   UNL     1      47.280   3.991  15.395  0.00  0.00    +0.000 A 
ATOM      7  S   UNL     1      47.172   3.475  17.029  0.00  0.00    +0.000 S 
ATOM      8  C   UNL     1      48.120   4.786  17.568  0.00  0.00    +0.000 A 
ATOM      9  N   UNL     1      48.315   5.056  18.886  0.00  0.00    +0.000 NA
ATOM     10  C   UNL     1      49.090   6.068  19.111  0.00  0.00    +0.000 A 
ATOM     11  N   UNL     1      49.731   6.801  18.142  0.00  0.00    +0.000 N 
ATOM     12  C   UNL     1      49.590   6.547  16.798  0.00  0.00    +0.000 A 
ATOM     13  O   UNL     1      50.238   7.148  15.950  0.00  0.00    +0.000 OA
ATOM     14  C   UNL     1      48.623   5.510  16.508  0.00  0.00    +0.000 A 
ATOM     15  H   UNL     1      50.387   7.527  18.390  0.00  0.00    +0.000 HD
ENDBRANCH   2   5
BRANCH   3  16
ATOM     16  C   UNL     1      46.045   6.977  12.680  0.00  0.00    +0.000 C 
BRANCH  16  17
ATOM     17  C   UNL     1      45.680   5.835  11.766  0.00  0.00    +0.000 A 
ATOM     18  C   UNL     1      45.749   5.995  10.379  0.00  0.00    +0.000 A 
ATOM     19  C   UNL     1      45.384   4.952   9.528  0.00  0.00    +0.000 A 
ATOM     20  C   UNL     1      44.969   3.716  10.041  0.00  0.00    +0.000 A 
ATOM     21  C   UNL     1      44.858   3.568  11.428  0.00  0.00    +0.000 A 
ATOM     22  C   UNL     1      45.195   4.621  12.284  0.00  0.00    +0.000 A 
BRANCH  20  23
ATOM     23  C   UNL     1      44.666   2.561   9.111  0.00  0.00    +0.000 C 
BRANCH  23  24
ATOM     24  C   UNL     1      45.813   2.140   8.215  0.00  0.00    +0.000 A 
ATOM     25  C   UNL     1      46.419   3.041   7.354  0.00  0.00    +0.000 A 
ATOM     26  C   UNL     1      47.404   2.543   6.532  0.00  0.00    +0.000 A 
ATOM     27  N   UNL     1      47.789   1.255   6.529  0.00  0.00    +0.000 NA
ATOM     28  C   UNL     1      47.146   0.462   7.398  0.00  0.00    +0.000 A 
ATOM     29  N   UNL     1      46.170   0.836   8.243  0.00  0.00    +0.000 NA
ENDBRANCH  23  24
ENDBRANCH  20  23
ENDBRANCH  16  17
ENDBRANCH   3  16
TORSDOF 5
ENDMDL
MODEL 6
REMARK VINA RESULT:    -7.859      2.111      3.228
REMARK INTER + INTRA:         -10.762
REMARK INTER:                  -9.787
REMARK INTRA:                  -0.975
REMARK UNBOUND:                -0.606
REMARK  Name = 
REMARK  5 active torsions:
REMARK  status: ('A' for Active; 'I' for Inactive)
REMARK    1  A    between atoms: C_2  and  C_18
REMARK    2  A    between atoms: N_3  and  C_4
REMARK    3  A    between atoms: C_4  and  C_5
REMARK    4  A    between atoms: C_8  and  C_9
REMARK    5  A    between atoms: C_9  and  C_10
REMARK                            x       y       z     vdW  Elec       q    Type
REMARK                         _______ _______ _______ _____ _____    ______ ____
ROOT
ATOM      1  O   UNL     1      49.680   7.125  13.940  0.00  0.00    +0.000 OA
ATOM      2  C   UNL     1      48.790   7.358  14.746  0.00  0.00    +0.000 C 
ATOM      3  N   UNL     1      47.696   8.153  14.499  0.00  0.00    +0.000 N 
ATOM      4  H   UNL     1      46.933   8.131  15.158  0.00  0.00    +0.000 HD
ENDROOT
BRANCH   2   5
ATOM      5  C   UNL     1      48.651   6.663  16.020  0.00  0.00    +0.000 A 
ATOM      6  C   UNL     1      49.114   7.188  17.213  0.00  0.00    +0.000 A 
ATOM      7  S   UNL     1      49.304   5.972  18.410  0.00  0.00    +0.000 S 
ATOM      8  C   UNL     1      48.656   4.775  17.382  0.00  0.00    +0.000 A 
ATOM      9  N   UNL     1      48.651   3.455  17.707  0.00  0.00    +0.000 NA
ATOM     10  C   UNL     1      48.088   2.694  16.824  0.00  0.00    +0.000 A 
ATOM     11  N   UNL     1      47.483   3.136  15.673  0.00  0.00    +0.000 N 
ATOM     12  C   UNL     1      47.436   4.463  15.316  0.00  0.00    +0.000 A 
ATOM     13  O   UNL     1      46.814   4.852  14.335  0.00  0.00    +0.000 OA
ATOM     14  C   UNL     1      48.175   5.325  16.213  0.00  0.00    +0.000 A 
ATOM     15  H   UNL     1      46.991   2.495  15.067  0.00  0.00    +0.000 HD
ENDBRANCH   2   5
BRANCH   3  16
ATOM     16  C   UNL     1      47.372   8.651  13.193  0.00  0.00    +0.000 C 
BRANCH  16  17
ATOM     17  C   UNL     1      46.516   7.641  12.472  0.00  0.00    +0.000 A 
ATOM     18  C   UNL     1      45.179   7.463  12.840  0.00  0.00    +0.000 A 
ATOM     19  C   UNL     1      44.390   6.509  12.198  0.00  0.00    +0.000 A 
ATOM     20  C   UNL     1      44.908   5.731  11.153  0.00  0.00    +0.000 A 
ATOM     21  C   UNL     1      46.257   5.878  10.813  0.00  0.00    +0.000 A 
ATOM     22  C   UNL     1      47.059   6.813  11.475  0.00  0.00    +0.000 A 
BRANCH  20  23
ATOM     23  C   UNL     1      44.018   4.767  10.399  0.00  0.00    +0.000 C 
BRANCH  23  24
ATOM     24  C   UNL     1      44.736   3.871   9.409  0.00  0.00    +0.000 A 
ATOM     25  C   UNL     1      44.902   2.518   9.654  0.00  0.00    +0.000 A 
ATOM     26  C   UNL     1      45.630   1.807   8.728  0.00  0.00    +0.000 A 
ATOM     27  N   UNL     1      46.172   2.357   7.628  0.00  0.00    +0.000 NA
ATOM     28  C   UNL     1      45.955   3.671   7.477  0.00  0.00    +0.000 A 
ATOM     29  N   UNL     1      45.266   4.464   8.315  0.00  0.00    +0.000 NA
ENDBRANCH  23  24
ENDBRANCH  20  23
ENDBRANCH  16  17
ENDBRANCH   3  16
TORSDOF 5
ENDMDL
MODEL 7
REMARK VINA RESULT:    -7.652      2.765      3.475
REMARK INTER + INTRA:         -10.495
REMARK INTER:                  -9.884
REMARK INTRA:                  -0.611
REMARK UNBOUND:                -0.606
REMARK  Name = 
REMARK  5 active torsions:
REMARK  status: ('A' for Active; 'I' for Inactive)
REMARK    1  A    between atoms: C_2  and  C_18
REMARK    2  A    between atoms: N_3  and  C_4
REMARK    3  A    between atoms: C_4  and  C_5
REMARK    4  A    between atoms: C_8  and  C_9
REMARK    5  A    between atoms: C_9  and  C_10
REMARK                            x       y       z     vdW  Elec       q    Type
REMARK                         _______ _______ _______ _____ _____    ______ ____
ROOT
ATOM      1  O   UNL     1      48.780   6.442  13.129  0.00  0.00    +0.000 OA
ATOM      2  C   UNL     1      47.877   7.255  13.272  0.00  0.00    +0.000 C 
ATOM      3  N   UNL     1      46.542   6.938  13.349  0.00  0.00    +0.000 N 
ATOM      4  H   UNL     1      45.899   7.654  13.651  0.00  0.00    +0.000 HD
ENDROOT
BRANCH   2   5
ATOM      5  C   UNL     1      48.097   8.660  13.588  0.00  0.00    +0.000 A 
ATOM      6  C   UNL     1      47.776   9.683  12.714  0.00  0.00    +0.000 A 
ATOM      7  S   UNL     1      48.611  11.133  13.098  0.00  0.00    +0.000 S 
ATOM      8  C   UNL     1      49.303  10.435  14.493  0.00  0.00    +0.000 A 
ATOM      9  N   UNL     1      50.250  11.068  15.236  0.00  0.00    +0.000 NA
ATOM     10  C   UNL     1      50.635  10.404  16.278  0.00  0.00    +0.000 A 
ATOM     11  N   UNL     1      50.124   9.193  16.676  0.00  0.00    +0.000 N 
ATOM     12  C   UNL     1      49.145   8.530  15.975  0.00  0.00    +0.000 A 
ATOM     13  O   UNL     1      48.634   7.497  16.390  0.00  0.00    +0.000 OA
ATOM     14  C   UNL     1      48.789   9.179  14.731  0.00  0.00    +0.000 A 
ATOM     15  H   UNL     1      50.414   8.768  17.545  0.00  0.00    +0.000 HD
ENDBRANCH   2   5
BRANCH   3  16
ATOM     16  C   UNL     1      46.064   5.590  13.462  0.00  0.00    +0.000 C 
BRANCH  16  17
ATOM     17  C   UNL     1      45.727   5.063  12.090  0.00  0.00    +0.000 A 
ATOM     18  C   UNL     1      45.972   5.845  10.958  0.00  0.00    +0.000 A 
ATOM     19  C   UNL     1      45.635   5.376   9.689  0.00  0.00    +0.000 A 
ATOM     20  C   UNL     1      45.073   4.103   9.517  0.00  0.00    +0.000 A 
ATOM     21  C   UNL     1      44.789   3.337  10.653  0.00  0.00    +0.000 A 
ATOM     22  C   UNL     1      45.098   3.817  11.930  0.00  0.00    +0.000 A 
BRANCH  20  23
ATOM     23  C   UNL     1      44.799   3.565   8.129  0.00  0.00    +0.000 C 
BRANCH  23  24
ATOM     24  C   UNL     1      45.957   2.829   7.486  0.00  0.00    +0.000 A 
ATOM     25  C   UNL     1      46.541   3.290   6.318  0.00  0.00    +0.000 A 
ATOM     26  C   UNL     1      47.539   2.512   5.776  0.00  0.00    +0.000 A 
ATOM     27  N   UNL     1      47.955   1.356   6.319  0.00  0.00    +0.000 NA
ATOM     28  C   UNL     1      47.332   0.994   7.449  0.00  0.00    +0.000 A 
ATOM     29  N   UNL     1      46.347   1.670   8.064  0.00  0.00    +0.000 NA
ENDBRANCH  23  24
ENDBRANCH  20  23
ENDBRANCH  16  17
ENDBRANCH   3  16
TORSDOF 5
ENDMDL
MODEL 8
REMARK VINA RESULT:    -7.619      2.921      8.610
REMARK INTER + INTRA:         -10.453
REMARK INTER:                  -9.543
REMARK INTRA:                  -0.910
REMARK UNBOUND:                -0.606
REMARK  Name = 
REMARK  5 active torsions:
REMARK  status: ('A' for Active; 'I' for Inactive)
REMARK    1  A    between atoms: C_2  and  C_18
REMARK    2  A    between atoms: N_3  and  C_4
REMARK    3  A    between atoms: C_4  and  C_5
REMARK    4  A    between atoms: C_8  and  C_9
REMARK    5  A    between atoms: C_9  and  C_10
REMARK                            x       y       z     vdW  Elec       q    Type
REMARK                         _______ _______ _______ _____ _____    ______ ____
ROOT
ATOM      1  O   UNL     1      44.626   7.278  11.725  0.00  0.00    +0.000 OA
ATOM      2  C   UNL     1      45.187   6.215  11.499  0.00  0.00    +0.000 C 
ATOM      3  N   UNL     1      46.514   5.958  11.752  0.00  0.00    +0.000 N 
ATOM      4  H   UNL     1      46.831   5.002  11.705  0.00  0.00    +0.000 HD
ENDROOT
BRANCH   2   5
ATOM      5  C   UNL     1      44.486   4.996  11.117  0.00  0.00    +0.000 A 
ATOM      6  C   UNL     1      43.484   4.436  11.888  0.00  0.00    +0.000 A 
ATOM      7  S   UNL     1      43.227   2.785  11.496  0.00  0.00    +0.000 S 
ATOM      8  C   UNL     1      44.360   2.850  10.222  0.00  0.00    +0.000 A 
ATOM      9  N   UNL     1      44.755   1.745   9.535  0.00  0.00    +0.000 NA
ATOM     10  C   UNL     1      45.593   1.987   8.580  0.00  0.00    +0.000 A 
ATOM     11  N   UNL     1      46.032   3.235   8.212  0.00  0.00    +0.000 N 
ATOM     12  C   UNL     1      45.637   4.384   8.855  0.00  0.00    +0.000 A 
ATOM     13  O   UNL     1      45.963   5.497   8.459  0.00  0.00    +0.000 OA
ATOM     14  C   UNL     1      44.807   4.137  10.015  0.00  0.00    +0.000 A 
ATOM     15  H   UNL     1      46.624   3.360   7.404  0.00  0.00    +0.000 HD
ENDBRANCH   2   5
BRANCH   3  16
ATOM     16  C   UNL     1      47.354   6.853  12.495  0.00  0.00    +0.000 C 
BRANCH  16  17
ATOM     17  C   UNL     1      47.679   6.238  13.832  0.00  0.00    +0.000 A 
ATOM     18  C   UNL     1      47.058   5.050  14.229  0.00  0.00    +0.000 A 
ATOM     19  C   UNL     1      47.331   4.492  15.477  0.00  0.00    +0.000 A 
ATOM     20  C   UNL     1      48.253   5.090  16.347  0.00  0.00    +0.000 A 
ATOM     21  C   UNL     1      48.844   6.301  15.970  0.00  0.00    +0.000 A 
ATOM     22  C   UNL     1      48.549   6.879  14.731  0.00  0.00    +0.000 A 
BRANCH  20  23
ATOM     23  C   UNL     1      48.615   4.426  17.659  0.00  0.00    +0.000 C 
BRANCH  23  24
ATOM     24  C   UNL     1      49.895   3.616  17.636  0.00  0.00    +0.000 A 
ATOM     25  C   UNL     1      49.903   2.298  17.211  0.00  0.00    +0.000 A 
ATOM     26  C   UNL     1      51.103   1.628  17.296  0.00  0.00    +0.000 A 
ATOM     27  N   UNL     1      52.232   2.185  17.764  0.00  0.00    +0.000 NA
ATOM     28  C   UNL     1      52.125   3.464  18.149  0.00  0.00    +0.000 A 
ATOM     29  N   UNL     1      51.010   4.214  18.115  0.00  0.00    +0.000 NA
ENDBRANCH  23  24
ENDBRANCH  20  23
ENDBRANCH  16  17
ENDBRANCH   3  16
TORSDOF 5
ENDMDL
MODEL 9
REMARK VINA RESULT:    -7.370      2.376      3.609
REMARK INTER + INTRA:         -10.131
REMARK INTER:                  -9.152
REMARK INTRA:                  -0.979
REMARK UNBOUND:                -0.606
REMARK  Name = 
REMARK  5 active torsions:
REMARK  status: ('A' for Active; 'I' for Inactive)
REMARK    1  A    between atoms: C_2  and  C_18
REMARK    2  A    between atoms: N_3  and  C_4
REMARK    3  A    between atoms: C_4  and  C_5
REMARK    4  A    between atoms: C_8  and  C_9
REMARK    5  A    between atoms: C_9  and  C_10
REMARK                            x       y       z     vdW  Elec       q    Type
REMARK                         _______ _______ _______ _____ _____    ______ ____
ROOT
ATOM      1  O   UNL     1      50.377   7.630  16.314  0.00  0.00    +0.000 OA
ATOM      2  C   UNL     1      49.173   7.431  16.402  0.00  0.00    +0.000 C 
ATOM      3  N   UNL     1      48.332   7.217  15.336  0.00  0.00    +0.000 N 
ATOM      4  H   UNL     1      47.401   6.881  15.525  0.00  0.00    +0.000 HD
ENDROOT
BRANCH   2   5
ATOM      5  C   UNL     1      48.486   7.187  17.664  0.00  0.00    +0.000 A 
ATOM      6  C   UNL     1      47.936   8.203  18.425  0.00  0.00    +0.000 A 
ATOM      7  S   UNL     1      47.687   7.714  20.052  0.00  0.00    +0.000 S 
ATOM      8  C   UNL     1      48.193   6.120  19.713  0.00  0.00    +0.000 A 
ATOM      9  N   UNL     1      48.370   5.185  20.684  0.00  0.00    +0.000 NA
ATOM     10  C   UNL     1      48.723   4.022  20.242  0.00  0.00    +0.000 A 
ATOM     11  N   UNL     1      48.865   3.692  18.916  0.00  0.00    +0.000 N 
ATOM     12  C   UNL     1      48.667   4.594  17.897  0.00  0.00    +0.000 A 
ATOM     13  O   UNL     1      48.706   4.263  16.718  0.00  0.00    +0.000 OA
ATOM     14  C   UNL     1      48.405   5.939  18.363  0.00  0.00    +0.000 A 
ATOM     15  H   UNL     1      49.064   2.742  18.636  0.00  0.00    +0.000 HD
ENDBRANCH   2   5
BRANCH   3  16
ATOM     16  C   UNL     1      48.806   7.012  13.998  0.00  0.00    +0.000 C 
BRANCH  16  17
ATOM     17  C   UNL     1      47.686   6.460  13.152  0.00  0.00    +0.000 A 
ATOM     18  C   UNL     1      47.306   7.115  11.977  0.00  0.00    +0.000 A 
ATOM     19  C   UNL     1      46.252   6.627  11.206  0.00  0.00    +0.000 A 
ATOM     20  C   UNL     1      45.571   5.459  11.573  0.00  0.00    +0.000 A 
ATOM     21  C   UNL     1      45.922   4.826  12.771  0.00  0.00    +0.000 A 
ATOM     22  C   UNL     1      46.959   5.330  13.562  0.00  0.00    +0.000 A 
BRANCH  20  23
ATOM     23  C   UNL     1      44.491   4.885  10.680  0.00  0.00    +0.000 C 
BRANCH  23  24
ATOM     24  C   UNL     1      44.987   3.960   9.587  0.00  0.00    +0.000 A 
ATOM     25  C   UNL     1      44.925   2.584   9.727  0.00  0.00    +0.000 A 
ATOM     26  C   UNL     1      45.466   1.833   8.709  0.00  0.00    +0.000 A 
ATOM     27  N   UNL     1      46.038   2.367   7.616  0.00  0.00    +0.000 NA
ATOM     28  C   UNL     1      46.049   3.706   7.570  0.00  0.00    +0.000 A 
ATOM     29  N   UNL     1      45.555   4.538   8.503  0.00  0.00    +0.000 NA
ENDBRANCH  23  24
ENDBRANCH  20  23
ENDBRANCH  16  17
ENDBRANCH   3  16
TORSDOF 5
ENDMDL
