MODEL 1
REMARK VINA RESULT:    -9.685      0.000      0.000
REMARK INTER + INTRA:         -13.942
REMARK INTER:                 -13.082
REMARK INTRA:                  -0.860
REMARK UNBOUND:                -0.860
REMARK  Name = 
REMARK  6 active torsions:
REMARK  status: ('A' for Active; 'I' for Inactive)
REMARK    1  A    between atoms: C_2  and  C_4
REMARK    2  A    between atoms: N_8  and  C_9
REMARK    3  A    between atoms: C_9  and  C_10
REMARK    4  A    between atoms: C_10  and  C_13
REMARK    5  A    between atoms: C_18  and  N_19
REMARK    6  A    between atoms: N_19  and  C_20
REMARK                            x       y       z     vdW  Elec       q    Type
REMARK                         _______ _______ _______ _____ _____    ______ ____
ROOT
ATOM      1  C   UNL     1      43.518   5.683  12.129  0.00  0.00    +0.000 C 
ATOM      2  F   UNL     1      43.218   6.880  11.539  0.00  0.00    +0.000 F 
ATOM      3  F   UNL     1      42.650   5.574  13.179  0.00  0.00    +0.000 F 
ENDROOT
BRANCH   1   4
ATOM      4  C   UNL     1      44.959   5.627  12.597  0.00  0.00    +0.000 A 
ATOM      5  C   UNL     1      45.914   6.528  12.113  0.00  0.00    +0.000 A 
ATOM      6  C   UNL     1      47.225   6.456  12.572  0.00  0.00    +0.000 A 
ATOM      7  F   UNL     1      48.124   7.340  12.128  0.00  0.00    +0.000 F 
ATOM      8  C   UNL     1      47.610   5.498  13.504  0.00  0.00    +0.000 A 
ATOM      9  C   UNL     1      46.676   4.585  14.005  0.00  0.00    +0.000 A 
ATOM     10  C   UNL     1      45.354   4.667  13.549  0.00  0.00    +0.000 A 
BRANCH   9  11
ATOM     11  N   UNL     1      47.051   3.730  15.050  0.00  0.00    +0.000 N 
ATOM     12  H   UNL     1      46.608   2.815  15.053  0.00  0.00    +0.000 HD
BRANCH  11  13
ATOM     13  C   UNL     1      47.866   4.040  16.190  0.00  0.00    +0.000 C 
ATOM     14  C   UNL     1      48.305   2.782  16.963  0.00  0.00    +0.000 C 
ATOM     15  N   UNL     1      47.814   3.381  18.217  0.00  0.00    +0.000 NA
ATOM     16  C   UNL     1      47.076   4.408  17.456  0.00  0.00    +0.000 C 
ATOM     17  H   UNL     1      48.560   3.762  18.800  0.00  0.00    +0.000 HD
ENDBRANCH  11  13
ENDBRANCH   9  11
ENDBRANCH   1   4
BRANCH   1  18
ATOM     18  C   UNL     1      43.214   4.552  11.109  0.00  0.00    +0.000 C 
BRANCH  18  23
ATOM     19  C   UNL     1      46.506   2.516   7.743  0.00  0.00    +0.000 A 
ATOM     20  C   UNL     1      45.655   1.882   8.643  0.00  0.00    +0.000 A 
ATOM     21  C   UNL     1      44.738   2.647   9.366  0.00  0.00    +0.000 A 
ATOM     22  C   UNL     1      44.697   4.026   9.189  0.00  0.00    +0.000 A 
ATOM     23  N   UNL     1      43.750   4.838   9.774  0.00  0.00    +0.000 N 
ATOM     24  N   UNL     1      45.547   4.653   8.355  0.00  0.00    +0.000 NA
ATOM     25  C   UNL     1      46.435   3.896   7.655  0.00  0.00    +0.000 A 
ATOM     26  H   UNL     1      43.993   5.812   9.592  0.00  0.00    +0.000 HD
BRANCH  19  28
ATOM     27  N   UNL     1      48.552   2.472   6.440  0.00  0.00    +0.000 N 
ATOM     28  C   UNL     1      47.455   1.783   6.884  0.00  0.00    +0.000 C 
ATOM     29  O   UNL     1      47.298   0.600   6.616  0.00  0.00    +0.000 OA
ATOM     30  H   UNL     1      49.259   1.928   5.963  0.00  0.00    +0.000 HD
ATOM     31  H   UNL     1      48.843   3.347   6.853  0.00  0.00    +0.000 HD
ENDBRANCH  19  28
ENDBRANCH  18  23
ENDBRANCH   1  18
TORSDOF 6
ENDMDL
MODEL 2
REMARK VINA RESULT:    -9.090      2.330      3.360
REMARK INTER + INTRA:         -13.138
REMARK INTER:                 -12.195
REMARK INTRA:                  -0.942
REMARK UNBOUND:                -0.860
REMARK  Name = 
REMARK  6 active torsions:
REMARK  status: ('A' for Active; 'I' for Inactive)
REMARK    1  A    between atoms: C_2  and  C_4
REMARK    2  A    between atoms: N_8  and  C_9
REMARK    3  A    between atoms: C_9  and  C_10
REMARK    4  A    between atoms: C_10  and  C_13
REMARK    5  A    between atoms: C_18  and  N_19
REMARK    6  A    between atoms: N_19  and  C_20
REMARK                            x       y       z     vdW  Elec       q    Type
REMARK                         _______ _______ _______ _____ _____    ______ ____
ROOT
ATOM      1  C   UNL     1      43.493   5.623  12.090  0.00  0.00    +0.000 C 
ATOM      2  F   UNL     1      43.141   6.819  11.526  0.00  0.00    +0.000 F 
ATOM      3  F   UNL     1      42.656   5.471  13.160  0.00  0.00    +0.000 F 
ENDROOT
BRANCH   1   4
ATOM      4  C   UNL     1      44.947   5.606  12.520  0.00  0.00    +0.000 A 
ATOM      5  C   UNL     1      45.432   4.625  13.392  0.00  0.00    +0.000 A 
ATOM      6  C   UNL     1      46.775   4.632  13.759  0.00  0.00    +0.000 A 
ATOM      7  F   UNL     1      47.238   3.673  14.567  0.00  0.00    +0.000 F 
ATOM      8  C   UNL     1      47.648   5.602  13.277  0.00  0.00    +0.000 A 
ATOM      9  C   UNL     1      47.189   6.593  12.404  0.00  0.00    +0.000 A 
ATOM     10  C   UNL     1      45.840   6.577  12.028  0.00  0.00    +0.000 A 
BRANCH   9  11
ATOM     11  N   UNL     1      48.114   7.466  11.816  0.00  0.00    +0.000 N 
ATOM     12  H   UNL     1      48.622   7.099  11.015  0.00  0.00    +0.000 HD
BRANCH  11  13
ATOM     13  C   UNL     1      48.536   8.751  12.296  0.00  0.00    +0.000 C 
ATOM     14  C   UNL     1      47.996   9.064  13.705  0.00  0.00    +0.000 C 
ATOM     15  N   UNL     1      47.483  10.358  13.222  0.00  0.00    +0.000 NA
ATOM     16  C   UNL     1      47.665   9.925  11.822  0.00  0.00    +0.000 C 
ATOM     17  H   UNL     1      48.072  11.148  13.486  0.00  0.00    +0.000 HD
ENDBRANCH  11  13
ENDBRANCH   9  11
ENDBRANCH   1   4
BRANCH   1  18
ATOM     18  C   UNL     1      43.198   4.498  11.061  0.00  0.00    +0.000 C 
BRANCH  18  23
ATOM     19  C   UNL     1      46.524   2.537   7.683  0.00  0.00    +0.000 A 
ATOM     20  C   UNL     1      45.684   1.885   8.579  0.00  0.00    +0.000 A 
ATOM     21  C   UNL     1      44.754   2.630   9.307  0.00  0.00    +0.000 A 
ATOM     22  C   UNL     1      44.690   4.008   9.138  0.00  0.00    +0.000 A 
ATOM     23  N   UNL     1      43.730   4.801   9.728  0.00  0.00    +0.000 N 
ATOM     24  N   UNL     1      45.530   4.655   8.308  0.00  0.00    +0.000 NA
ATOM     25  C   UNL     1      46.430   3.917   7.603  0.00  0.00    +0.000 A 
ATOM     26  H   UNL     1      43.956   5.780   9.551  0.00  0.00    +0.000 HD
BRANCH  19  28
ATOM     27  N   UNL     1      48.571   2.536   6.382  0.00  0.00    +0.000 N 
ATOM     28  C   UNL     1      47.486   1.826   6.820  0.00  0.00    +0.000 C 
ATOM     29  O   UNL     1      47.348   0.642   6.544  0.00  0.00    +0.000 OA
ATOM     30  H   UNL     1      49.287   2.006   5.901  0.00  0.00    +0.000 HD
ATOM     31  H   UNL     1      48.848   3.412   6.800  0.00  0.00    +0.000 HD
ENDBRANCH  19  28
ENDBRANCH  18  23
ENDBRANCH   1  18
TORSDOF 6
ENDMDL
MODEL 3
REMARK VINA RESULT:    -8.774      3.099      4.639
REMARK INTER + INTRA:         -12.711
REMARK INTER:                 -12.059
REMARK INTRA:                  -0.652
REMARK UNBOUND:                -0.860
REMARK  Name = 
REMARK  6 active torsions:
REMARK  status: ('A' for Active; 'I' for Inactive)
REMARK    1  A    between atoms: C_2  and  C_4
REMARK    2  A    between atoms: N_8  and  C_9
REMARK    3  A    between atoms: C_9  and  C_10
REMARK    4  A    between atoms: C_10  and  C_13
REMARK    5  A    between atoms: C_18  and  N_19
REMARK    6  A    between atoms: N_19  and  C_20
REMARK                            x       y       z     vdW  Elec       q    Type
REMARK                         _______ _______ _______ _____ _____    ______ ____
ROOT
ATOM      1  C   UNL     1      44.687   4.920  12.312  0.00  0.00    +0.000 C 
ATOM      2  F   UNL     1      44.065   4.760  13.520  0.00  0.00    +0.000 F 
ATOM      3  F   UNL     1      45.564   3.876  12.220  0.00  0.00    +0.000 F 
ENDROOT
BRANCH   1   4
ATOM      4  C   UNL     1      45.405   6.252  12.217  0.00  0.00    +0.000 A 
ATOM      5  C   UNL     1      46.756   6.323  11.859  0.00  0.00    +0.000 A 
ATOM      6  C   UNL     1      47.381   7.563  11.770  0.00  0.00    +0.000 A 
ATOM      7  F   UNL     1      48.664   7.624  11.398  0.00  0.00    +0.000 F 
ATOM      8  C   UNL     1      46.689   8.740  12.035  0.00  0.00    +0.000 A 
ATOM      9  C   UNL     1      45.338   8.698  12.394  0.00  0.00    +0.000 A 
ATOM     10  C   UNL     1      44.708   7.449  12.472  0.00  0.00    +0.000 A 
BRANCH   9  11
ATOM     11  N   UNL     1      44.625   9.899  12.509  0.00  0.00    +0.000 N 
ATOM     12  H   UNL     1      44.628  10.328  13.431  0.00  0.00    +0.000 HD
BRANCH  11  13
ATOM     13  C   UNL     1      43.775  10.513  11.530  0.00  0.00    +0.000 C 
ATOM     14  C   UNL     1      43.062   9.481  10.634  0.00  0.00    +0.000 C 
ATOM     15  N   UNL     1      43.532  10.196   9.435  0.00  0.00    +0.000 NA
ATOM     16  C   UNL     1      44.498  10.959  10.249  0.00  0.00    +0.000 C 
ATOM     17  H   UNL     1      42.811  10.777   9.004  0.00  0.00    +0.000 HD
ENDBRANCH  11  13
ENDBRANCH   9  11
ENDBRANCH   1   4
BRANCH   1  18
ATOM     18  C   UNL     1      43.618   4.776  11.195  0.00  0.00    +0.000 C 
BRANCH  18  23
ATOM     19  C   UNL     1      46.543   2.540   7.623  0.00  0.00    +0.000 A 
ATOM     20  C   UNL     1      45.641   1.968   8.513  0.00  0.00    +0.000 A 
ATOM     21  C   UNL     1      44.846   2.799   9.305  0.00  0.00    +0.000 A 
ATOM     22  C   UNL     1      44.976   4.180   9.204  0.00  0.00    +0.000 A 
ATOM     23  N   UNL     1      44.154   5.069   9.862  0.00  0.00    +0.000 N 
ATOM     24  N   UNL     1      45.879   4.742   8.380  0.00  0.00    +0.000 NA
ATOM     25  C   UNL     1      46.646   3.922   7.612  0.00  0.00    +0.000 A 
ATOM     26  H   UNL     1      44.515   6.014   9.725  0.00  0.00    +0.000 HD
BRANCH  19  28
ATOM     27  N   UNL     1      48.391   2.398   6.057  0.00  0.00    +0.000 N 
ATOM     28  C   UNL     1      47.372   1.745   6.697  0.00  0.00    +0.000 C 
ATOM     29  O   UNL     1      47.189   0.546   6.540  0.00  0.00    +0.000 OA
ATOM     30  H   UNL     1      49.030   1.818   5.528  0.00  0.00    +0.000 HD
ATOM     31  H   UNL     1      48.729   3.300   6.361  0.00  0.00    +0.000 HD
ENDBRANCH  19  28
ENDBRANCH  18  23
ENDBRANCH   1  18
TORSDOF 6
ENDMDL
MODEL 4
REMARK VINA RESULT:    -8.232      2.211      2.726
REMARK INTER + INTRA:         -11.979
REMARK INTER:                 -10.976
REMARK INTRA:                  -1.003
REMARK UNBOUND:                -0.860
REMARK  Name = 
REMARK  6 active torsions:
REMARK  status: ('A' for Active; 'I' for Inactive)
REMARK    1  A    between atoms: C_2  and  C_4
REMARK    2  A    between atoms: N_8  and  C_9
REMARK    3  A    between atoms: C_9  and  C_10
REMARK    4  A    between atoms: C_10  and  C_13
REMARK    5  A    between atoms: C_18  and  N_19
REMARK    6  A    between atoms: N_19  and  C_20
REMARK                            x       y       z     vdW  Elec       q    Type
REMARK                         _______ _______ _______ _____ _____    ______ ____
ROOT
ATOM      1  C   UNL     1      43.749   4.502  12.649  0.00  0.00    +0.000 C 
ATOM      2  F   UNL     1      42.583   4.855  13.273  0.00  0.00    +0.000 F 
ATOM      3  F   UNL     1      44.351   3.612  13.493  0.00  0.00    +0.000 F 
ENDROOT
BRANCH   1   4
ATOM      4  C   UNL     1      44.637   5.703  12.387  0.00  0.00    +0.000 A 
ATOM      5  C   UNL     1      44.143   6.845  11.748  0.00  0.00    +0.000 A 
ATOM      6  C   UNL     1      44.983   7.933  11.533  0.00  0.00    +0.000 A 
ATOM      7  F   UNL     1      44.495   9.032  10.949  0.00  0.00    +0.000 F 
ATOM      8  C   UNL     1      46.313   7.907  11.939  0.00  0.00    +0.000 A 
ATOM      9  C   UNL     1      46.833   6.778  12.581  0.00  0.00    +0.000 A 
ATOM     10  C   UNL     1      45.982   5.689  12.806  0.00  0.00    +0.000 A 
BRANCH   9  11
ATOM     11  N   UNL     1      48.129   6.832  13.112  0.00  0.00    +0.000 N 
ATOM     12  H   UNL     1      48.856   6.396  12.551  0.00  0.00    +0.000 HD
BRANCH  11  13
ATOM     13  C   UNL     1      48.526   7.293  14.412  0.00  0.00    +0.000 C 
ATOM     14  C   UNL     1      50.058   7.374  14.568  0.00  0.00    +0.000 C 
ATOM     15  N   UNL     1      49.973   6.584  15.809  0.00  0.00    +0.000 NA
ATOM     16  C   UNL     1      48.586   6.196  15.487  0.00  0.00    +0.000 C 
ATOM     17  H   UNL     1      50.053   7.151  16.654  0.00  0.00    +0.000 HD
ENDBRANCH  11  13
ENDBRANCH   9  11
ENDBRANCH   1   4
BRANCH   1  18
ATOM     18  C   UNL     1      43.387   3.772  11.327  0.00  0.00    +0.000 C 
BRANCH  18  23
ATOM     19  C   UNL     1      46.491   2.864   7.346  0.00  0.00    +0.000 A 
ATOM     20  C   UNL     1      46.048   4.076   7.865  0.00  0.00    +0.000 A 
ATOM     21  C   UNL     1      45.315   4.081   9.053  0.00  0.00    +0.000 A 
ATOM     22  C   UNL     1      45.026   2.880   9.691  0.00  0.00    +0.000 A 
ATOM     23  N   UNL     1      44.410   2.803  10.921  0.00  0.00    +0.000 N 
ATOM     24  N   UNL     1      45.411   1.698   9.173  0.00  0.00    +0.000 NA
ATOM     25  C   UNL     1      46.127   1.707   8.016  0.00  0.00    +0.000 A 
ATOM     26  H   UNL     1      44.204   1.826  11.126  0.00  0.00    +0.000 HD
BRANCH  19  28
ATOM     27  N   UNL     1      48.665   2.515   6.326  0.00  0.00    +0.000 N 
ATOM     28  C   UNL     1      47.332   2.766   6.138  0.00  0.00    +0.000 C 
ATOM     29  O   UNL     1      46.856   2.858   5.015  0.00  0.00    +0.000 OA
ATOM     30  H   UNL     1      49.205   2.321   5.492  0.00  0.00    +0.000 HD
ATOM     31  H   UNL     1      49.031   2.174   7.204  0.00  0.00    +0.000 HD
ENDBRANCH  19  28
ENDBRANCH  18  23
ENDBRANCH   1  18
TORSDOF 6
ENDMDL
MODEL 5
REMARK VINA RESULT:    -7.925      2.906      7.934
REMARK INTER + INTRA:         -11.564
REMARK INTER:                 -10.898
REMARK INTRA:                  -0.666
REMARK UNBOUND:                -0.860
REMARK  Name = 
REMARK  6 active torsions:
REMARK  status: ('A' for Active; 'I' for Inactive)
REMARK    1  A    between atoms: C_2  and  C_4
REMARK    2  A    between atoms: N_8  and  C_9
REMARK    3  A    between atoms: C_9  and  C_10
REMARK    4  A    between atoms: C_10  and  C_13
REMARK    5  A    between atoms: C_18  and  N_19
REMARK    6  A    between atoms: N_19  and  C_20
REMARK                            x       y       z     vdW  Elec       q    Type
REMARK                         _______ _______ _______ _____ _____    ______ ____
ROOT
ATOM      1  C   UNL     1      45.825   6.302  11.351  0.00  0.00    +0.000 C 
ATOM      2  F   UNL     1      44.986   7.356  11.113  0.00  0.00    +0.000 F 
ATOM      3  F   UNL     1      47.063   6.736  10.970  0.00  0.00    +0.000 F 
ENDROOT
BRANCH   1   4
ATOM      4  C   UNL     1      45.412   5.064  10.580  0.00  0.00    +0.000 A 
ATOM      5  C   UNL     1      44.566   4.104  11.147  0.00  0.00    +0.000 A 
ATOM      6  C   UNL     1      44.199   2.985  10.406  0.00  0.00    +0.000 A 
ATOM      7  F   UNL     1      43.365   2.089  10.945  0.00  0.00    +0.000 F 
ATOM      8  C   UNL     1      44.661   2.796   9.109  0.00  0.00    +0.000 A 
ATOM      9  C   UNL     1      45.508   3.740   8.517  0.00  0.00    +0.000 A 
ATOM     10  C   UNL     1      45.867   4.871   9.261  0.00  0.00    +0.000 A 
BRANCH   9  11
ATOM     11  N   UNL     1      45.839   3.604   7.162  0.00  0.00    +0.000 N 
ATOM     12  H   UNL     1      45.568   4.378   6.561  0.00  0.00    +0.000 HD
BRANCH  11  13
ATOM     13  C   UNL     1      46.377   2.449   6.501  0.00  0.00    +0.000 C 
ATOM     14  C   UNL     1      47.693   1.962   7.137  0.00  0.00    +0.000 C 
ATOM     15  N   UNL     1      48.337   1.969   5.812  0.00  0.00    +0.000 NA
ATOM     16  C   UNL     1      47.223   2.764   5.257  0.00  0.00    +0.000 C 
ATOM     17  H   UNL     1      48.420   1.039   5.400  0.00  0.00    +0.000 HD
ENDBRANCH  11  13
ENDBRANCH   9  11
ENDBRANCH   1   4
BRANCH   1  18
ATOM     18  C   UNL     1      45.839   6.032  12.881  0.00  0.00    +0.000 C 
BRANCH  18  23
ATOM     19  C   UNL     1      48.475   4.200  16.882  0.00  0.00    +0.000 A 
ATOM     20  C   UNL     1      47.473   3.595  16.129  0.00  0.00    +0.000 A 
ATOM     21  C   UNL     1      46.996   4.240  14.987  0.00  0.00    +0.000 A 
ATOM     22  C   UNL     1      47.515   5.479  14.626  0.00  0.00    +0.000 A 
ATOM     23  N   UNL     1      47.184   6.128  13.457  0.00  0.00    +0.000 N 
ATOM     24  N   UNL     1      48.451   6.094  15.373  0.00  0.00    +0.000 NA
ATOM     25  C   UNL     1      48.909   5.453  16.483  0.00  0.00    +0.000 A 
ATOM     26  H   UNL     1      47.597   7.061  13.470  0.00  0.00    +0.000 HD
BRANCH  19  28
ATOM     27  N   UNL     1      48.249   3.175  19.069  0.00  0.00    +0.000 N 
ATOM     28  C   UNL     1      49.090   3.562  18.061  0.00  0.00    +0.000 C 
ATOM     29  O   UNL     1      50.293   3.344  18.119  0.00  0.00    +0.000 OA
ATOM     30  H   UNL     1      48.663   2.624  19.810  0.00  0.00    +0.000 HD
ATOM     31  H   UNL     1      47.250   3.097  18.939  0.00  0.00    +0.000 HD
ENDBRANCH  19  28
ENDBRANCH  18  23
ENDBRANCH   1  18
TORSDOF 6
ENDMDL
MODEL 6
REMARK VINA RESULT:    -7.476      3.200      8.130
REMARK INTER + INTRA:         -10.957
REMARK INTER:                 -10.292
REMARK INTRA:                  -0.665
REMARK UNBOUND:                -0.860
REMARK  Name = 
REMARK  6 active torsions:
REMARK  status: ('A' for Active; 'I' for Inactive)
REMARK    1  A    between atoms: C_2  and  C_4
REMARK    2  A    between atoms: N_8  and  C_9
REMARK    3  A    between atoms: C_9  and  C_10
REMARK    4  A    between atoms: C_10  and  C_13
REMARK    5  A    between atoms: C_18  and  N_19
REMARK    6  A    between atoms: N_19  and  C_20
REMARK                            x       y       z     vdW  Elec       q    Type
REMARK                         _______ _______ _______ _____ _____    ______ ____
ROOT
ATOM      1  C   UNL     1      46.620   6.671  12.549  0.00  0.00    +0.000 C 
ATOM      2  F   UNL     1      46.159   7.550  13.491  0.00  0.00    +0.000 F 
ATOM      3  F   UNL     1      47.428   7.412  11.732  0.00  0.00    +0.000 F 
ENDROOT
BRANCH   1   4
ATOM      4  C   UNL     1      45.489   6.030  11.770  0.00  0.00    +0.000 A 
ATOM      5  C   UNL     1      44.185   6.001  12.278  0.00  0.00    +0.000 A 
ATOM      6  C   UNL     1      43.168   5.413  11.532  0.00  0.00    +0.000 A 
ATOM      7  F   UNL     1      41.919   5.418  12.010  0.00  0.00    +0.000 F 
ATOM      8  C   UNL     1      43.422   4.847  10.288  0.00  0.00    +0.000 A 
ATOM      9  C   UNL     1      44.716   4.862   9.756  0.00  0.00    +0.000 A 
ATOM     10  C   UNL     1      45.736   5.464  10.505  0.00  0.00    +0.000 A 
BRANCH   9  11
ATOM     11  N   UNL     1      44.919   4.421   8.442  0.00  0.00    +0.000 N 
ATOM     12  H   UNL     1      44.951   5.148   7.731  0.00  0.00    +0.000 HD
BRANCH  11  13
ATOM     13  C   UNL     1      44.938   3.069   7.962  0.00  0.00    +0.000 C 
ATOM     14  C   UNL     1      45.123   2.042   9.096  0.00  0.00    +0.000 C 
ATOM     15  N   UNL     1      46.235   1.422   8.354  0.00  0.00    +0.000 NA
ATOM     16  C   UNL     1      46.309   2.592   7.457  0.00  0.00    +0.000 C 
ATOM     17  H   UNL     1      45.971   0.559   7.879  0.00  0.00    +0.000 HD
ENDBRANCH  11  13
ENDBRANCH   9  11
ENDBRANCH   1   4
BRANCH   1  18
ATOM     18  C   UNL     1      47.485   5.601  13.270  0.00  0.00    +0.000 C 
BRANCH  18  23
ATOM     19  C   UNL     1      48.566   4.615  18.186  0.00  0.00    +0.000 A 
ATOM     20  C   UNL     1      49.023   5.643  17.369  0.00  0.00    +0.000 A 
ATOM     21  C   UNL     1      48.475   5.793  16.093  0.00  0.00    +0.000 A 
ATOM     22  C   UNL     1      47.497   4.908  15.653  0.00  0.00    +0.000 A 
ATOM     23  N   UNL     1      46.825   5.052  14.459  0.00  0.00    +0.000 N 
ATOM     24  N   UNL     1      47.082   3.882  16.419  0.00  0.00    +0.000 NA
ATOM     25  C   UNL     1      47.621   3.749  17.661  0.00  0.00    +0.000 A 
ATOM     26  H   UNL     1      46.246   4.227  14.305  0.00  0.00    +0.000 HD
BRANCH  19  28
ATOM     27  N   UNL     1      48.348   3.520  20.340  0.00  0.00    +0.000 N 
ATOM     28  C   UNL     1      49.032   4.424  19.573  0.00  0.00    +0.000 C 
ATOM     29  O   UNL     1      50.014   5.010  20.007  0.00  0.00    +0.000 OA
ATOM     30  H   UNL     1      48.753   3.302  21.241  0.00  0.00    +0.000 HD
ATOM     31  H   UNL     1      47.718   2.839  19.939  0.00  0.00    +0.000 HD
ENDBRANCH  19  28
ENDBRANCH  18  23
ENDBRANCH   1  18
TORSDOF 6
ENDMDL
MODEL 7
REMARK VINA RESULT:    -7.101      3.005      7.584
REMARK INTER + INTRA:         -10.451
REMARK INTER:                  -9.585
REMARK INTRA:                  -0.867
REMARK UNBOUND:                -0.860
REMARK  Name = 
REMARK  6 active torsions:
REMARK  status: ('A' for Active; 'I' for Inactive)
REMARK    1  A    between atoms: C_2  and  C_4
REMARK    2  A    between atoms: N_8  and  C_9
REMARK    3  A    between atoms: C_9  and  C_10
REMARK    4  A    between atoms: C_10  and  C_13
REMARK    5  A    between atoms: C_18  and  N_19
REMARK    6  A    between atoms: N_19  and  C_20
REMARK                            x       y       z     vdW  Elec       q    Type
REMARK                         _______ _______ _______ _____ _____    ______ ____
ROOT
ATOM      1  C   UNL     1      46.705   7.153  12.011  0.00  0.00    +0.000 C 
ATOM      2  F   UNL     1      46.443   8.348  11.399  0.00  0.00    +0.000 F 
ATOM      3  F   UNL     1      47.920   6.760  11.525  0.00  0.00    +0.000 F 
ENDROOT
BRANCH   1   4
ATOM      4  C   UNL     1      45.634   6.120  11.718  0.00  0.00    +0.000 A 
ATOM      5  C   UNL     1      44.819   5.613  12.736  0.00  0.00    +0.000 A 
ATOM      6  C   UNL     1      43.839   4.674  12.430  0.00  0.00    +0.000 A 
ATOM      7  F   UNL     1      43.044   4.217  13.404  0.00  0.00    +0.000 F 
ATOM      8  C   UNL     1      43.654   4.223  11.128  0.00  0.00    +0.000 A 
ATOM      9  C   UNL     1      44.454   4.714  10.091  0.00  0.00    +0.000 A 
ATOM     10  C   UNL     1      45.433   5.667  10.400  0.00  0.00    +0.000 A 
BRANCH   9  11
ATOM     11  N   UNL     1      44.152   4.359   8.770  0.00  0.00    +0.000 N 
ATOM     12  H   UNL     1      43.425   4.909   8.319  0.00  0.00    +0.000 HD
BRANCH  11  13
ATOM     13  C   UNL     1      44.636   3.228   8.032  0.00  0.00    +0.000 C 
ATOM     14  C   UNL     1      45.308   2.175   8.936  0.00  0.00    +0.000 C 
ATOM     15  N   UNL     1      46.493   2.179   8.061  0.00  0.00    +0.000 NA
ATOM     16  C   UNL     1      46.029   3.420   7.411  0.00  0.00    +0.000 C 
ATOM     17  H   UNL     1      46.531   1.377   7.431  0.00  0.00    +0.000 HD
ENDBRANCH  11  13
ENDBRANCH   9  11
ENDBRANCH   1   4
BRANCH   1  18
ATOM     18  C   UNL     1      46.836   7.410  13.537  0.00  0.00    +0.000 C 
BRANCH  18  23
ATOM     19  C   UNL     1      48.677   4.144  17.038  0.00  0.00    +0.000 A 
ATOM     20  C   UNL     1      47.555   4.029  16.224  0.00  0.00    +0.000 A 
ATOM     21  C   UNL     1      47.329   4.990  15.237  0.00  0.00    +0.000 A 
ATOM     22  C   UNL     1      48.216   6.051  15.090  0.00  0.00    +0.000 A 
ATOM     23  N   UNL     1      48.131   6.976  14.072  0.00  0.00    +0.000 N 
ATOM     24  N   UNL     1      49.279   6.196  15.903  0.00  0.00    +0.000 NA
ATOM     25  C   UNL     1      49.489   5.251  16.859  0.00  0.00    +0.000 A 
ATOM     26  H   UNL     1      48.813   7.715  14.240  0.00  0.00    +0.000 HD
BRANCH  19  28
ATOM     27  N   UNL     1      50.180   2.418  17.844  0.00  0.00    +0.000 N 
ATOM     28  C   UNL     1      49.036   3.139  18.057  0.00  0.00    +0.000 C 
ATOM     29  O   UNL     1      48.370   2.988  19.072  0.00  0.00    +0.000 OA
ATOM     30  H   UNL     1      50.485   1.828  18.608  0.00  0.00    +0.000 HD
ATOM     31  H   UNL     1      50.878   2.699  17.170  0.00  0.00    +0.000 HD
ENDBRANCH  19  28
ENDBRANCH  18  23
ENDBRANCH   1  18
TORSDOF 6
ENDMDL
MODEL 8
REMARK VINA RESULT:    -6.875      3.504      7.459
REMARK INTER + INTRA:         -10.146
REMARK INTER:                  -9.128
REMARK INTRA:                  -1.018
REMARK UNBOUND:                -0.860
REMARK  Name = 
REMARK  6 active torsions:
REMARK  status: ('A' for Active; 'I' for Inactive)
REMARK    1  A    between atoms: C_2  and  C_4
REMARK    2  A    between atoms: N_8  and  C_9
REMARK    3  A    between atoms: C_9  and  C_10
REMARK    4  A    between atoms: C_10  and  C_13
REMARK    5  A    between atoms: C_18  and  N_19
REMARK    6  A    between atoms: N_19  and  C_20
REMARK                            x       y       z     vdW  Elec       q    Type
REMARK                         _______ _______ _______ _____ _____    ______ ____
ROOT
ATOM      1  C   UNL     1      49.111   8.101  12.294  0.00  0.00    +0.000 C 
ATOM      2  F   UNL     1      49.640   9.067  11.483  0.00  0.00    +0.000 F 
ATOM      3  F   UNL     1      49.759   6.948  11.947  0.00  0.00    +0.000 F 
ENDROOT
BRANCH   1   4
ATOM      4  C   UNL     1      47.612   7.966  12.112  0.00  0.00    +0.000 A 
ATOM      5  C   UNL     1      46.749   9.030  12.396  0.00  0.00    +0.000 A 
ATOM      6  C   UNL     1      45.379   8.875  12.207  0.00  0.00    +0.000 A 
ATOM      7  F   UNL     1      44.565   9.907  12.451  0.00  0.00    +0.000 F 
ATOM      8  C   UNL     1      44.846   7.677  11.745  0.00  0.00    +0.000 A 
ATOM      9  C   UNL     1      45.686   6.597  11.453  0.00  0.00    +0.000 A 
ATOM     10  C   UNL     1      47.066   6.759  11.633  0.00  0.00    +0.000 A 
BRANCH   9  11
ATOM     11  N   UNL     1      45.144   5.455  10.849  0.00  0.00    +0.000 N 
ATOM     12  H   UNL     1      44.902   5.547   9.865  0.00  0.00    +0.000 HD
BRANCH  11  13
ATOM     13  C   UNL     1      44.753   4.228  11.482  0.00  0.00    +0.000 C 
ATOM     14  C   UNL     1      44.092   3.240  10.501  0.00  0.00    +0.000 C 
ATOM     15  N   UNL     1      42.952   3.088  11.422  0.00  0.00    +0.000 NA
ATOM     16  C   UNL     1      43.385   4.278  12.180  0.00  0.00    +0.000 C 
ATOM     17  H   UNL     1      42.985   2.224  11.964  0.00  0.00    +0.000 HD
ENDBRANCH  11  13
ENDBRANCH   9  11
ENDBRANCH   1   4
BRANCH   1  18
ATOM     18  C   UNL     1      49.470   8.453  13.763  0.00  0.00    +0.000 C 
BRANCH  18  23
ATOM     19  C   UNL     1      48.227   4.583  16.892  0.00  0.00    +0.000 A 
ATOM     20  C   UNL     1      47.495   5.153  15.855  0.00  0.00    +0.000 A 
ATOM     21  C   UNL     1      48.101   6.112  15.042  0.00  0.00    +0.000 A 
ATOM     22  C   UNL     1      49.416   6.493  15.285  0.00  0.00    +0.000 A 
ATOM     23  N   UNL     1      50.124   7.344  14.464  0.00  0.00    +0.000 N 
ATOM     24  N   UNL     1      50.117   5.981  16.314  0.00  0.00    +0.000 NA
ATOM     25  C   UNL     1      49.516   5.045  17.098  0.00  0.00    +0.000 A 
ATOM     26  H   UNL     1      51.017   7.562  14.907  0.00  0.00    +0.000 HD
BRANCH  19  28
ATOM     27  N   UNL     1      48.379   3.248  18.912  0.00  0.00    +0.000 N 
ATOM     28  C   UNL     1      47.695   3.512  17.756  0.00  0.00    +0.000 C 
ATOM     29  O   UNL     1      46.662   2.917  17.479  0.00  0.00    +0.000 OA
ATOM     30  H   UNL     1      47.936   2.606  19.556  0.00  0.00    +0.000 HD
ATOM     31  H   UNL     1      49.063   3.887  19.292  0.00  0.00    +0.000 HD
ENDBRANCH  19  28
ENDBRANCH  18  23
ENDBRANCH   1  18
TORSDOF 6
ENDMDL
MODEL 9
REMARK VINA RESULT:    -6.788      3.744      7.919
REMARK INTER + INTRA:         -10.029
REMARK INTER:                  -9.486
REMARK INTRA:                  -0.542
REMARK UNBOUND:                -0.860
REMARK  Name = 
REMARK  6 active torsions:
REMARK  status: ('A' for Active; 'I' for Inactive)
REMARK    1  A    between atoms: C_2  and  C_4
REMARK    2  A    between atoms: N_8  and  C_9
REMARK    3  A    between atoms: C_9  and  C_10
REMARK    4  A    between atoms: C_10  and  C_13
REMARK    5  A    between atoms: C_18  and  N_19
REMARK    6  A    between atoms: N_19  and  C_20
REMARK                            x       y       z     vdW  Elec       q    Type
REMARK                         _______ _______ _______ _____ _____    ______ ____
ROOT
ATOM      1  C   UNL     1      45.056   6.285  11.506  0.00  0.00    +0.000 C 
ATOM      2  F   UNL     1      44.499   6.124  12.745  0.00  0.00    +0.000 F 
ATOM      3  F   UNL     1      44.346   7.297  10.922  0.00  0.00    +0.000 F 
ENDROOT
BRANCH   1   4
ATOM      4  C   UNL     1      44.983   5.014  10.682  0.00  0.00    +0.000 A 
ATOM      5  C   UNL     1      44.236   3.913  11.114  0.00  0.00    +0.000 A 
ATOM      6  C   UNL     1      44.181   2.766  10.328  0.00  0.00    +0.000 A 
ATOM      7  F   UNL     1      43.440   1.729  10.733  0.00  0.00    +0.000 F 
ATOM      8  C   UNL     1      44.861   2.689   9.118  0.00  0.00    +0.000 A 
ATOM      9  C   UNL     1      45.615   3.776   8.661  0.00  0.00    +0.000 A 
ATOM     10  C   UNL     1      45.659   4.933   9.449  0.00  0.00    +0.000 A 
BRANCH   9  11
ATOM     11  N   UNL     1      46.167   3.731   7.374  0.00  0.00    +0.000 N 
ATOM     12  H   UNL     1      46.236   4.623   6.891  0.00  0.00    +0.000 HD
BRANCH  11  13
ATOM     13  C   UNL     1      46.505   2.569   6.603  0.00  0.00    +0.000 C 
ATOM     14  C   UNL     1      47.839   1.934   7.043  0.00  0.00    +0.000 C 
ATOM     15  N   UNL     1      48.308   1.951   5.647  0.00  0.00    +0.000 NA
ATOM     16  C   UNL     1      47.214   2.870   5.274  0.00  0.00    +0.000 C 
ATOM     17  H   UNL     1      48.250   1.040   5.191  0.00  0.00    +0.000 HD
ENDBRANCH  11  13
ENDBRANCH   9  11
ENDBRANCH   1   4
BRANCH   1  18
ATOM     18  C   UNL     1      46.526   6.749  11.694  0.00  0.00    +0.000 C 
BRANCH  18  23
ATOM     19  C   UNL     1      50.696   7.698  14.526  0.00  0.00    +0.000 A 
ATOM     20  C   UNL     1      50.354   8.178  13.267  0.00  0.00    +0.000 A 
ATOM     21  C   UNL     1      49.089   7.891  12.750  0.00  0.00    +0.000 A 
ATOM     22  C   UNL     1      48.198   7.122  13.490  0.00  0.00    +0.000 A 
ATOM     23  N   UNL     1      46.895   6.889  13.106  0.00  0.00    +0.000 N 
ATOM     24  N   UNL     1      48.537   6.614  14.690  0.00  0.00    +0.000 NA
ATOM     25  C   UNL     1      49.772   6.902  15.184  0.00  0.00    +0.000 A 
ATOM     26  H   UNL     1      46.480   6.211  13.744  0.00  0.00    +0.000 HD
BRANCH  19  28
ATOM     27  N   UNL     1      52.802   6.955  15.473  0.00  0.00    +0.000 N 
ATOM     28  C   UNL     1      51.980   8.010  15.183  0.00  0.00    +0.000 C 
ATOM     29  O   UNL     1      52.318   9.162  15.418  0.00  0.00    +0.000 OA
ATOM     30  H   UNL     1      53.730   7.190  15.803  0.00  0.00    +0.000 HD
ATOM     31  H   UNL     1      52.676   6.042  15.060  0.00  0.00    +0.000 HD
ENDBRANCH  19  28
ENDBRANCH  18  23
ENDBRANCH   1  18
TORSDOF 6
ENDMDL
