MODEL 1
REMARK VINA RESULT:    -9.471      0.000      0.000
REMARK INTER + INTRA:         -12.083
REMARK INTER:                 -11.686
REMARK INTRA:                  -0.397
REMARK UNBOUND:                -0.397
REMARK  Name = 
REMARK  5 active torsions:
REMARK  status: ('A' for Active; 'I' for Inactive)
REMARK    1  A    between atoms: C_1  and  C_2
REMARK    2  A    between atoms: C_4  and  C_5
REMARK    3  A    between atoms: N_10  and  C_11
REMARK    4  A    between atoms: C_11  and  C_12
REMARK    5  A    between atoms: C_16  and  C_17
REMARK                            x       y       z     vdW  Elec       q    Type
REMARK                         _______ _______ _______ _____ _____    ______ ____
ROOT
ATOM      1  C   UNL     1      43.956   6.585  11.699  0.00  0.00    +0.000 C 
ENDROOT
BRANCH   1   8
ATOM      2  C   UNL     1      49.095   8.710  13.843  0.00  0.00    +0.000 C 
ATOM      3  C   UNL     1      48.072   7.628  13.667  0.00  0.00    +0.000 A 
ATOM      4  C   UNL     1      48.139   6.468  14.395  0.00  0.00    +0.000 A 
ATOM      5  C   UNL     1      47.144   5.555  14.134  0.00  0.00    +0.000 A 
ATOM      6  N   UNL     1      46.150   5.733  13.228  0.00  0.00    +0.000 NA
ATOM      7  C   UNL     1      46.186   6.883  12.550  0.00  0.00    +0.000 A 
ATOM      8  N   UNL     1      45.277   7.142  11.536  0.00  0.00    +0.000 N 
ATOM      9  N   UNL     1      47.100   7.844  12.752  0.00  0.00    +0.000 NA
ATOM     10  H   UNL     1      45.321   8.136  11.342  0.00  0.00    +0.000 HD
BRANCH   5  11
ATOM     11  C   UNL     1      47.151   4.259  14.884  0.00  0.00    +0.000 C 
ATOM     12  N   UNL     1      46.801   4.334  16.205  0.00  0.00    +0.000 N 
ATOM     13  O   UNL     1      47.448   3.195  14.358  0.00  0.00    +0.000 OA
ATOM     14  H   UNL     1      46.524   5.220  16.608  0.00  0.00    +0.000 HD
ATOM     15  H   UNL     1      46.757   3.485  16.752  0.00  0.00    +0.000 HD
ENDBRANCH   5  11
ENDBRANCH   1   8
BRANCH   1  16
ATOM     16  C   UNL     1      43.954   5.145  11.234  0.00  0.00    +0.000 A 
ATOM     17  C   UNL     1      43.180   4.174  11.871  0.00  0.00    +0.000 A 
ATOM     18  C   UNL     1      43.228   2.875  11.389  0.00  0.00    +0.000 A 
ATOM     19  N   UNL     1      43.982   2.484  10.339  0.00  0.00    +0.000 NA
ATOM     20  C   UNL     1      44.738   3.422   9.718  0.00  0.00    +0.000 A 
ATOM     21  C   UNL     1      44.725   4.756  10.131  0.00  0.00    +0.000 A 
BRANCH  20  22
ATOM     22  C   UNL     1      45.589   2.939   8.610  0.00  0.00    +0.000 A 
ATOM     23  C   UNL     1      46.070   3.820   7.618  0.00  0.00    +0.000 A 
ATOM     24  C   UNL     1      46.873   3.366   6.563  0.00  0.00    +0.000 A 
ATOM     25  C   UNL     1      47.200   2.019   6.483  0.00  0.00    +0.000 A 
ATOM     26  F   UNL     1      47.967   1.583   5.475  0.00  0.00    +0.000 F 
ATOM     27  C   UNL     1      46.730   1.132   7.439  0.00  0.00    +0.000 A 
ATOM     28  F   UNL     1      47.037  -0.171   7.363  0.00  0.00    +0.000 F 
ATOM     29  C   UNL     1      45.933   1.579   8.490  0.00  0.00    +0.000 A 
ENDBRANCH  20  22
ENDBRANCH   1  16
TORSDOF 4
ENDMDL
MODEL 2
REMARK VINA RESULT:    -9.265      1.524      1.818
REMARK INTER + INTRA:         -11.829
REMARK INTER:                 -11.148
REMARK INTRA:                  -0.681
REMARK UNBOUND:                -0.397
REMARK  Name = 
REMARK  5 active torsions:
REMARK  status: ('A' for Active; 'I' for Inactive)
REMARK    1  A    between atoms: C_1  and  C_2
REMARK    2  A    between atoms: C_4  and  C_5
REMARK    3  A    between atoms: N_10  and  C_11
REMARK    4  A    between atoms: C_11  and  C_12
REMARK    5  A    between atoms: C_16  and  C_17
REMARK                            x       y       z     vdW  Elec       q    Type
REMARK                         _______ _______ _______ _____ _____    ______ ____
ROOT
ATOM      1  C   UNL     1      45.129   5.510  13.245  0.00  0.00    +0.000 C 
ENDROOT
BRANCH   1   8
ATOM      2  C   UNL     1      50.443   7.106  15.421  0.00  0.00    +0.000 C 
ATOM      3  C   UNL     1      49.191   6.280  15.437  0.00  0.00    +0.000 A 
ATOM      4  C   UNL     1      48.889   5.476  16.506  0.00  0.00    +0.000 A 
ATOM      5  C   UNL     1      47.716   4.768  16.393  0.00  0.00    +0.000 A 
ATOM      6  N   UNL     1      46.884   4.816  15.322  0.00  0.00    +0.000 NA
ATOM      7  C   UNL     1      47.278   5.607  14.320  0.00  0.00    +0.000 A 
ATOM      8  N   UNL     1      46.559   5.672  13.138  0.00  0.00    +0.000 N 
ATOM      9  N   UNL     1      48.391   6.355  14.350  0.00  0.00    +0.000 NA
ATOM     10  H   UNL     1      46.878   6.494  12.639  0.00  0.00    +0.000 HD
BRANCH   5  11
ATOM     11  C   UNL     1      47.319   3.862  17.517  0.00  0.00    +0.000 C 
ATOM     12  N   UNL     1      47.903   4.122  18.727  0.00  0.00    +0.000 N 
ATOM     13  O   UNL     1      46.522   2.944  17.373  0.00  0.00    +0.000 OA
ATOM     14  H   UNL     1      48.530   4.909  18.829  0.00  0.00    +0.000 HD
ATOM     15  H   UNL     1      47.647   3.562  19.528  0.00  0.00    +0.000 HD
ENDBRANCH   5  11
ENDBRANCH   1   8
BRANCH   1  16
ATOM     16  C   UNL     1      44.669   4.436  12.284  0.00  0.00    +0.000 A 
ATOM     17  C   UNL     1      43.580   3.612  12.576  0.00  0.00    +0.000 A 
ATOM     18  C   UNL     1      43.215   2.651  11.647  0.00  0.00    +0.000 A 
ATOM     19  N   UNL     1      43.849   2.455  10.471  0.00  0.00    +0.000 NA
ATOM     20  C   UNL     1      44.908   3.250  10.182  0.00  0.00    +0.000 A 
ATOM     21  C   UNL     1      45.322   4.256  11.058  0.00  0.00    +0.000 A 
BRANCH  20  22
ATOM     22  C   UNL     1      45.606   2.964   8.910  0.00  0.00    +0.000 A 
ATOM     23  C   UNL     1      45.937   3.996   8.007  0.00  0.00    +0.000 A 
ATOM     24  C   UNL     1      46.593   3.730   6.799  0.00  0.00    +0.000 A 
ATOM     25  C   UNL     1      46.922   2.421   6.474  0.00  0.00    +0.000 A 
ATOM     26  F   UNL     1      47.550   2.163   5.319  0.00  0.00    +0.000 F 
ATOM     27  C   UNL     1      46.598   1.388   7.339  0.00  0.00    +0.000 A 
ATOM     28  F   UNL     1      46.907   0.121   7.027  0.00  0.00    +0.000 F 
ATOM     29  C   UNL     1      45.947   1.648   8.542  0.00  0.00    +0.000 A 
ENDBRANCH  20  22
ENDBRANCH   1  16
TORSDOF 4
ENDMDL
MODEL 3
REMARK VINA RESULT:    -8.974      1.744      2.266
REMARK INTER + INTRA:         -11.469
REMARK INTER:                 -10.681
REMARK INTRA:                  -0.789
REMARK UNBOUND:                -0.397
REMARK  Name = 
REMARK  5 active torsions:
REMARK  status: ('A' for Active; 'I' for Inactive)
REMARK    1  A    between atoms: C_1  and  C_2
REMARK    2  A    between atoms: C_4  and  C_5
REMARK    3  A    between atoms: N_10  and  C_11
REMARK    4  A    between atoms: C_11  and  C_12
REMARK    5  A    between atoms: C_16  and  C_17
REMARK                            x       y       z     vdW  Elec       q    Type
REMARK                         _______ _______ _______ _____ _____    ______ ____
ROOT
ATOM      1  C   UNL     1      44.403   5.891  12.902  0.00  0.00    +0.000 C 
ENDROOT
BRANCH   1   8
ATOM      2  C   UNL     1      46.666  11.255  11.629  0.00  0.00    +0.000 C 
ATOM      3  C   UNL     1      46.798   9.807  11.994  0.00  0.00    +0.000 A 
ATOM      4  C   UNL     1      48.008   9.281  12.371  0.00  0.00    +0.000 A 
ATOM      5  C   UNL     1      47.994   7.940  12.675  0.00  0.00    +0.000 A 
ATOM      6  N   UNL     1      46.897   7.145  12.615  0.00  0.00    +0.000 NA
ATOM      7  C   UNL     1      45.772   7.743  12.211  0.00  0.00    +0.000 A 
ATOM      8  N   UNL     1      44.606   7.017  12.024  0.00  0.00    +0.000 N 
ATOM      9  N   UNL     1      45.682   9.049  11.919  0.00  0.00    +0.000 NA
ATOM     10  H   UNL     1      43.845   7.684  11.970  0.00  0.00    +0.000 HD
BRANCH   5  11
ATOM     11  C   UNL     1      49.278   7.290  13.090  0.00  0.00    +0.000 C 
ATOM     12  N   UNL     1      50.322   7.421  12.215  0.00  0.00    +0.000 N 
ATOM     13  O   UNL     1      49.397   6.680  14.143  0.00  0.00    +0.000 OA
ATOM     14  H   UNL     1      50.209   7.962  11.367  0.00  0.00    +0.000 HD
ATOM     15  H   UNL     1      51.221   7.031  12.459  0.00  0.00    +0.000 HD
ENDBRANCH   5  11
ENDBRANCH   1   8
BRANCH   1  16
ATOM     16  C   UNL     1      44.218   4.635  12.079  0.00  0.00    +0.000 A 
ATOM     17  C   UNL     1      43.339   3.625  12.475  0.00  0.00    +0.000 A 
ATOM     18  C   UNL     1      43.221   2.504  11.670  0.00  0.00    +0.000 A 
ATOM     19  N   UNL     1      43.907   2.319  10.521  0.00  0.00    +0.000 NA
ATOM     20  C   UNL     1      44.764   3.295  10.133  0.00  0.00    +0.000 A 
ATOM     21  C   UNL     1      44.920   4.466  10.879  0.00  0.00    +0.000 A 
BRANCH  20  22
ATOM     22  C   UNL     1      45.534   3.028   8.899  0.00  0.00    +0.000 A 
ATOM     23  C   UNL     1      45.894   4.071   8.020  0.00  0.00    +0.000 A 
ATOM     24  C   UNL     1      46.619   3.822   6.848  0.00  0.00    +0.000 A 
ATOM     25  C   UNL     1      46.989   2.521   6.536  0.00  0.00    +0.000 A 
ATOM     26  F   UNL     1      47.683   2.280   5.415  0.00  0.00    +0.000 F 
ATOM     27  C   UNL     1      46.637   1.478   7.377  0.00  0.00    +0.000 A 
ATOM     28  F   UNL     1      46.986   0.218   7.078  0.00  0.00    +0.000 F 
ATOM     29  C   UNL     1      45.918   1.720   8.544  0.00  0.00    +0.000 A 
ENDBRANCH  20  22
ENDBRANCH   1  16
TORSDOF 4
ENDMDL
MODEL 4
REMARK VINA RESULT:    -8.784      1.289      1.483
REMARK INTER + INTRA:         -11.235
REMARK INTER:                 -10.485
REMARK INTRA:                  -0.750
REMARK UNBOUND:                -0.397
REMARK  Name = 
REMARK  5 active torsions:
REMARK  status: ('A' for Active; 'I' for Inactive)
REMARK    1  A    between atoms: C_1  and  C_2
REMARK    2  A    between atoms: C_4  and  C_5
REMARK    3  A    between atoms: N_10  and  C_11
REMARK    4  A    between atoms: C_11  and  C_12
REMARK    5  A    between atoms: C_16  and  C_17
REMARK                            x       y       z     vdW  Elec       q    Type
REMARK                         _______ _______ _______ _____ _____    ______ ____
ROOT
ATOM      1  C   UNL     1      44.530   6.463  12.398  0.00  0.00    +0.000 C 
ENDROOT
BRANCH   1   8
ATOM      2  C   UNL     1      48.938  10.461  12.070  0.00  0.00    +0.000 C 
ATOM      3  C   UNL     1      48.322   9.198  12.595  0.00  0.00    +0.000 A 
ATOM      4  C   UNL     1      48.891   8.516  13.639  0.00  0.00    +0.000 A 
ATOM      5  C   UNL     1      48.231   7.372  14.021  0.00  0.00    +0.000 A 
ATOM      6  N   UNL     1      47.100   6.900  13.436  0.00  0.00    +0.000 NA
ATOM      7  C   UNL     1      46.638   7.620  12.409  0.00  0.00    +0.000 A 
ATOM      8  N   UNL     1      45.543   7.194  11.676  0.00  0.00    +0.000 N 
ATOM      9  N   UNL     1      47.199   8.762  11.983  0.00  0.00    +0.000 NA
ATOM     10  H   UNL     1      45.220   7.987  11.134  0.00  0.00    +0.000 HD
BRANCH   5  11
ATOM     11  C   UNL     1      48.793   6.567  15.151  0.00  0.00    +0.000 C 
ATOM     12  N   UNL     1      47.893   5.810  15.850  0.00  0.00    +0.000 N 
ATOM     13  O   UNL     1      49.983   6.577  15.438  0.00  0.00    +0.000 OA
ATOM     14  H   UNL     1      46.921   5.791  15.569  0.00  0.00    +0.000 HD
ATOM     15  H   UNL     1      48.222   5.222  16.602  0.00  0.00    +0.000 HD
ENDBRANCH   5  11
ENDBRANCH   1   8
BRANCH   1  16
ATOM     16  C   UNL     1      44.288   5.132  11.723  0.00  0.00    +0.000 A 
ATOM     17  C   UNL     1      43.338   4.230  12.205  0.00  0.00    +0.000 A 
ATOM     18  C   UNL     1      43.171   3.029  11.535  0.00  0.00    +0.000 A 
ATOM     19  N   UNL     1      43.874   2.669  10.438  0.00  0.00    +0.000 NA
ATOM     20  C   UNL     1      44.799   3.539   9.966  0.00  0.00    +0.000 A 
ATOM     21  C   UNL     1      45.009   4.779  10.575  0.00  0.00    +0.000 A 
BRANCH  20  22
ATOM     22  C   UNL     1      45.583   3.082   8.799  0.00  0.00    +0.000 A 
ATOM     23  C   UNL     1      46.023   3.988   7.811  0.00  0.00    +0.000 A 
ATOM     24  C   UNL     1      46.761   3.559   6.701  0.00  0.00    +0.000 A 
ATOM     25  C   UNL     1      47.064   2.211   6.560  0.00  0.00    +0.000 A 
ATOM     26  F   UNL     1      47.770   1.798   5.499  0.00  0.00    +0.000 F 
ATOM     27  C   UNL     1      46.633   1.300   7.511  0.00  0.00    +0.000 A 
ATOM     28  F   UNL     1      46.917  -0.004   7.378  0.00  0.00    +0.000 F 
ATOM     29  C   UNL     1      45.900   1.722   8.617  0.00  0.00    +0.000 A 
ENDBRANCH  20  22
ENDBRANCH   1  16
TORSDOF 4
ENDMDL
MODEL 5
REMARK VINA RESULT:    -8.642      2.253      3.178
REMARK INTER + INTRA:         -11.060
REMARK INTER:                 -10.344
REMARK INTRA:                  -0.716
REMARK UNBOUND:                -0.397
REMARK  Name = 
REMARK  5 active torsions:
REMARK  status: ('A' for Active; 'I' for Inactive)
REMARK    1  A    between atoms: C_1  and  C_2
REMARK    2  A    between atoms: C_4  and  C_5
REMARK    3  A    between atoms: N_10  and  C_11
REMARK    4  A    between atoms: C_11  and  C_12
REMARK    5  A    between atoms: C_16  and  C_17
REMARK                            x       y       z     vdW  Elec       q    Type
REMARK                         _______ _______ _______ _____ _____    ______ ____
ROOT
ATOM      1  C   UNL     1      43.931   6.215  12.292  0.00  0.00    +0.000 C 
ENDROOT
BRANCH   1   8
ATOM      2  C   UNL     1      49.557   7.870  13.353  0.00  0.00    +0.000 C 
ATOM      3  C   UNL     1      48.133   8.156  12.981  0.00  0.00    +0.000 A 
ATOM      4  C   UNL     1      47.762   9.386  12.501  0.00  0.00    +0.000 A 
ATOM      5  C   UNL     1      46.426   9.519  12.202  0.00  0.00    +0.000 A 
ATOM      6  N   UNL     1      45.498   8.542  12.359  0.00  0.00    +0.000 NA
ATOM      7  C   UNL     1      45.952   7.389  12.858  0.00  0.00    +0.000 A 
ATOM      8  N   UNL     1      45.086   6.346  13.147  0.00  0.00    +0.000 N 
ATOM      9  N   UNL     1      47.240   7.157  13.155  0.00  0.00    +0.000 NA
ATOM     10  H   UNL     1      45.651   5.514  13.266  0.00  0.00    +0.000 HD
BRANCH   5  11
ATOM     11  C   UNL     1      45.941  10.835  11.679  0.00  0.00    +0.000 C 
ATOM     12  N   UNL     1      46.813  11.515  10.873  0.00  0.00    +0.000 N 
ATOM     13  O   UNL     1      44.834  11.283  11.948  0.00  0.00    +0.000 OA
ATOM     14  H   UNL     1      47.708  11.106  10.636  0.00  0.00    +0.000 HD
ATOM     15  H   UNL     1      46.525  12.393  10.465  0.00  0.00    +0.000 HD
ENDBRANCH   5  11
ENDBRANCH   1   8
BRANCH   1  16
ATOM     16  C   UNL     1      43.923   4.839  11.663  0.00  0.00    +0.000 A 
ATOM     17  C   UNL     1      43.168   3.795  12.201  0.00  0.00    +0.000 A 
ATOM     18  C   UNL     1      43.209   2.562  11.570  0.00  0.00    +0.000 A 
ATOM     19  N   UNL     1      43.938   2.300  10.463  0.00  0.00    +0.000 NA
ATOM     20  C   UNL     1      44.674   3.309   9.938  0.00  0.00    +0.000 A 
ATOM     21  C   UNL     1      44.667   4.586  10.504  0.00  0.00    +0.000 A 
BRANCH  20  22
ATOM     22  C   UNL     1      45.499   2.964   8.760  0.00  0.00    +0.000 A 
ATOM     23  C   UNL     1      45.897   3.948   7.830  0.00  0.00    +0.000 A 
ATOM     24  C   UNL     1      46.674   3.625   6.710  0.00  0.00    +0.000 A 
ATOM     25  C   UNL     1      47.059   2.308   6.502  0.00  0.00    +0.000 A 
ATOM     26  F   UNL     1      47.802   1.996   5.432  0.00  0.00    +0.000 F 
ATOM     27  C   UNL     1      46.672   1.321   7.395  0.00  0.00    +0.000 A 
ATOM     28  F   UNL     1      47.035   0.046   7.196  0.00  0.00    +0.000 F 
ATOM     29  C   UNL     1      45.900   1.637   8.511  0.00  0.00    +0.000 A 
ENDBRANCH  20  22
ENDBRANCH   1  16
TORSDOF 4
ENDMDL
MODEL 6
REMARK VINA RESULT:    -8.630      2.485      3.651
REMARK INTER + INTRA:         -11.046
REMARK INTER:                 -10.502
REMARK INTRA:                  -0.544
REMARK UNBOUND:                -0.397
REMARK  Name = 
REMARK  5 active torsions:
REMARK  status: ('A' for Active; 'I' for Inactive)
REMARK    1  A    between atoms: C_1  and  C_2
REMARK    2  A    between atoms: C_4  and  C_5
REMARK    3  A    between atoms: N_10  and  C_11
REMARK    4  A    between atoms: C_11  and  C_12
REMARK    5  A    between atoms: C_16  and  C_17
REMARK                            x       y       z     vdW  Elec       q    Type
REMARK                         _______ _______ _______ _____ _____    ______ ____
ROOT
ATOM      1  C   UNL     1      46.144   4.879  14.244  0.00  0.00    +0.000 C 
ENDROOT
BRANCH   1   8
ATOM      2  C   UNL     1      50.380   1.762  17.047  0.00  0.00    +0.000 C 
ATOM      3  C   UNL     1      49.271   2.771  17.015  0.00  0.00    +0.000 A 
ATOM      4  C   UNL     1      49.022   3.581  18.092  0.00  0.00    +0.000 A 
ATOM      5  C   UNL     1      47.975   4.459  17.936  0.00  0.00    +0.000 A 
ATOM      6  N   UNL     1      47.206   4.553  16.822  0.00  0.00    +0.000 NA
ATOM      7  C   UNL     1      47.510   3.703  15.836  0.00  0.00    +0.000 A 
ATOM      8  N   UNL     1      46.741   3.642  14.685  0.00  0.00    +0.000 N 
ATOM      9  N   UNL     1      48.527   2.831  15.888  0.00  0.00    +0.000 NA
ATOM     10  H   UNL     1      47.281   3.136  13.993  0.00  0.00    +0.000 HD
BRANCH   5  11
ATOM     11  C   UNL     1      47.635   5.374  19.071  0.00  0.00    +0.000 C 
ATOM     12  N   UNL     1      47.897   4.891  20.324  0.00  0.00    +0.000 N 
ATOM     13  O   UNL     1      47.156   6.486  18.900  0.00  0.00    +0.000 OA
ATOM     14  H   UNL     1      48.328   3.982  20.438  0.00  0.00    +0.000 HD
ATOM     15  H   UNL     1      47.718   5.478  21.126  0.00  0.00    +0.000 HD
ENDBRANCH   5  11
ENDBRANCH   1   8
BRANCH   1  16
ATOM     16  C   UNL     1      45.231   4.610  13.069  0.00  0.00    +0.000 A 
ATOM     17  C   UNL     1      43.848   4.765  13.168  0.00  0.00    +0.000 A 
ATOM     18  C   UNL     1      43.074   4.501  12.049  0.00  0.00    +0.000 A 
ATOM     19  N   UNL     1      43.574   4.096  10.861  0.00  0.00    +0.000 NA
ATOM     20  C   UNL     1      44.916   3.940  10.759  0.00  0.00    +0.000 A 
ATOM     21  C   UNL     1      45.764   4.210  11.836  0.00  0.00    +0.000 A 
BRANCH  20  22
ATOM     22  C   UNL     1      45.414   3.444   9.459  0.00  0.00    +0.000 A 
ATOM     23  C   UNL     1      45.702   4.328   8.397  0.00  0.00    +0.000 A 
ATOM     24  C   UNL     1      46.169   3.862   7.162  0.00  0.00    +0.000 A 
ATOM     25  C   UNL     1      46.349   2.499   6.970  0.00  0.00    +0.000 A 
ATOM     26  F   UNL     1      46.796   2.050   5.788  0.00  0.00    +0.000 F 
ATOM     27  C   UNL     1      46.063   1.609   7.992  0.00  0.00    +0.000 A 
ATOM     28  F   UNL     1      46.229   0.291   7.810  0.00  0.00    +0.000 F 
ATOM     29  C   UNL     1      45.600   2.068   9.223  0.00  0.00    +0.000 A 
ENDBRANCH  20  22
ENDBRANCH   1  16
TORSDOF 4
ENDMDL
MODEL 7
REMARK VINA RESULT:    -8.065      3.834      7.364
REMARK INTER + INTRA:         -10.349
REMARK INTER:                  -9.555
REMARK INTRA:                  -0.793
REMARK UNBOUND:                -0.397
REMARK  Name = 
REMARK  5 active torsions:
REMARK  status: ('A' for Active; 'I' for Inactive)
REMARK    1  A    between atoms: C_1  and  C_2
REMARK    2  A    between atoms: C_4  and  C_5
REMARK    3  A    between atoms: N_10  and  C_11
REMARK    4  A    between atoms: C_11  and  C_12
REMARK    5  A    between atoms: C_16  and  C_17
REMARK                            x       y       z     vdW  Elec       q    Type
REMARK                         _______ _______ _______ _____ _____    ______ ____
ROOT
ATOM      1  C   UNL     1      45.240   7.394  11.778  0.00  0.00    +0.000 C 
ENDROOT
BRANCH   1   8
ATOM      2  C   UNL     1      46.116   3.202   7.634  0.00  0.00    +0.000 C 
ATOM      3  C   UNL     1      45.485   3.718   8.892  0.00  0.00    +0.000 A 
ATOM      4  C   UNL     1      44.774   2.887   9.719  0.00  0.00    +0.000 A 
ATOM      5  C   UNL     1      44.242   3.486  10.837  0.00  0.00    +0.000 A 
ATOM      6  N   UNL     1      44.373   4.801  11.144  0.00  0.00    +0.000 NA
ATOM      7  C   UNL     1      45.060   5.535  10.264  0.00  0.00    +0.000 A 
ATOM      8  N   UNL     1      45.185   6.906  10.422  0.00  0.00    +0.000 N 
ATOM      9  N   UNL     1      45.636   5.035   9.161  0.00  0.00    +0.000 NA
ATOM     10  H   UNL     1      45.932   7.209   9.808  0.00  0.00    +0.000 HD
BRANCH   5  11
ATOM     11  C   UNL     1      43.447   2.645  11.787  0.00  0.00    +0.000 C 
ATOM     12  N   UNL     1      43.508   3.014  13.103  0.00  0.00    +0.000 N 
ATOM     13  O   UNL     1      42.779   1.688  11.418  0.00  0.00    +0.000 OA
ATOM     14  H   UNL     1      44.037   3.831  13.377  0.00  0.00    +0.000 HD
ATOM     15  H   UNL     1      42.964   2.502  13.783  0.00  0.00    +0.000 HD
ENDBRANCH   5  11
ENDBRANCH   1   8
BRANCH   1  16
ATOM     16  C   UNL     1      46.596   7.086  12.373  0.00  0.00    +0.000 A 
ATOM     17  C   UNL     1      47.777   7.374  11.687  0.00  0.00    +0.000 A 
ATOM     18  C   UNL     1      48.983   7.065  12.294  0.00  0.00    +0.000 A 
ATOM     19  N   UNL     1      49.093   6.495  13.514  0.00  0.00    +0.000 NA
ATOM     20  C   UNL     1      47.950   6.210  14.184  0.00  0.00    +0.000 A 
ATOM     21  C   UNL     1      46.697   6.513  13.648  0.00  0.00    +0.000 A 
BRANCH  20  22
ATOM     22  C   UNL     1      48.116   5.537  15.490  0.00  0.00    +0.000 A 
ATOM     23  C   UNL     1      49.099   5.955  16.411  0.00  0.00    +0.000 A 
ATOM     24  C   UNL     1      49.263   5.318  17.647  0.00  0.00    +0.000 A 
ATOM     25  C   UNL     1      48.446   4.246  17.978  0.00  0.00    +0.000 A 
ATOM     26  F   UNL     1      48.601   3.634  19.160  0.00  0.00    +0.000 F 
ATOM     27  C   UNL     1      47.480   3.808  17.086  0.00  0.00    +0.000 A 
ATOM     28  F   UNL     1      46.692   2.768  17.396  0.00  0.00    +0.000 F 
ATOM     29  C   UNL     1      47.312   4.439  15.856  0.00  0.00    +0.000 A 
ENDBRANCH  20  22
ENDBRANCH   1  16
TORSDOF 4
ENDMDL
MODEL 8
REMARK VINA RESULT:    -7.844      3.086      5.517
REMARK INTER + INTRA:         -10.076
REMARK INTER:                  -9.230
REMARK INTRA:                  -0.846
REMARK UNBOUND:                -0.397
REMARK  Name = 
REMARK  5 active torsions:
REMARK  status: ('A' for Active; 'I' for Inactive)
REMARK    1  A    between atoms: C_1  and  C_2
REMARK    2  A    between atoms: C_4  and  C_5
REMARK    3  A    between atoms: N_10  and  C_11
REMARK    4  A    between atoms: C_11  and  C_12
REMARK    5  A    between atoms: C_16  and  C_17
REMARK                            x       y       z     vdW  Elec       q    Type
REMARK                         _______ _______ _______ _____ _____    ______ ____
ROOT
ATOM      1  C   UNL     1      49.829   7.077  14.842  0.00  0.00    +0.000 C 
ENDROOT
BRANCH   1   8
ATOM      2  C   UNL     1      47.397   5.635  20.088  0.00  0.00    +0.000 C 
ATOM      3  C   UNL     1      48.201   5.320  18.862  0.00  0.00    +0.000 A 
ATOM      4  C   UNL     1      48.580   4.033  18.578  0.00  0.00    +0.000 A 
ATOM      5  C   UNL     1      49.318   3.882  17.427  0.00  0.00    +0.000 A 
ATOM      6  N   UNL     1      49.681   4.896  16.602  0.00  0.00    +0.000 NA
ATOM      7  C   UNL     1      49.287   6.116  16.979  0.00  0.00    +0.000 A 
ATOM      8  N   UNL     1      49.671   7.241  16.267  0.00  0.00    +0.000 N 
ATOM      9  N   UNL     1      48.543   6.359  18.069  0.00  0.00    +0.000 NA
ATOM     10  H   UNL     1      49.072   8.001  16.565  0.00  0.00    +0.000 HD
BRANCH   5  11
ATOM     11  C   UNL     1      49.776   2.507  17.050  0.00  0.00    +0.000 C 
ATOM     12  N   UNL     1      50.813   2.001  17.786  0.00  0.00    +0.000 N 
ATOM     13  O   UNL     1      49.260   1.866  16.144  0.00  0.00    +0.000 OA
ATOM     14  H   UNL     1      51.197   2.536  18.554  0.00  0.00    +0.000 HD
ATOM     15  H   UNL     1      51.141   1.065  17.597  0.00  0.00    +0.000 HD
ENDBRANCH   5  11
ENDBRANCH   1   8
BRANCH   1  16
ATOM     16  C   UNL     1      48.505   7.329  14.155  0.00  0.00    +0.000 A 
ATOM     17  C   UNL     1      47.899   8.586  14.175  0.00  0.00    +0.000 A 
ATOM     18  C   UNL     1      46.687   8.742  13.523  0.00  0.00    +0.000 A 
ATOM     19  N   UNL     1      46.046   7.750  12.866  0.00  0.00    +0.000 NA
ATOM     20  C   UNL     1      46.628   6.527  12.845  0.00  0.00    +0.000 A 
ATOM     21  C   UNL     1      47.861   6.296  13.460  0.00  0.00    +0.000 A 
BRANCH  20  22
ATOM     22  C   UNL     1      45.866   5.459  12.164  0.00  0.00    +0.000 A 
ATOM     23  C   UNL     1      45.432   4.310  12.858  0.00  0.00    +0.000 A 
ATOM     24  C   UNL     1      44.715   3.293  12.216  0.00  0.00    +0.000 A 
ATOM     25  C   UNL     1      44.426   3.410  10.863  0.00  0.00    +0.000 A 
ATOM     26  F   UNL     1      43.739   2.439  10.246  0.00  0.00    +0.000 F 
ATOM     27  C   UNL     1      44.850   4.524  10.156  0.00  0.00    +0.000 A 
ATOM     28  F   UNL     1      44.580   4.639   8.847  0.00  0.00    +0.000 F 
ATOM     29  C   UNL     1      45.563   5.538  10.791  0.00  0.00    +0.000 A 
ENDBRANCH  20  22
ENDBRANCH   1  16
TORSDOF 4
ENDMDL
MODEL 9
REMARK VINA RESULT:    -7.436      3.292      5.003
REMARK INTER + INTRA:          -9.573
REMARK INTER:                  -8.985
REMARK INTRA:                  -0.588
REMARK UNBOUND:                -0.397
REMARK  Name = 
REMARK  5 active torsions:
REMARK  status: ('A' for Active; 'I' for Inactive)
REMARK    1  A    between atoms: C_1  and  C_2
REMARK    2  A    between atoms: C_4  and  C_5
REMARK    3  A    between atoms: N_10  and  C_11
REMARK    4  A    between atoms: C_11  and  C_12
REMARK    5  A    between atoms: C_16  and  C_17
REMARK                            x       y       z     vdW  Elec       q    Type
REMARK                         _______ _______ _______ _____ _____    ______ ____
ROOT
ATOM      1  C   UNL     1      48.342   7.606  14.110  0.00  0.00    +0.000 C 
ENDROOT
BRANCH   1   8
ATOM      2  C   UNL     1      49.004   3.252  18.125  0.00  0.00    +0.000 C 
ATOM      3  C   UNL     1      49.500   4.438  17.354  0.00  0.00    +0.000 A 
ATOM      4  C   UNL     1      50.822   4.802  17.391  0.00  0.00    +0.000 A 
ATOM      5  C   UNL     1      51.145   5.911  16.645  0.00  0.00    +0.000 A 
ATOM      6  N   UNL     1      50.260   6.636  15.914  0.00  0.00    +0.000 NA
ATOM      7  C   UNL     1      48.992   6.218  15.963  0.00  0.00    +0.000 A 
ATOM      8  N   UNL     1      47.983   6.927  15.331  0.00  0.00    +0.000 N 
ATOM      9  N   UNL     1      48.586   5.134  16.642  0.00  0.00    +0.000 NA
ATOM     10  H   UNL     1      47.176   6.317  15.282  0.00  0.00    +0.000 HD
BRANCH   5  11
ATOM     11  C   UNL     1      52.568   6.376  16.638  0.00  0.00    +0.000 C 
ATOM     12  N   UNL     1      53.031   6.860  15.445  0.00  0.00    +0.000 N 
ATOM     13  O   UNL     1      53.280   6.332  17.632  0.00  0.00    +0.000 OA
ATOM     14  H   UNL     1      52.412   6.921  14.647  0.00  0.00    +0.000 HD
ATOM     15  H   UNL     1      53.974   7.219  15.392  0.00  0.00    +0.000 HD
ENDBRANCH   5  11
ENDBRANCH   1   8
BRANCH   1  16
ATOM     16  C   UNL     1      47.154   7.624  13.173  0.00  0.00    +0.000 A 
ATOM     17  C   UNL     1      46.343   8.752  13.044  0.00  0.00    +0.000 A 
ATOM     18  C   UNL     1      45.273   8.696  12.166  0.00  0.00    +0.000 A 
ATOM     19  N   UNL     1      44.958   7.611  11.424  0.00  0.00    +0.000 NA
ATOM     20  C   UNL     1      45.740   6.512  11.547  0.00  0.00    +0.000 A 
ATOM     21  C   UNL     1      46.850   6.499  12.394  0.00  0.00    +0.000 A 
BRANCH  20  22
ATOM     22  C   UNL     1      45.326   5.331  10.758  0.00  0.00    +0.000 A 
ATOM     23  C   UNL     1      45.682   5.196   9.399  0.00  0.00    +0.000 A 
ATOM     24  C   UNL     1      45.289   4.083   8.647  0.00  0.00    +0.000 A 
ATOM     25  C   UNL     1      44.526   3.088   9.245  0.00  0.00    +0.000 A 
ATOM     26  F   UNL     1      44.149   2.021   8.527  0.00  0.00    +0.000 F 
ATOM     27  C   UNL     1      44.154   3.203  10.575  0.00  0.00    +0.000 A 
ATOM     28  F   UNL     1      43.412   2.249  11.156  0.00  0.00    +0.000 F 
ATOM     29  C   UNL     1      44.544   4.308  11.327  0.00  0.00    +0.000 A 
ENDBRANCH  20  22
ENDBRANCH   1  16
TORSDOF 4
ENDMDL
