MODEL 1
REMARK VINA RESULT:    -9.266      0.000      0.000
REMARK INTER + INTRA:         -12.681
REMARK INTER:                 -11.432
REMARK INTRA:                  -1.248
REMARK UNBOUND:                -1.248
REMARK  Name = 
REMARK  4 active torsions:
REMARK  status: ('A' for Active; 'I' for Inactive)
REMARK    1  A    between atoms: C_2  and  C_4
REMARK    2  A    between atoms: N_8  and  C_9
REMARK    3  A    between atoms: C_9  and  C_10
REMARK    4  A    between atoms: C_14  and  C_15
REMARK                            x       y       z     vdW  Elec       q    Type
REMARK                         _______ _______ _______ _____ _____    ______ ____
ROOT
ATOM      1  C   UNL     1      43.782   4.873  11.358  0.00  0.00    +0.000 C 
ATOM      2  C   UNL     1      42.424   5.160  11.989  0.00  0.00    +0.000 C 
ATOM      3  C   UNL     1      43.008   6.129  11.015  0.00  0.00    +0.000 C 
ENDROOT
BRANCH   1   8
ATOM      4  C   UNL     1      46.589   2.776   7.506  0.00  0.00    +0.000 A 
ATOM      5  C   UNL     1      46.215   4.108   7.676  0.00  0.00    +0.000 A 
ATOM      6  C   UNL     1      45.313   4.444   8.687  0.00  0.00    +0.000 A 
ATOM      7  C   UNL     1      44.804   3.451   9.512  0.00  0.00    +0.000 A 
ATOM      8  N   UNL     1      43.814   3.687  10.476  0.00  0.00    +0.000 N 
ATOM      9  N   UNL     1      45.167   2.158   9.364  0.00  0.00    +0.000 NA
ATOM     10  C   UNL     1      46.046   1.843   8.369  0.00  0.00    +0.000 A 
ATOM     11  H   UNL     1      43.706   2.795  10.958  0.00  0.00    +0.000 HD
BRANCH   4  13
ATOM     12  N   UNL     1      47.397   2.948   5.223  0.00  0.00    +0.000 N 
ATOM     13  C   UNL     1      47.488   2.318   6.431  0.00  0.00    +0.000 C 
ATOM     14  O   UNL     1      48.298   1.419   6.616  0.00  0.00    +0.000 OA
ATOM     15  H   UNL     1      48.071   2.672   4.518  0.00  0.00    +0.000 HD
ATOM     16  H   UNL     1      46.922   3.830   5.096  0.00  0.00    +0.000 HD
ENDBRANCH   4  13
ENDBRANCH   1   8
BRANCH   1  17
ATOM     17  C   UNL     1      45.034   4.995  12.220  0.00  0.00    +0.000 A 
ATOM     18  C   UNL     1      45.523   3.926  12.985  0.00  0.00    +0.000 A 
ATOM     19  C   UNL     1      46.757   4.004  13.631  0.00  0.00    +0.000 A 
ATOM     20  C   UNL     1      47.545   5.148  13.496  0.00  0.00    +0.000 A 
ATOM     21  C   UNL     1      47.108   6.242  12.733  0.00  0.00    +0.000 A 
ATOM     22  C   UNL     1      45.829   6.154  12.151  0.00  0.00    +0.000 A 
BRANCH  21  23
ATOM     23  C   UNL     1      47.991   7.387  12.419  0.00  0.00    +0.000 A 
ATOM     24  C   UNL     1      49.374   7.198  12.240  0.00  0.00    +0.000 A 
ATOM     25  C   UNL     1      50.192   8.240  11.810  0.00  0.00    +0.000 A 
ATOM     26  F   UNL     1      51.499   8.014  11.625  0.00  0.00    +0.000 F 
ATOM     27  C   UNL     1      49.673   9.495  11.541  0.00  0.00    +0.000 A 
ATOM     28  C   UNL     1      48.317   9.701  11.733  0.00  0.00    +0.000 A 
ATOM     29  F   UNL     1      47.789  10.902  11.460  0.00  0.00    +0.000 F 
ATOM     30  C   UNL     1      47.482   8.675  12.176  0.00  0.00    +0.000 A 
ENDBRANCH  21  23
ENDBRANCH   1  17
TORSDOF 4
ENDMDL
MODEL 2
REMARK VINA RESULT:    -9.227      2.707      3.924
REMARK INTER + INTRA:         -12.633
REMARK INTER:                 -12.009
REMARK INTRA:                  -0.623
REMARK UNBOUND:                -1.248
REMARK  Name = 
REMARK  4 active torsions:
REMARK  status: ('A' for Active; 'I' for Inactive)
REMARK    1  A    between atoms: C_2  and  C_4
REMARK    2  A    between atoms: N_8  and  C_9
REMARK    3  A    between atoms: C_9  and  C_10
REMARK    4  A    between atoms: C_14  and  C_15
REMARK                            x       y       z     vdW  Elec       q    Type
REMARK                         _______ _______ _______ _____ _____    ______ ____
ROOT
ATOM      1  C   UNL     1      43.957   4.945  11.526  0.00  0.00    +0.000 C 
ATOM      2  C   UNL     1      42.835   5.048  12.553  0.00  0.00    +0.000 C 
ATOM      3  C   UNL     1      42.880   6.004  11.407  0.00  0.00    +0.000 C 
ENDROOT
BRANCH   1   8
ATOM      4  C   UNL     1      46.403   2.707   7.511  0.00  0.00    +0.000 A 
ATOM      5  C   UNL     1      45.982   4.029   7.637  0.00  0.00    +0.000 A 
ATOM      6  C   UNL     1      45.188   4.396   8.725  0.00  0.00    +0.000 A 
ATOM      7  C   UNL     1      44.831   3.443   9.668  0.00  0.00    +0.000 A 
ATOM      8  N   UNL     1      43.949   3.702  10.726  0.00  0.00    +0.000 N 
ATOM      9  N   UNL     1      45.242   2.160   9.562  0.00  0.00    +0.000 NA
ATOM     10  C   UNL     1      46.014   1.814   8.492  0.00  0.00    +0.000 A 
ATOM     11  H   UNL     1      43.945   2.843  11.275  0.00  0.00    +0.000 HD
BRANCH   4  13
ATOM     12  N   UNL     1      47.199   2.971   5.232  0.00  0.00    +0.000 N 
ATOM     13  C   UNL     1      47.194   2.213   6.369  0.00  0.00    +0.000 C 
ATOM     14  O   UNL     1      47.837   1.174   6.438  0.00  0.00    +0.000 OA
ATOM     15  H   UNL     1      47.804   2.658   4.483  0.00  0.00    +0.000 HD
ATOM     16  H   UNL     1      46.883   3.930   5.208  0.00  0.00    +0.000 HD
ENDBRANCH   4  13
ENDBRANCH   1   8
BRANCH   1  17
ATOM     17  C   UNL     1      45.365   5.372  11.929  0.00  0.00    +0.000 A 
ATOM     18  C   UNL     1      46.077   6.357  11.230  0.00  0.00    +0.000 A 
ATOM     19  C   UNL     1      47.289   6.852  11.711  0.00  0.00    +0.000 A 
ATOM     20  C   UNL     1      47.799   6.390  12.926  0.00  0.00    +0.000 A 
ATOM     21  C   UNL     1      47.121   5.413  13.670  0.00  0.00    +0.000 A 
ATOM     22  C   UNL     1      45.935   4.889  13.121  0.00  0.00    +0.000 A 
BRANCH  21  23
ATOM     23  C   UNL     1      47.535   5.039  15.041  0.00  0.00    +0.000 A 
ATOM     24  C   UNL     1      48.360   5.890  15.798  0.00  0.00    +0.000 A 
ATOM     25  C   UNL     1      48.644   5.615  17.134  0.00  0.00    +0.000 A 
ATOM     26  F   UNL     1      49.411   6.463  17.830  0.00  0.00    +0.000 F 
ATOM     27  C   UNL     1      48.120   4.498  17.763  0.00  0.00    +0.000 A 
ATOM     28  C   UNL     1      47.323   3.640  17.023  0.00  0.00    +0.000 A 
ATOM     29  F   UNL     1      46.790   2.563  17.616  0.00  0.00    +0.000 F 
ATOM     30  C   UNL     1      47.039   3.889  15.680  0.00  0.00    +0.000 A 
ENDBRANCH  21  23
ENDBRANCH   1  17
TORSDOF 4
ENDMDL
MODEL 3
REMARK VINA RESULT:    -7.641      4.107      7.143
REMARK INTER + INTRA:         -10.676
REMARK INTER:                  -9.634
REMARK INTRA:                  -1.042
REMARK UNBOUND:                -1.248
REMARK  Name = 
REMARK  4 active torsions:
REMARK  status: ('A' for Active; 'I' for Inactive)
REMARK    1  A    between atoms: C_2  and  C_4
REMARK    2  A    between atoms: N_8  and  C_9
REMARK    3  A    between atoms: C_9  and  C_10
REMARK    4  A    between atoms: C_14  and  C_15
REMARK                            x       y       z     vdW  Elec       q    Type
REMARK                         _______ _______ _______ _____ _____    ______ ____
ROOT
ATOM      1  C   UNL     1      46.210   5.100  13.352  0.00  0.00    +0.000 C 
ATOM      2  C   UNL     1      46.220   4.188  14.573  0.00  0.00    +0.000 C 
ATOM      3  C   UNL     1      47.356   4.141  13.606  0.00  0.00    +0.000 C 
ENDROOT
BRANCH   1   8
ATOM      4  C   UNL     1      48.444   9.476  11.629  0.00  0.00    +0.000 A 
ATOM      5  C   UNL     1      49.012   8.210  11.758  0.00  0.00    +0.000 A 
ATOM      6  C   UNL     1      48.297   7.200  12.403  0.00  0.00    +0.000 A 
ATOM      7  C   UNL     1      47.030   7.466  12.904  0.00  0.00    +0.000 A 
ATOM      8  N   UNL     1      46.293   6.544  13.659  0.00  0.00    +0.000 N 
ATOM      9  N   UNL     1      46.465   8.687  12.775  0.00  0.00    +0.000 NA
ATOM     10  C   UNL     1      47.177   9.666  12.146  0.00  0.00    +0.000 A 
ATOM     11  H   UNL     1      45.394   6.998  13.815  0.00  0.00    +0.000 HD
BRANCH   4  13
ATOM     12  N   UNL     1      48.403  11.478  10.254  0.00  0.00    +0.000 N 
ATOM     13  C   UNL     1      49.145  10.620  11.015  0.00  0.00    +0.000 C 
ATOM     14  O   UNL     1      50.341  10.806  11.194  0.00  0.00    +0.000 OA
ATOM     15  H   UNL     1      48.882  12.297   9.900  0.00  0.00    +0.000 HD
ATOM     16  H   UNL     1      47.393  11.497  10.271  0.00  0.00    +0.000 HD
ENDBRANCH   4  13
ENDBRANCH   1   8
BRANCH   1  17
ATOM     17  C   UNL     1      45.238   4.798  12.216  0.00  0.00    +0.000 A 
ATOM     18  C   UNL     1      44.002   5.449  12.097  0.00  0.00    +0.000 A 
ATOM     19  C   UNL     1      43.204   5.284  10.965  0.00  0.00    +0.000 A 
ATOM     20  C   UNL     1      43.645   4.484   9.910  0.00  0.00    +0.000 A 
ATOM     21  C   UNL     1      44.879   3.818   9.974  0.00  0.00    +0.000 A 
ATOM     22  C   UNL     1      45.627   3.956  11.158  0.00  0.00    +0.000 A 
BRANCH  21  23
ATOM     23  C   UNL     1      45.458   3.118   8.806  0.00  0.00    +0.000 A 
ATOM     24  C   UNL     1      45.844   3.834   7.658  0.00  0.00    +0.000 A 
ATOM     25  C   UNL     1      46.513   3.207   6.610  0.00  0.00    +0.000 A 
ATOM     26  F   UNL     1      46.889   3.929   5.547  0.00  0.00    +0.000 F 
ATOM     27  C   UNL     1      46.825   1.859   6.664  0.00  0.00    +0.000 A 
ATOM     28  C   UNL     1      46.433   1.136   7.778  0.00  0.00    +0.000 A 
ATOM     29  F   UNL     1      46.741  -0.165   7.860  0.00  0.00    +0.000 F 
ATOM     30  C   UNL     1      45.748   1.742   8.832  0.00  0.00    +0.000 A 
ENDBRANCH  21  23
ENDBRANCH   1  17
TORSDOF 4
ENDMDL
MODEL 4
REMARK VINA RESULT:    -7.511      4.886      8.128
REMARK INTER + INTRA:         -10.516
REMARK INTER:                 -10.554
REMARK INTRA:                   0.039
REMARK UNBOUND:                -1.248
REMARK  Name = 
REMARK  4 active torsions:
REMARK  status: ('A' for Active; 'I' for Inactive)
REMARK    1  A    between atoms: C_2  and  C_4
REMARK    2  A    between atoms: N_8  and  C_9
REMARK    3  A    between atoms: C_9  and  C_10
REMARK    4  A    between atoms: C_14  and  C_15
REMARK                            x       y       z     vdW  Elec       q    Type
REMARK                         _______ _______ _______ _____ _____    ______ ____
ROOT
ATOM      1  C   UNL     1      46.549   5.574  12.900  0.00  0.00    +0.000 C 
ATOM      2  C   UNL     1      47.565   6.614  12.442  0.00  0.00    +0.000 C 
ATOM      3  C   UNL     1      46.483   7.005  13.393  0.00  0.00    +0.000 C 
ENDROOT
BRANCH   1   8
ATOM      4  C   UNL     1      48.202   4.550  17.729  0.00  0.00    +0.000 A 
ATOM      5  C   UNL     1      48.438   5.687  16.959  0.00  0.00    +0.000 A 
ATOM      6  C   UNL     1      48.051   5.699  15.618  0.00  0.00    +0.000 A 
ATOM      7  C   UNL     1      47.434   4.584  15.070  0.00  0.00    +0.000 A 
ATOM      8  N   UNL     1      47.115   4.474  13.710  0.00  0.00    +0.000 N 
ATOM      9  N   UNL     1      47.190   3.480  15.810  0.00  0.00    +0.000 NA
ATOM     10  C   UNL     1      47.577   3.480  17.118  0.00  0.00    +0.000 A 
ATOM     11  H   UNL     1      46.615   3.589  13.633  0.00  0.00    +0.000 HD
BRANCH   4  13
ATOM     12  N   UNL     1      48.306   3.264  19.787  0.00  0.00    +0.000 N 
ATOM     13  C   UNL     1      48.627   4.421  19.136  0.00  0.00    +0.000 C 
ATOM     14  O   UNL     1      49.257   5.308  19.696  0.00  0.00    +0.000 OA
ATOM     15  H   UNL     1      48.666   3.160  20.728  0.00  0.00    +0.000 HD
ATOM     16  H   UNL     1      48.001   2.428  19.309  0.00  0.00    +0.000 HD
ENDBRANCH   4  13
ENDBRANCH   1   8
BRANCH   1  17
ATOM     17  C   UNL     1      45.495   5.089  11.909  0.00  0.00    +0.000 A 
ATOM     18  C   UNL     1      44.204   5.635  11.864  0.00  0.00    +0.000 A 
ATOM     19  C   UNL     1      43.312   5.298  10.845  0.00  0.00    +0.000 A 
ATOM     20  C   UNL     1      43.709   4.427   9.829  0.00  0.00    +0.000 A 
ATOM     21  C   UNL     1      44.993   3.861   9.822  0.00  0.00    +0.000 A 
ATOM     22  C   UNL     1      45.843   4.172  10.900  0.00  0.00    +0.000 A 
BRANCH  21  23
ATOM     23  C   UNL     1      45.506   3.087   8.670  0.00  0.00    +0.000 A 
ATOM     24  C   UNL     1      45.899   3.738   7.486  0.00  0.00    +0.000 A 
ATOM     25  C   UNL     1      46.509   3.037   6.448  0.00  0.00    +0.000 A 
ATOM     26  F   UNL     1      46.894   3.698   5.349  0.00  0.00    +0.000 F 
ATOM     27  C   UNL     1      46.754   1.678   6.548  0.00  0.00    +0.000 A 
ATOM     28  C   UNL     1      46.353   1.020   7.699  0.00  0.00    +0.000 A 
ATOM     29  F   UNL     1      46.597  -0.291   7.825  0.00  0.00    +0.000 F 
ATOM     30  C   UNL     1      45.727   1.701   8.744  0.00  0.00    +0.000 A 
ENDBRANCH  21  23
ENDBRANCH   1  17
TORSDOF 4
ENDMDL
MODEL 5
REMARK VINA RESULT:    -7.467      5.115      8.272
REMARK INTER + INTRA:         -10.461
REMARK INTER:                  -9.379
REMARK INTRA:                  -1.082
REMARK UNBOUND:                -1.248
REMARK  Name = 
REMARK  4 active torsions:
REMARK  status: ('A' for Active; 'I' for Inactive)
REMARK    1  A    between atoms: C_2  and  C_4
REMARK    2  A    between atoms: N_8  and  C_9
REMARK    3  A    between atoms: C_9  and  C_10
REMARK    4  A    between atoms: C_14  and  C_15
REMARK                            x       y       z     vdW  Elec       q    Type
REMARK                         _______ _______ _______ _____ _____    ______ ____
ROOT
ATOM      1  C   UNL     1      49.003   7.949  12.605  0.00  0.00    +0.000 C 
ATOM      2  C   UNL     1      49.928   8.135  11.408  0.00  0.00    +0.000 C 
ATOM      3  C   UNL     1      49.681   9.277  12.337  0.00  0.00    +0.000 C 
ENDROOT
BRANCH   1   8
ATOM      4  C   UNL     1      48.445   6.767  17.645  0.00  0.00    +0.000 A 
ATOM      5  C   UNL     1      48.563   8.027  17.062  0.00  0.00    +0.000 A 
ATOM      6  C   UNL     1      48.878   8.129  15.706  0.00  0.00    +0.000 A 
ATOM      7  C   UNL     1      49.066   6.977  14.956  0.00  0.00    +0.000 A 
ATOM      8  N   UNL     1      49.491   6.992  13.620  0.00  0.00    +0.000 N 
ATOM      9  N   UNL     1      48.944   5.750  15.507  0.00  0.00    +0.000 NA
ATOM     10  C   UNL     1      48.640   5.665  16.835  0.00  0.00    +0.000 A 
ATOM     11  H   UNL     1      49.464   6.014  13.330  0.00  0.00    +0.000 HD
BRANCH   4  13
ATOM     12  N   UNL     1      47.275   5.588  19.417  0.00  0.00    +0.000 N 
ATOM     13  C   UNL     1      48.173   6.560  19.080  0.00  0.00    +0.000 C 
ATOM     14  O   UNL     1      48.741   7.221  19.939  0.00  0.00    +0.000 OA
ATOM     15  H   UNL     1      47.153   5.408  20.406  0.00  0.00    +0.000 HD
ATOM     16  H   UNL     1      46.966   4.875  18.771  0.00  0.00    +0.000 HD
ENDBRANCH   4  13
ENDBRANCH   1   8
BRANCH   1  17
ATOM     17  C   UNL     1      47.501   7.830  12.363  0.00  0.00    +0.000 A 
ATOM     18  C   UNL     1      46.629   8.916  12.526  0.00  0.00    +0.000 A 
ATOM     19  C   UNL     1      45.291   8.833  12.139  0.00  0.00    +0.000 A 
ATOM     20  C   UNL     1      44.806   7.665  11.550  0.00  0.00    +0.000 A 
ATOM     21  C   UNL     1      45.639   6.553  11.355  0.00  0.00    +0.000 A 
ATOM     22  C   UNL     1      46.965   6.650  11.817  0.00  0.00    +0.000 A 
BRANCH  21  23
ATOM     23  C   UNL     1      45.209   5.375  10.569  0.00  0.00    +0.000 A 
ATOM     24  C   UNL     1      45.676   5.178   9.257  0.00  0.00    +0.000 A 
ATOM     25  C   UNL     1      45.389   4.007   8.559  0.00  0.00    +0.000 A 
ATOM     26  F   UNL     1      45.875   3.845   7.322  0.00  0.00    +0.000 F 
ATOM     27  C   UNL     1      44.638   2.996   9.134  0.00  0.00    +0.000 A 
ATOM     28  C   UNL     1      44.154   3.185  10.418  0.00  0.00    +0.000 A 
ATOM     29  F   UNL     1      43.441   2.212  11.001  0.00  0.00    +0.000 F 
ATOM     30  C   UNL     1      44.417   4.356  11.129  0.00  0.00    +0.000 A 
ENDBRANCH  21  23
ENDBRANCH   1  17
TORSDOF 4
ENDMDL
MODEL 6
REMARK VINA RESULT:    -7.403      5.175      8.366
REMARK INTER + INTRA:         -10.382
REMARK INTER:                  -9.306
REMARK INTRA:                  -1.077
REMARK UNBOUND:                -1.248
REMARK  Name = 
REMARK  4 active torsions:
REMARK  status: ('A' for Active; 'I' for Inactive)
REMARK    1  A    between atoms: C_2  and  C_4
REMARK    2  A    between atoms: N_8  and  C_9
REMARK    3  A    between atoms: C_9  and  C_10
REMARK    4  A    between atoms: C_14  and  C_15
REMARK                            x       y       z     vdW  Elec       q    Type
REMARK                         _______ _______ _______ _____ _____    ______ ____
ROOT
ATOM      1  C   UNL     1      49.114   7.961  12.781  0.00  0.00    +0.000 C 
ATOM      2  C   UNL     1      50.058   8.147  11.599  0.00  0.00    +0.000 C 
ATOM      3  C   UNL     1      49.785   9.293  12.517  0.00  0.00    +0.000 C 
ENDROOT
BRANCH   1   8
ATOM      4  C   UNL     1      48.409   6.743  17.794  0.00  0.00    +0.000 A 
ATOM      5  C   UNL     1      48.510   8.008  17.219  0.00  0.00    +0.000 A 
ATOM      6  C   UNL     1      48.871   8.124  15.876  0.00  0.00    +0.000 A 
ATOM      7  C   UNL     1      49.121   6.982  15.130  0.00  0.00    +0.000 A 
ATOM      8  N   UNL     1      49.594   7.014  13.810  0.00  0.00    +0.000 N 
ATOM      9  N   UNL     1      49.015   5.749  15.673  0.00  0.00    +0.000 NA
ATOM     10  C   UNL     1      48.666   5.650  16.988  0.00  0.00    +0.000 A 
ATOM     11  H   UNL     1      49.607   6.038  13.517  0.00  0.00    +0.000 HD
BRANCH   4  13
ATOM     12  N   UNL     1      47.081   5.650  19.509  0.00  0.00    +0.000 N 
ATOM     13  C   UNL     1      48.091   6.522  19.217  0.00  0.00    +0.000 C 
ATOM     14  O   UNL     1      48.718   7.084  20.106  0.00  0.00    +0.000 OA
ATOM     15  H   UNL     1      46.923   5.454  20.490  0.00  0.00    +0.000 HD
ATOM     16  H   UNL     1      46.702   5.000  18.835  0.00  0.00    +0.000 HD
ENDBRANCH   4  13
ENDBRANCH   1   8
BRANCH   1  17
ATOM     17  C   UNL     1      47.618   7.826  12.514  0.00  0.00    +0.000 A 
ATOM     18  C   UNL     1      46.742   8.917  12.601  0.00  0.00    +0.000 A 
ATOM     19  C   UNL     1      45.413   8.812  12.190  0.00  0.00    +0.000 A 
ATOM     20  C   UNL     1      44.941   7.613  11.654  0.00  0.00    +0.000 A 
ATOM     21  C   UNL     1      45.779   6.494  11.535  0.00  0.00    +0.000 A 
ATOM     22  C   UNL     1      47.095   6.617  12.020  0.00  0.00    +0.000 A 
BRANCH  21  23
ATOM     23  C   UNL     1      45.367   5.274  10.805  0.00  0.00    +0.000 A 
ATOM     24  C   UNL     1      44.551   4.309  11.423  0.00  0.00    +0.000 A 
ATOM     25  C   UNL     1      44.046   3.228  10.704  0.00  0.00    +0.000 A 
ATOM     26  F   UNL     1      43.250   2.345  11.321  0.00  0.00    +0.000 F 
ATOM     27  C   UNL     1      44.326   3.068   9.357  0.00  0.00    +0.000 A 
ATOM     28  C   UNL     1      45.145   4.000   8.741  0.00  0.00    +0.000 A 
ATOM     29  F   UNL     1      45.414   3.876   7.434  0.00  0.00    +0.000 F 
ATOM     30  C   UNL     1      45.673   5.082   9.446  0.00  0.00    +0.000 A 
ENDBRANCH  21  23
ENDBRANCH   1  17
TORSDOF 4
ENDMDL
MODEL 7
REMARK VINA RESULT:    -7.048      4.665      7.672
REMARK INTER + INTRA:          -9.944
REMARK INTER:                  -9.989
REMARK INTRA:                   0.045
REMARK UNBOUND:                -1.248
REMARK  Name = 
REMARK  4 active torsions:
REMARK  status: ('A' for Active; 'I' for Inactive)
REMARK    1  A    between atoms: C_2  and  C_4
REMARK    2  A    between atoms: N_8  and  C_9
REMARK    3  A    between atoms: C_9  and  C_10
REMARK    4  A    between atoms: C_14  and  C_15
REMARK                            x       y       z     vdW  Elec       q    Type
REMARK                         _______ _______ _______ _____ _____    ______ ____
ROOT
ATOM      1  C   UNL     1      48.641   7.938  12.895  0.00  0.00    +0.000 C 
ATOM      2  C   UNL     1      49.771   7.324  12.077  0.00  0.00    +0.000 C 
ATOM      3  C   UNL     1      49.582   8.805  12.083  0.00  0.00    +0.000 C 
ENDROOT
BRANCH   1   8
ATOM      4  C   UNL     1      48.078   4.328  16.605  0.00  0.00    +0.000 A 
ATOM      5  C   UNL     1      47.242   4.589  15.521  0.00  0.00    +0.000 A 
ATOM      6  C   UNL     1      47.476   5.716  14.730  0.00  0.00    +0.000 A 
ATOM      7  C   UNL     1      48.537   6.558  15.030  0.00  0.00    +0.000 A 
ATOM      8  N   UNL     1      48.773   7.765  14.357  0.00  0.00    +0.000 N 
ATOM      9  N   UNL     1      49.361   6.309  16.072  0.00  0.00    +0.000 NA
ATOM     10  C   UNL     1      49.118   5.207  16.839  0.00  0.00    +0.000 A 
ATOM     11  H   UNL     1      49.649   8.111  14.749  0.00  0.00    +0.000 HD
BRANCH   4  13
ATOM     12  N   UNL     1      48.931   2.831  18.316  0.00  0.00    +0.000 N 
ATOM     13  C   UNL     1      47.876   3.197  17.529  0.00  0.00    +0.000 C 
ATOM     14  O   UNL     1      46.801   2.617  17.604  0.00  0.00    +0.000 OA
ATOM     15  H   UNL     1      48.756   2.101  18.996  0.00  0.00    +0.000 HD
ATOM     16  H   UNL     1      49.744   3.415  18.456  0.00  0.00    +0.000 HD
ENDBRANCH   4  13
ENDBRANCH   1   8
BRANCH   1  17
ATOM     17  C   UNL     1      47.204   7.763  12.413  0.00  0.00    +0.000 A 
ATOM     18  C   UNL     1      46.309   8.838  12.322  0.00  0.00    +0.000 A 
ATOM     19  C   UNL     1      45.059   8.690  11.722  0.00  0.00    +0.000 A 
ATOM     20  C   UNL     1      44.690   7.463  11.170  0.00  0.00    +0.000 A 
ATOM     21  C   UNL     1      45.552   6.357  11.224  0.00  0.00    +0.000 A 
ATOM     22  C   UNL     1      46.779   6.526  11.895  0.00  0.00    +0.000 A 
BRANCH  21  23
ATOM     23  C   UNL     1      45.273   5.103  10.490  0.00  0.00    +0.000 A 
ATOM     24  C   UNL     1      44.544   4.064  11.097  0.00  0.00    +0.000 A 
ATOM     25  C   UNL     1      44.158   2.938  10.374  0.00  0.00    +0.000 A 
ATOM     26  F   UNL     1      43.441   1.983  10.980  0.00  0.00    +0.000 F 
ATOM     27  C   UNL     1      44.474   2.805   9.032  0.00  0.00    +0.000 A 
ATOM     28  C   UNL     1      45.209   3.810   8.427  0.00  0.00    +0.000 A 
ATOM     29  F   UNL     1      45.511   3.712   7.125  0.00  0.00    +0.000 F 
ATOM     30  C   UNL     1      45.619   4.939   9.137  0.00  0.00    +0.000 A 
ENDBRANCH  21  23
ENDBRANCH   1  17
TORSDOF 4
ENDMDL
MODEL 8
REMARK VINA RESULT:    -6.843      4.131      6.316
REMARK INTER + INTRA:          -9.692
REMARK INTER:                  -9.295
REMARK INTRA:                  -0.397
REMARK UNBOUND:                -1.248
REMARK  Name = 
REMARK  4 active torsions:
REMARK  status: ('A' for Active; 'I' for Inactive)
REMARK    1  A    between atoms: C_2  and  C_4
REMARK    2  A    between atoms: N_8  and  C_9
REMARK    3  A    between atoms: C_9  and  C_10
REMARK    4  A    between atoms: C_14  and  C_15
REMARK                            x       y       z     vdW  Elec       q    Type
REMARK                         _______ _______ _______ _____ _____    ______ ____
ROOT
ATOM      1  C   UNL     1      47.419   8.323  13.238  0.00  0.00    +0.000 C 
ATOM      2  C   UNL     1      47.627   9.588  12.413  0.00  0.00    +0.000 C 
ATOM      3  C   UNL     1      48.283   8.314  11.994  0.00  0.00    +0.000 C 
ENDROOT
BRANCH   1   8
ATOM      4  C   UNL     1      44.513   4.441  11.342  0.00  0.00    +0.000 A 
ATOM      5  C   UNL     1      45.487   5.191  10.685  0.00  0.00    +0.000 A 
ATOM      6  C   UNL     1      46.037   6.306  11.318  0.00  0.00    +0.000 A 
ATOM      7  C   UNL     1      45.611   6.653  12.592  0.00  0.00    +0.000 A 
ATOM      8  N   UNL     1      46.030   7.817  13.252  0.00  0.00    +0.000 N 
ATOM      9  N   UNL     1      44.675   5.928  13.243  0.00  0.00    +0.000 NA
ATOM     10  C   UNL     1      44.143   4.842  12.611  0.00  0.00    +0.000 A 
ATOM     11  H   UNL     1      45.609   7.754  14.178  0.00  0.00    +0.000 HD
BRANCH   4  13
ATOM     12  N   UNL     1      44.147   2.980   9.437  0.00  0.00    +0.000 N 
ATOM     13  C   UNL     1      43.835   3.282  10.732  0.00  0.00    +0.000 C 
ATOM     14  O   UNL     1      43.035   2.606  11.364  0.00  0.00    +0.000 OA
ATOM     15  H   UNL     1      43.729   2.139   9.056  0.00  0.00    +0.000 HD
ATOM     16  H   UNL     1      44.956   3.356   8.963  0.00  0.00    +0.000 HD
ENDBRANCH   4  13
ENDBRANCH   1   8
BRANCH   1  17
ATOM     17  C   UNL     1      48.094   8.214  14.601  0.00  0.00    +0.000 A 
ATOM     18  C   UNL     1      48.222   9.313  15.463  0.00  0.00    +0.000 A 
ATOM     19  C   UNL     1      48.688   9.158  16.769  0.00  0.00    +0.000 A 
ATOM     20  C   UNL     1      49.009   7.888  17.250  0.00  0.00    +0.000 A 
ATOM     21  C   UNL     1      48.889   6.754  16.432  0.00  0.00    +0.000 A 
ATOM     22  C   UNL     1      48.478   6.956  15.101  0.00  0.00    +0.000 A 
BRANCH  21  23
ATOM     23  C   UNL     1      49.041   5.381  16.963  0.00  0.00    +0.000 A 
ATOM     24  C   UNL     1      47.920   4.545  17.121  0.00  0.00    +0.000 A 
ATOM     25  C   UNL     1      48.065   3.209  17.489  0.00  0.00    +0.000 A 
ATOM     26  F   UNL     1      46.976   2.439  17.603  0.00  0.00    +0.000 F 
ATOM     27  C   UNL     1      49.316   2.658  17.707  0.00  0.00    +0.000 A 
ATOM     28  C   UNL     1      50.427   3.474  17.576  0.00  0.00    +0.000 A 
ATOM     29  F   UNL     1      51.649   2.957  17.764  0.00  0.00    +0.000 F 
ATOM     30  C   UNL     1      50.303   4.818  17.223  0.00  0.00    +0.000 A 
ENDBRANCH  21  23
ENDBRANCH   1  17
TORSDOF 4
ENDMDL
MODEL 9
REMARK VINA RESULT:    -6.832      4.447      6.958
REMARK INTER + INTRA:          -9.678
REMARK INTER:                  -8.500
REMARK INTRA:                  -1.178
REMARK UNBOUND:                -1.248
REMARK  Name = 
REMARK  4 active torsions:
REMARK  status: ('A' for Active; 'I' for Inactive)
REMARK    1  A    between atoms: C_2  and  C_4
REMARK    2  A    between atoms: N_8  and  C_9
REMARK    3  A    between atoms: C_9  and  C_10
REMARK    4  A    between atoms: C_14  and  C_15
REMARK                            x       y       z     vdW  Elec       q    Type
REMARK                         _______ _______ _______ _____ _____    ______ ____
ROOT
ATOM      1  C   UNL     1      48.962   8.371  12.745  0.00  0.00    +0.000 C 
ATOM      2  C   UNL     1      49.851   9.392  12.045  0.00  0.00    +0.000 C 
ATOM      3  C   UNL     1      50.204   7.942  11.991  0.00  0.00    +0.000 C 
ENDROOT
BRANCH   1   8
ATOM      4  C   UNL     1      44.824   5.211  12.823  0.00  0.00    +0.000 A 
ATOM      5  C   UNL     1      46.172   4.867  12.734  0.00  0.00    +0.000 A 
ATOM      6  C   UNL     1      47.125   5.870  12.554  0.00  0.00    +0.000 A 
ATOM      7  C   UNL     1      46.722   7.195  12.469  0.00  0.00    +0.000 A 
ATOM      8  N   UNL     1      47.601   8.248  12.180  0.00  0.00    +0.000 N 
ATOM      9  N   UNL     1      45.420   7.542  12.565  0.00  0.00    +0.000 NA
ATOM     10  C   UNL     1      44.498   6.551  12.736  0.00  0.00    +0.000 A 
ATOM     11  H   UNL     1      47.030   9.089  12.258  0.00  0.00    +0.000 HD
BRANCH   4  13
ATOM     12  N   UNL     1      44.046   2.915  12.685  0.00  0.00    +0.000 N 
ATOM     13  C   UNL     1      43.741   4.218  12.955  0.00  0.00    +0.000 C 
ATOM     14  O   UNL     1      42.616   4.544  13.309  0.00  0.00    +0.000 OA
ATOM     15  H   UNL     1      43.313   2.236  12.850  0.00  0.00    +0.000 HD
ATOM     16  H   UNL     1      44.994   2.572  12.620  0.00  0.00    +0.000 HD
ENDBRANCH   4  13
ENDBRANCH   1   8
BRANCH   1  17
ATOM     17  C   UNL     1      48.970   8.309  14.269  0.00  0.00    +0.000 A 
ATOM     18  C   UNL     1      48.516   9.372  15.063  0.00  0.00    +0.000 A 
ATOM     19  C   UNL     1      48.373   9.233  16.444  0.00  0.00    +0.000 A 
ATOM     20  C   UNL     1      48.655   8.011  17.056  0.00  0.00    +0.000 A 
ATOM     21  C   UNL     1      49.103   6.913  16.307  0.00  0.00    +0.000 A 
ATOM     22  C   UNL     1      49.298   7.109  14.926  0.00  0.00    +0.000 A 
BRANCH  21  23
ATOM     23  C   UNL     1      49.231   5.560  16.891  0.00  0.00    +0.000 A 
ATOM     24  C   UNL     1      48.121   4.698  16.957  0.00  0.00    +0.000 A 
ATOM     25  C   UNL     1      48.259   3.378  17.378  0.00  0.00    +0.000 A 
ATOM     26  F   UNL     1      47.183   2.581  17.400  0.00  0.00    +0.000 F 
ATOM     27  C   UNL     1      49.493   2.866  17.741  0.00  0.00    +0.000 A 
ATOM     28  C   UNL     1      50.592   3.709  17.702  0.00  0.00    +0.000 A 
ATOM     29  F   UNL     1      51.799   3.231  18.031  0.00  0.00    +0.000 F 
ATOM     30  C   UNL     1      50.473   5.039  17.297  0.00  0.00    +0.000 A 
ENDBRANCH  21  23
ENDBRANCH   1  17
TORSDOF 4
ENDMDL
