MODEL 1
REMARK VINA RESULT:    -9.183      0.000      0.000
REMARK INTER + INTRA:         -14.636
REMARK INTER:                 -13.478
REMARK INTRA:                  -1.158
REMARK UNBOUND:                -1.158
REMARK  Name = 
REMARK  8 active torsions:
REMARK  status: ('A' for Active; 'I' for Inactive)
REMARK    1  A    between atoms: C_2  and  C_4
REMARK    2  A    between atoms: C_7  and  N_8
REMARK    3  A    between atoms: N_8  and  C_9
REMARK    4  A    between atoms: C_9  and  C_10
REMARK    5  A    between atoms: C_10  and  C_13
REMARK    6  A    between atoms: C_15  and  O_16
REMARK    7  A    between atoms: O_16  and  C_17
REMARK    8  A    between atoms: C_22  and  C_23
REMARK                            x       y       z     vdW  Elec       q    Type
REMARK                         _______ _______ _______ _____ _____    ______ ____
ROOT
ATOM      1  C   UNL     1      43.617   5.578  12.235  0.00  0.00    +0.000 C 
ATOM      2  F   UNL     1      43.351   6.748  11.587  0.00  0.00    +0.000 F 
ATOM      3  F   UNL     1      42.710   5.516  13.258  0.00  0.00    +0.000 F 
ENDROOT
BRANCH   1   4
ATOM      4  C   UNL     1      45.047   5.529  12.741  0.00  0.00    +0.000 A 
ATOM      5  C   UNL     1      45.452   4.508  13.619  0.00  0.00    +0.000 A 
ATOM      6  C   UNL     1      46.757   4.472  14.109  0.00  0.00    +0.000 A 
ATOM      7  C   UNL     1      47.686   5.412  13.667  0.00  0.00    +0.000 A 
ATOM      8  C   UNL     1      47.306   6.418  12.766  0.00  0.00    +0.000 A 
ATOM      9  C   UNL     1      45.975   6.501  12.345  0.00  0.00    +0.000 A 
BRANCH   8  10
ATOM     10  C   UNL     1      48.342   7.358  12.272  0.00  0.00    +0.000 C 
ATOM     11  N   UNL     1      49.655   7.013  12.480  0.00  0.00    +0.000 N 
ATOM     12  O   UNL     1      48.051   8.422  11.741  0.00  0.00    +0.000 OA
ATOM     13  H   UNL     1      49.935   6.276  13.110  0.00  0.00    +0.000 HD
ATOM     14  H   UNL     1      50.338   7.732  12.281  0.00  0.00    +0.000 HD
ENDBRANCH   8  10
BRANCH   6  15
ATOM     15  O   UNL     1      47.225   3.526  14.991  0.00  0.00    +0.000 OA
BRANCH  15  16
ATOM     16  C   UNL     1      47.879   3.973  16.205  0.00  0.00    +0.000 C 
ATOM     17  C   UNL     1      48.610   2.915  17.057  0.00  0.00    +0.000 C 
ATOM     18  N   UNL     1      47.877   3.345  18.254  0.00  0.00    +0.000 NA
ATOM     19  C   UNL     1      46.964   4.154  17.436  0.00  0.00    +0.000 C 
ATOM     20  H   UNL     1      48.433   3.884  18.918  0.00  0.00    +0.000 HD
ENDBRANCH  15  16
ENDBRANCH   6  15
ENDBRANCH   1   4
BRANCH   1  21
ATOM     21  C   UNL     1      43.354   4.391  11.282  0.00  0.00    +0.000 C 
BRANCH  21  22
ATOM     22  N   UNL     1      43.676   4.683   9.877  0.00  0.00    +0.000 N 
ATOM     23  H   UNL     1      42.872   4.920   9.295  0.00  0.00    +0.000 HD
BRANCH  22  27
ATOM     24  C   UNL     1      46.444   2.296   7.779  0.00  0.00    +0.000 A 
ATOM     25  C   UNL     1      46.428   3.674   7.567  0.00  0.00    +0.000 A 
ATOM     26  C   UNL     1      45.524   4.478   8.270  0.00  0.00    +0.000 A 
ATOM     27  C   UNL     1      44.645   3.933   9.213  0.00  0.00    +0.000 A 
ATOM     28  C   UNL     1      44.657   2.544   9.397  0.00  0.00    +0.000 A 
ATOM     29  C   UNL     1      45.544   1.727   8.683  0.00  0.00    +0.000 A 
BRANCH  24  31
ATOM     30  N   UNL     1      48.508   1.984   6.530  0.00  0.00    +0.000 N 
ATOM     31  C   UNL     1      47.372   1.410   7.033  0.00  0.00    +0.000 C 
ATOM     32  O   UNL     1      47.157   0.213   6.900  0.00  0.00    +0.000 OA
ATOM     33  H   UNL     1      49.182   1.351   6.115  0.00  0.00    +0.000 HD
ATOM     34  H   UNL     1      48.839   2.887   6.837  0.00  0.00    +0.000 HD
ENDBRANCH  24  31
ENDBRANCH  22  27
ENDBRANCH  21  22
ENDBRANCH   1  21
TORSDOF 8
ENDMDL
MODEL 2
REMARK VINA RESULT:    -9.129      1.048      3.598
REMARK INTER + INTRA:         -14.556
REMARK INTER:                 -13.382
REMARK INTRA:                  -1.173
REMARK UNBOUND:                -1.158
REMARK  Name = 
REMARK  8 active torsions:
REMARK  status: ('A' for Active; 'I' for Inactive)
REMARK    1  A    between atoms: C_2  and  C_4
REMARK    2  A    between atoms: C_7  and  N_8
REMARK    3  A    between atoms: N_8  and  C_9
REMARK    4  A    between atoms: C_9  and  C_10
REMARK    5  A    between atoms: C_10  and  C_13
REMARK    6  A    between atoms: C_15  and  O_16
REMARK    7  A    between atoms: O_16  and  C_17
REMARK    8  A    between atoms: C_22  and  C_23
REMARK                            x       y       z     vdW  Elec       q    Type
REMARK                         _______ _______ _______ _____ _____    ______ ____
ROOT
ATOM      1  C   UNL     1      43.426   5.638  12.105  0.00  0.00    +0.000 C 
ATOM      2  F   UNL     1      43.026   6.806  11.525  0.00  0.00    +0.000 F 
ATOM      3  F   UNL     1      42.592   5.462  13.176  0.00  0.00    +0.000 F 
ENDROOT
BRANCH   1   4
ATOM      4  C   UNL     1      44.883   5.690  12.522  0.00  0.00    +0.000 A 
ATOM      5  C   UNL     1      45.765   6.596  11.904  0.00  0.00    +0.000 A 
ATOM      6  C   UNL     1      47.112   6.630  12.263  0.00  0.00    +0.000 A 
ATOM      7  C   UNL     1      47.572   5.812  13.294  0.00  0.00    +0.000 A 
ATOM      8  C   UNL     1      46.699   4.926  13.943  0.00  0.00    +0.000 A 
ATOM      9  C   UNL     1      45.369   4.834  13.520  0.00  0.00    +0.000 A 
BRANCH   8  10
ATOM     10  C   UNL     1      47.216   4.122  15.077  0.00  0.00    +0.000 C 
ATOM     11  N   UNL     1      47.224   4.714  16.316  0.00  0.00    +0.000 N 
ATOM     12  O   UNL     1      47.662   2.992  14.919  0.00  0.00    +0.000 OA
ATOM     13  H   UNL     1      47.090   5.705  16.450  0.00  0.00    +0.000 HD
ATOM     14  H   UNL     1      47.721   4.214  17.041  0.00  0.00    +0.000 HD
ENDBRANCH   8  10
BRANCH   6  15
ATOM     15  O   UNL     1      48.043   7.464  11.689  0.00  0.00    +0.000 OA
BRANCH  15  16
ATOM     16  C   UNL     1      49.335   7.607  12.331  0.00  0.00    +0.000 C 
ATOM     17  C   UNL     1      49.646   8.950  13.024  0.00  0.00    +0.000 C 
ATOM     18  N   UNL     1      50.907   9.063  12.280  0.00  0.00    +0.000 NA
ATOM     19  C   UNL     1      50.516   7.952  11.399  0.00  0.00    +0.000 C 
ATOM     20  H   UNL     1      51.743   8.881  12.835  0.00  0.00    +0.000 HD
ENDBRANCH  15  16
ENDBRANCH   6  15
ENDBRANCH   1   4
BRANCH   1  21
ATOM     21  C   UNL     1      43.200   4.470  11.119  0.00  0.00    +0.000 C 
BRANCH  21  22
ATOM     22  N   UNL     1      43.638   4.767   9.746  0.00  0.00    +0.000 N 
ATOM     23  H   UNL     1      42.891   5.052   9.112  0.00  0.00    +0.000 HD
BRANCH  22  27
ATOM     24  C   UNL     1      46.432   2.273   7.816  0.00  0.00    +0.000 A 
ATOM     25  C   UNL     1      46.476   3.649   7.596  0.00  0.00    +0.000 A 
ATOM     26  C   UNL     1      45.563   4.488   8.245  0.00  0.00    +0.000 A 
ATOM     27  C   UNL     1      44.615   3.979   9.141  0.00  0.00    +0.000 A 
ATOM     28  C   UNL     1      44.569   2.592   9.331  0.00  0.00    +0.000 A 
ATOM     29  C   UNL     1      45.465   1.741   8.671  0.00  0.00    +0.000 A 
BRANCH  24  31
ATOM     30  N   UNL     1      48.454   1.914   6.511  0.00  0.00    +0.000 N 
ATOM     31  C   UNL     1      47.370   1.351   7.126  0.00  0.00    +0.000 C 
ATOM     32  O   UNL     1      47.205   0.139   7.132  0.00  0.00    +0.000 OA
ATOM     33  H   UNL     1      49.140   1.269   6.135  0.00  0.00    +0.000 HD
ATOM     34  H   UNL     1      48.756   2.858   6.704  0.00  0.00    +0.000 HD
ENDBRANCH  24  31
ENDBRANCH  22  27
ENDBRANCH  21  22
ENDBRANCH   1  21
TORSDOF 8
ENDMDL
MODEL 3
REMARK VINA RESULT:    -9.062      1.443      3.931
REMARK INTER + INTRA:         -14.458
REMARK INTER:                 -13.308
REMARK INTRA:                  -1.150
REMARK UNBOUND:                -1.158
REMARK  Name = 
REMARK  8 active torsions:
REMARK  status: ('A' for Active; 'I' for Inactive)
REMARK    1  A    between atoms: C_2  and  C_4
REMARK    2  A    between atoms: C_7  and  N_8
REMARK    3  A    between atoms: N_8  and  C_9
REMARK    4  A    between atoms: C_9  and  C_10
REMARK    5  A    between atoms: C_10  and  C_13
REMARK    6  A    between atoms: C_15  and  O_16
REMARK    7  A    between atoms: O_16  and  C_17
REMARK    8  A    between atoms: C_22  and  C_23
REMARK                            x       y       z     vdW  Elec       q    Type
REMARK                         _______ _______ _______ _____ _____    ______ ____
ROOT
ATOM      1  C   UNL     1      43.502   5.857  11.910  0.00  0.00    +0.000 C 
ATOM      2  F   UNL     1      43.155   7.017  11.283  0.00  0.00    +0.000 F 
ATOM      3  F   UNL     1      42.657   5.759  12.983  0.00  0.00    +0.000 F 
ENDROOT
BRANCH   1   4
ATOM      4  C   UNL     1      44.958   5.861  12.333  0.00  0.00    +0.000 A 
ATOM      5  C   UNL     1      45.871   6.741  11.720  0.00  0.00    +0.000 A 
ATOM      6  C   UNL     1      47.216   6.732  12.084  0.00  0.00    +0.000 A 
ATOM      7  C   UNL     1      47.646   5.898  13.115  0.00  0.00    +0.000 A 
ATOM      8  C   UNL     1      46.743   5.039  13.758  0.00  0.00    +0.000 A 
ATOM      9  C   UNL     1      45.413   4.989  13.330  0.00  0.00    +0.000 A 
BRANCH   8  10
ATOM     10  C   UNL     1      47.230   4.216  14.893  0.00  0.00    +0.000 C 
ATOM     11  N   UNL     1      47.328   4.829  16.118  0.00  0.00    +0.000 N 
ATOM     12  O   UNL     1      47.577   3.051  14.746  0.00  0.00    +0.000 OA
ATOM     13  H   UNL     1      47.280   5.830  16.235  0.00  0.00    +0.000 HD
ATOM     14  H   UNL     1      47.807   4.303  16.838  0.00  0.00    +0.000 HD
ENDBRANCH   8  10
BRANCH   6  15
ATOM     15  O   UNL     1      48.175   7.537  11.515  0.00  0.00    +0.000 OA
BRANCH  15  16
ATOM     16  C   UNL     1      48.559   8.752  12.207  0.00  0.00    +0.000 C 
ATOM     17  C   UNL     1      47.562   9.930  12.194  0.00  0.00    +0.000 C 
ATOM     18  N   UNL     1      48.610  10.836  11.707  0.00  0.00    +0.000 NA
ATOM     19  C   UNL     1      49.501   9.699  11.432  0.00  0.00    +0.000 C 
ATOM     20  H   UNL     1      48.966  11.485  12.408  0.00  0.00    +0.000 HD
ENDBRANCH  15  16
ENDBRANCH   6  15
ENDBRANCH   1   4
BRANCH   1  21
ATOM     21  C   UNL     1      43.229   4.662  10.969  0.00  0.00    +0.000 C 
BRANCH  21  22
ATOM     22  N   UNL     1      43.737   4.862   9.603  0.00  0.00    +0.000 N 
ATOM     23  H   UNL     1      43.041   5.188   8.932  0.00  0.00    +0.000 HD
BRANCH  22  27
ATOM     24  C   UNL     1      46.350   2.042   7.877  0.00  0.00    +0.000 A 
ATOM     25  C   UNL     1      46.500   3.394   7.569  0.00  0.00    +0.000 A 
ATOM     26  C   UNL     1      45.648   4.341   8.149  0.00  0.00    +0.000 A 
ATOM     27  C   UNL     1      44.657   3.965   9.063  0.00  0.00    +0.000 A 
ATOM     28  C   UNL     1      44.504   2.601   9.344  0.00  0.00    +0.000 A 
ATOM     29  C   UNL     1      45.339   1.643   8.752  0.00  0.00    +0.000 A 
BRANCH  24  31
ATOM     30  N   UNL     1      46.962  -0.294   7.587  0.00  0.00    +0.000 N 
ATOM     31  C   UNL     1      47.221   1.009   7.262  0.00  0.00    +0.000 C 
ATOM     32  O   UNL     1      48.109   1.299   6.472  0.00  0.00    +0.000 OA
ATOM     33  H   UNL     1      47.493  -0.995   7.082  0.00  0.00    +0.000 HD
ATOM     34  H   UNL     1      46.095  -0.583   8.016  0.00  0.00    +0.000 HD
ENDBRANCH  24  31
ENDBRANCH  22  27
ENDBRANCH  21  22
ENDBRANCH   1  21
TORSDOF 8
ENDMDL
MODEL 4
REMARK VINA RESULT:    -8.538      2.434      3.236
REMARK INTER + INTRA:         -13.689
REMARK INTER:                 -12.893
REMARK INTRA:                  -0.796
REMARK UNBOUND:                -1.158
REMARK  Name = 
REMARK  8 active torsions:
REMARK  status: ('A' for Active; 'I' for Inactive)
REMARK    1  A    between atoms: C_2  and  C_4
REMARK    2  A    between atoms: C_7  and  N_8
REMARK    3  A    between atoms: N_8  and  C_9
REMARK    4  A    between atoms: C_9  and  C_10
REMARK    5  A    between atoms: C_10  and  C_13
REMARK    6  A    between atoms: C_15  and  O_16
REMARK    7  A    between atoms: O_16  and  C_17
REMARK    8  A    between atoms: C_22  and  C_23
REMARK                            x       y       z     vdW  Elec       q    Type
REMARK                         _______ _______ _______ _____ _____    ______ ____
ROOT
ATOM      1  C   UNL     1      43.968   4.128  12.499  0.00  0.00    +0.000 C 
ATOM      2  F   UNL     1      43.153   4.086  13.591  0.00  0.00    +0.000 F 
ATOM      3  F   UNL     1      44.658   2.946  12.516  0.00  0.00    +0.000 F 
ENDROOT
BRANCH   1   4
ATOM      4  C   UNL     1      44.895   5.327  12.536  0.00  0.00    +0.000 A 
ATOM      5  C   UNL     1      46.247   5.166  12.894  0.00  0.00    +0.000 A 
ATOM      6  C   UNL     1      47.099   6.268  12.957  0.00  0.00    +0.000 A 
ATOM      7  C   UNL     1      46.627   7.527  12.591  0.00  0.00    +0.000 A 
ATOM      8  C   UNL     1      45.290   7.700  12.202  0.00  0.00    +0.000 A 
ATOM      9  C   UNL     1      44.418   6.607  12.224  0.00  0.00    +0.000 A 
BRANCH   8  10
ATOM     10  C   UNL     1      44.847   9.045  11.759  0.00  0.00    +0.000 C 
ATOM     11  N   UNL     1      43.727   9.108  10.966  0.00  0.00    +0.000 N 
ATOM     12  O   UNL     1      45.470  10.059  12.045  0.00  0.00    +0.000 OA
ATOM     13  H   UNL     1      43.326   8.297  10.519  0.00  0.00    +0.000 HD
ATOM     14  H   UNL     1      43.533  10.009  10.548  0.00  0.00    +0.000 HD
ENDBRANCH   8  10
BRANCH   6  15
ATOM     15  O   UNL     1      48.423   6.200  13.323  0.00  0.00    +0.000 OA
BRANCH  15  16
ATOM     16  C   UNL     1      49.124   7.433  13.623  0.00  0.00    +0.000 C 
ATOM     17  C   UNL     1      50.296   7.833  12.703  0.00  0.00    +0.000 C 
ATOM     18  N   UNL     1      51.177   7.996  13.867  0.00  0.00    +0.000 NA
ATOM     19  C   UNL     1      50.187   7.350  14.739  0.00  0.00    +0.000 C 
ATOM     20  H   UNL     1      51.380   8.965  14.111  0.00  0.00    +0.000 HD
ENDBRANCH  15  16
ENDBRANCH   6  15
ENDBRANCH   1   4
BRANCH   1  21
ATOM     21  C   UNL     1      43.107   4.167  11.216  0.00  0.00    +0.000 C 
BRANCH  21  22
ATOM     22  N   UNL     1      43.810   4.727  10.052  0.00  0.00    +0.000 N 
ATOM     23  H   UNL     1      43.276   5.416   9.521  0.00  0.00    +0.000 HD
BRANCH  22  27
ATOM     24  C   UNL     1      46.401   2.330   7.750  0.00  0.00    +0.000 A 
ATOM     25  C   UNL     1      45.451   1.721   8.570  0.00  0.00    +0.000 A 
ATOM     26  C   UNL     1      44.575   2.507   9.326  0.00  0.00    +0.000 A 
ATOM     27  C   UNL     1      44.608   3.905   9.259  0.00  0.00    +0.000 A 
ATOM     28  C   UNL     1      45.584   4.501   8.449  0.00  0.00    +0.000 A 
ATOM     29  C   UNL     1      46.480   3.723   7.704  0.00  0.00    +0.000 A 
BRANCH  24  31
ATOM     30  N   UNL     1      48.467   2.176   6.475  0.00  0.00    +0.000 N 
ATOM     31  C   UNL     1      47.362   1.527   6.953  0.00  0.00    +0.000 C 
ATOM     32  O   UNL     1      47.197   0.331   6.756  0.00  0.00    +0.000 OA
ATOM     33  H   UNL     1      49.165   1.596   6.023  0.00  0.00    +0.000 HD
ATOM     34  H   UNL     1      48.762   3.074   6.830  0.00  0.00    +0.000 HD
ENDBRANCH  24  31
ENDBRANCH  22  27
ENDBRANCH  21  22
ENDBRANCH   1  21
TORSDOF 8
ENDMDL
MODEL 5
REMARK VINA RESULT:    -8.114      2.399      4.523
REMARK INTER + INTRA:         -13.066
REMARK INTER:                 -12.391
REMARK INTRA:                  -0.676
REMARK UNBOUND:                -1.158
REMARK  Name = 
REMARK  8 active torsions:
REMARK  status: ('A' for Active; 'I' for Inactive)
REMARK    1  A    between atoms: C_2  and  C_4
REMARK    2  A    between atoms: C_7  and  N_8
REMARK    3  A    between atoms: N_8  and  C_9
REMARK    4  A    between atoms: C_9  and  C_10
REMARK    5  A    between atoms: C_10  and  C_13
REMARK    6  A    between atoms: C_15  and  O_16
REMARK    7  A    between atoms: O_16  and  C_17
REMARK    8  A    between atoms: C_22  and  C_23
REMARK                            x       y       z     vdW  Elec       q    Type
REMARK                         _______ _______ _______ _____ _____    ______ ____
ROOT
ATOM      1  C   UNL     1      43.987   4.573  12.432  0.00  0.00    +0.000 C 
ATOM      2  F   UNL     1      43.143   4.703  13.495  0.00  0.00    +0.000 F 
ATOM      3  F   UNL     1      44.637   3.384  12.629  0.00  0.00    +0.000 F 
ENDROOT
BRANCH   1   4
ATOM      4  C   UNL     1      44.953   5.738  12.337  0.00  0.00    +0.000 A 
ATOM      5  C   UNL     1      44.516   6.981  11.842  0.00  0.00    +0.000 A 
ATOM      6  C   UNL     1      45.404   8.049  11.726  0.00  0.00    +0.000 A 
ATOM      7  C   UNL     1      46.717   7.906  12.173  0.00  0.00    +0.000 A 
ATOM      8  C   UNL     1      47.160   6.684  12.699  0.00  0.00    +0.000 A 
ATOM      9  C   UNL     1      46.289   5.590  12.732  0.00  0.00    +0.000 A 
BRANCH   8  10
ATOM     10  C   UNL     1      48.545   6.595  13.222  0.00  0.00    +0.000 C 
ATOM     11  N   UNL     1      49.563   6.943  12.368  0.00  0.00    +0.000 N 
ATOM     12  O   UNL     1      48.787   6.188  14.351  0.00  0.00    +0.000 OA
ATOM     13  H   UNL     1      49.430   7.055  11.373  0.00  0.00    +0.000 HD
ATOM     14  H   UNL     1      50.499   6.727  12.685  0.00  0.00    +0.000 HD
ENDBRANCH   8  10
BRANCH   6  15
ATOM     15  O   UNL     1      45.065   9.285  11.227  0.00  0.00    +0.000 OA
BRANCH  15  16
ATOM     16  C   UNL     1      43.765   9.833  11.559  0.00  0.00    +0.000 C 
ATOM     17  C   UNL     1      42.663   9.770  10.481  0.00  0.00    +0.000 C 
ATOM     18  N   UNL     1      42.410  11.209  10.628  0.00  0.00    +0.000 NA
ATOM     19  C   UNL     1      43.628  11.366  11.435  0.00  0.00    +0.000 C 
ATOM     20  H   UNL     1      41.548  11.438  11.123  0.00  0.00    +0.000 HD
ENDBRANCH  15  16
ENDBRANCH   6  15
ENDBRANCH   1   4
BRANCH   1  21
ATOM     21  C   UNL     1      43.162   4.463  11.131  0.00  0.00    +0.000 C 
BRANCH  21  22
ATOM     22  N   UNL     1      43.870   4.962   9.942  0.00  0.00    +0.000 N 
ATOM     23  H   UNL     1      43.303   5.536   9.317  0.00  0.00    +0.000 HD
BRANCH  22  27
ATOM     24  C   UNL     1      46.450   2.381   7.834  0.00  0.00    +0.000 A 
ATOM     25  C   UNL     1      46.563   3.760   7.655  0.00  0.00    +0.000 A 
ATOM     26  C   UNL     1      45.721   4.626   8.362  0.00  0.00    +0.000 A 
ATOM     27  C   UNL     1      44.779   4.142   9.277  0.00  0.00    +0.000 A 
ATOM     28  C   UNL     1      44.662   2.754   9.427  0.00  0.00    +0.000 A 
ATOM     29  C   UNL     1      45.485   1.876   8.708  0.00  0.00    +0.000 A 
BRANCH  24  31
ATOM     30  N   UNL     1      48.436   1.943   6.499  0.00  0.00    +0.000 N 
ATOM     31  C   UNL     1      47.309   1.432   7.083  0.00  0.00    +0.000 C 
ATOM     32  O   UNL     1      47.046   0.240   7.012  0.00  0.00    +0.000 OA
ATOM     33  H   UNL     1      49.066   1.270   6.080  0.00  0.00    +0.000 HD
ATOM     34  H   UNL     1      48.813   2.845   6.751  0.00  0.00    +0.000 HD
ENDBRANCH  24  31
ENDBRANCH  22  27
ENDBRANCH  21  22
ENDBRANCH   1  21
TORSDOF 8
ENDMDL
MODEL 6
REMARK VINA RESULT:    -7.915      1.825      3.751
REMARK INTER + INTRA:         -12.774
REMARK INTER:                 -11.788
REMARK INTRA:                  -0.985
REMARK UNBOUND:                -1.158
REMARK  Name = 
REMARK  8 active torsions:
REMARK  status: ('A' for Active; 'I' for Inactive)
REMARK    1  A    between atoms: C_2  and  C_4
REMARK    2  A    between atoms: C_7  and  N_8
REMARK    3  A    between atoms: N_8  and  C_9
REMARK    4  A    between atoms: C_9  and  C_10
REMARK    5  A    between atoms: C_10  and  C_13
REMARK    6  A    between atoms: C_15  and  O_16
REMARK    7  A    between atoms: O_16  and  C_17
REMARK    8  A    between atoms: C_22  and  C_23
REMARK                            x       y       z     vdW  Elec       q    Type
REMARK                         _______ _______ _______ _____ _____    ______ ____
ROOT
ATOM      1  C   UNL     1      45.116   6.662  11.430  0.00  0.00    +0.000 C 
ATOM      2  F   UNL     1      45.711   6.898  10.225  0.00  0.00    +0.000 F 
ATOM      3  F   UNL     1      44.277   7.724  11.634  0.00  0.00    +0.000 F 
ENDROOT
BRANCH   1   4
ATOM      4  C   UNL     1      46.138   6.522  12.542  0.00  0.00    +0.000 A 
ATOM      5  C   UNL     1      46.988   7.597  12.861  0.00  0.00    +0.000 A 
ATOM      6  C   UNL     1      47.947   7.467  13.864  0.00  0.00    +0.000 A 
ATOM      7  C   UNL     1      48.015   6.289  14.605  0.00  0.00    +0.000 A 
ATOM      8  C   UNL     1      47.154   5.219  14.321  0.00  0.00    +0.000 A 
ATOM      9  C   UNL     1      46.252   5.323  13.257  0.00  0.00    +0.000 A 
BRANCH   8  10
ATOM     10  C   UNL     1      47.217   4.009  15.176  0.00  0.00    +0.000 C 
ATOM     11  N   UNL     1      46.807   4.138  16.481  0.00  0.00    +0.000 N 
ATOM     12  O   UNL     1      47.658   2.945  14.761  0.00  0.00    +0.000 OA
ATOM     13  H   UNL     1      46.663   5.034  16.923  0.00  0.00    +0.000 HD
ATOM     14  H   UNL     1      47.004   3.351  17.086  0.00  0.00    +0.000 HD
ENDBRANCH   8  10
BRANCH   6  15
ATOM     15  O   UNL     1      48.833   8.458  14.218  0.00  0.00    +0.000 OA
BRANCH  15  16
ATOM     16  C   UNL     1      50.249   8.149  14.236  0.00  0.00    +0.000 C 
ATOM     17  C   UNL     1      51.202   9.184  14.870  0.00  0.00    +0.000 C 
ATOM     18  N   UNL     1      52.039   9.179  13.664  0.00  0.00    +0.000 NA
ATOM     19  C   UNL     1      51.016   8.426  12.925  0.00  0.00    +0.000 C 
ATOM     20  H   UNL     1      52.926   8.686  13.768  0.00  0.00    +0.000 HD
ENDBRANCH  15  16
ENDBRANCH   6  15
ENDBRANCH   1   4
BRANCH   1  21
ATOM     21  C   UNL     1      44.259   5.379  11.337  0.00  0.00    +0.000 C 
BRANCH  21  22
ATOM     22  N   UNL     1      43.969   4.965   9.956  0.00  0.00    +0.000 N 
ATOM     23  H   UNL     1      42.977   4.845   9.745  0.00  0.00    +0.000 HD
BRANCH  22  27
ATOM     24  C   UNL     1      46.275   2.056   7.963  0.00  0.00    +0.000 A 
ATOM     25  C   UNL     1      46.403   3.397   7.601  0.00  0.00    +0.000 A 
ATOM     26  C   UNL     1      45.653   4.373   8.268  0.00  0.00    +0.000 A 
ATOM     27  C   UNL     1      44.791   4.038   9.319  0.00  0.00    +0.000 A 
ATOM     28  C   UNL     1      44.657   2.684   9.653  0.00  0.00    +0.000 A 
ATOM     29  C   UNL     1      45.387   1.696   8.978  0.00  0.00    +0.000 A 
BRANCH  24  31
ATOM     30  N   UNL     1      46.742  -0.303   7.592  0.00  0.00    +0.000 N 
ATOM     31  C   UNL     1      47.036   0.991   7.261  0.00  0.00    +0.000 C 
ATOM     32  O   UNL     1      47.867   1.251   6.401  0.00  0.00    +0.000 OA
ATOM     33  H   UNL     1      47.191  -1.020   7.034  0.00  0.00    +0.000 HD
ATOM     34  H   UNL     1      45.901  -0.556   8.091  0.00  0.00    +0.000 HD
ENDBRANCH  24  31
ENDBRANCH  22  27
ENDBRANCH  21  22
ENDBRANCH   1  21
TORSDOF 8
ENDMDL
MODEL 7
REMARK VINA RESULT:    -7.522      2.362      7.803
REMARK INTER + INTRA:         -12.198
REMARK INTER:                 -11.224
REMARK INTRA:                  -0.975
REMARK UNBOUND:                -1.158
REMARK  Name = 
REMARK  8 active torsions:
REMARK  status: ('A' for Active; 'I' for Inactive)
REMARK    1  A    between atoms: C_2  and  C_4
REMARK    2  A    between atoms: C_7  and  N_8
REMARK    3  A    between atoms: N_8  and  C_9
REMARK    4  A    between atoms: C_9  and  C_10
REMARK    5  A    between atoms: C_10  and  C_13
REMARK    6  A    between atoms: C_15  and  O_16
REMARK    7  A    between atoms: O_16  and  C_17
REMARK    8  A    between atoms: C_22  and  C_23
REMARK                            x       y       z     vdW  Elec       q    Type
REMARK                         _______ _______ _______ _____ _____    ______ ____
ROOT
ATOM      1  C   UNL     1      46.333   6.948  11.622  0.00  0.00    +0.000 C 
ATOM      2  F   UNL     1      45.772   8.117  11.200  0.00  0.00    +0.000 F 
ATOM      3  F   UNL     1      47.660   7.046  11.301  0.00  0.00    +0.000 F 
ENDROOT
BRANCH   1   4
ATOM      4  C   UNL     1      45.678   5.745  10.971  0.00  0.00    +0.000 A 
ATOM      5  C   UNL     1      45.929   5.447   9.618  0.00  0.00    +0.000 A 
ATOM      6  C   UNL     1      45.310   4.359   9.006  0.00  0.00    +0.000 A 
ATOM      7  C   UNL     1      44.494   3.516   9.758  0.00  0.00    +0.000 A 
ATOM      8  C   UNL     1      44.259   3.780  11.116  0.00  0.00    +0.000 A 
ATOM      9  C   UNL     1      44.812   4.921  11.703  0.00  0.00    +0.000 A 
BRANCH   8  10
ATOM     10  C   UNL     1      43.436   2.821  11.894  0.00  0.00    +0.000 C 
ATOM     11  N   UNL     1      43.392   2.992  13.256  0.00  0.00    +0.000 N 
ATOM     12  O   UNL     1      42.853   1.886  11.360  0.00  0.00    +0.000 OA
ATOM     13  H   UNL     1      44.033   3.592  13.754  0.00  0.00    +0.000 HD
ATOM     14  H   UNL     1      42.960   2.243  13.781  0.00  0.00    +0.000 HD
ENDBRANCH   8  10
BRANCH   6  15
ATOM     15  O   UNL     1      45.480   4.017   7.684  0.00  0.00    +0.000 OA
BRANCH  15  16
ATOM     16  C   UNL     1      46.713   3.364   7.290  0.00  0.00    +0.000 C 
ATOM     17  C   UNL     1      46.847   2.911   5.821  0.00  0.00    +0.000 C 
ATOM     18  N   UNL     1      47.213   1.557   6.253  0.00  0.00    +0.000 NA
ATOM     19  C   UNL     1      46.821   1.863   7.636  0.00  0.00    +0.000 C 
ATOM     20  H   UNL     1      48.202   1.330   6.140  0.00  0.00    +0.000 HD
ENDBRANCH  15  16
ENDBRANCH   6  15
ENDBRANCH   1   4
BRANCH   1  21
ATOM     21  C   UNL     1      46.213   6.846  13.159  0.00  0.00    +0.000 C 
BRANCH  21  22
ATOM     22  N   UNL     1      47.499   6.978  13.859  0.00  0.00    +0.000 N 
ATOM     23  H   UNL     1      48.291   7.209  13.258  0.00  0.00    +0.000 HD
BRANCH  22  27
ATOM     24  C   UNL     1      48.536   4.192  16.846  0.00  0.00    +0.000 A 
ATOM     25  C   UNL     1      49.156   5.441  16.829  0.00  0.00    +0.000 A 
ATOM     26  C   UNL     1      48.808   6.380  15.851  0.00  0.00    +0.000 A 
ATOM     27  C   UNL     1      47.821   6.105  14.897  0.00  0.00    +0.000 A 
ATOM     28  C   UNL     1      47.225   4.837  14.914  0.00  0.00    +0.000 A 
ATOM     29  C   UNL     1      47.582   3.883  15.875  0.00  0.00    +0.000 A 
BRANCH  24  31
ATOM     30  N   UNL     1      48.262   3.228  19.063  0.00  0.00    +0.000 N 
ATOM     31  C   UNL     1      48.899   3.164  17.854  0.00  0.00    +0.000 C 
ATOM     32  O   UNL     1      49.704   2.276  17.610  0.00  0.00    +0.000 OA
ATOM     33  H   UNL     1      48.439   2.462  19.702  0.00  0.00    +0.000 HD
ATOM     34  H   UNL     1      47.423   3.772  19.204  0.00  0.00    +0.000 HD
ENDBRANCH  24  31
ENDBRANCH  22  27
ENDBRANCH  21  22
ENDBRANCH   1  21
TORSDOF 8
ENDMDL
MODEL 8
REMARK VINA RESULT:    -7.315      1.948      2.345
REMARK INTER + INTRA:         -11.894
REMARK INTER:                 -10.852
REMARK INTRA:                  -1.043
REMARK UNBOUND:                -1.158
REMARK  Name = 
REMARK  8 active torsions:
REMARK  status: ('A' for Active; 'I' for Inactive)
REMARK    1  A    between atoms: C_2  and  C_4
REMARK    2  A    between atoms: C_7  and  N_8
REMARK    3  A    between atoms: N_8  and  C_9
REMARK    4  A    between atoms: C_9  and  C_10
REMARK    5  A    between atoms: C_10  and  C_13
REMARK    6  A    between atoms: C_15  and  O_16
REMARK    7  A    between atoms: O_16  and  C_17
REMARK    8  A    between atoms: C_22  and  C_23
REMARK                            x       y       z     vdW  Elec       q    Type
REMARK                         _______ _______ _______ _____ _____    ______ ____
ROOT
ATOM      1  C   UNL     1      45.263   6.437  12.008  0.00  0.00    +0.000 C 
ATOM      2  F   UNL     1      45.086   7.077  10.817  0.00  0.00    +0.000 F 
ATOM      3  F   UNL     1      44.308   6.953  12.843  0.00  0.00    +0.000 F 
ENDROOT
BRANCH   1   4
ATOM      4  C   UNL     1      46.664   6.641  12.553  0.00  0.00    +0.000 A 
ATOM      5  C   UNL     1      47.020   6.110  13.806  0.00  0.00    +0.000 A 
ATOM      6  C   UNL     1      48.298   6.316  14.325  0.00  0.00    +0.000 A 
ATOM      7  C   UNL     1      49.251   6.990  13.563  0.00  0.00    +0.000 A 
ATOM      8  C   UNL     1      48.922   7.497  12.298  0.00  0.00    +0.000 A 
ATOM      9  C   UNL     1      47.615   7.363  11.819  0.00  0.00    +0.000 A 
BRANCH   8  10
ATOM     10  C   UNL     1      49.984   8.150  11.495  0.00  0.00    +0.000 C 
ATOM     11  N   UNL     1      50.014   9.523  11.489  0.00  0.00    +0.000 N 
ATOM     12  O   UNL     1      50.779   7.504  10.824  0.00  0.00    +0.000 OA
ATOM     13  H   UNL     1      49.250  10.089  11.829  0.00  0.00    +0.000 HD
ATOM     14  H   UNL     1      50.639   9.949  10.817  0.00  0.00    +0.000 HD
ENDBRANCH   8  10
BRANCH   6  15
ATOM     15  O   UNL     1      48.717   5.856  15.552  0.00  0.00    +0.000 OA
BRANCH  15  16
ATOM     16  C   UNL     1      49.767   6.579  16.242  0.00  0.00    +0.000 C 
ATOM     17  C   UNL     1      50.785   5.757  17.059  0.00  0.00    +0.000 C 
ATOM     18  N   UNL     1      50.544   6.596  18.239  0.00  0.00    +0.000 NA
ATOM     19  C   UNL     1      49.374   7.211  17.594  0.00  0.00    +0.000 C 
ATOM     20  H   UNL     1      51.295   7.252  18.452  0.00  0.00    +0.000 HD
ENDBRANCH  15  16
ENDBRANCH   6  15
ENDBRANCH   1   4
BRANCH   1  21
ATOM     21  C   UNL     1      44.982   4.928  11.827  0.00  0.00    +0.000 C 
BRANCH  21  22
ATOM     22  N   UNL     1      44.272   4.608  10.579  0.00  0.00    +0.000 N 
ATOM     23  H   UNL     1      43.293   4.348  10.699  0.00  0.00    +0.000 HD
BRANCH  22  27
ATOM     24  C   UNL     1      46.421   2.550   7.595  0.00  0.00    +0.000 A 
ATOM     25  C   UNL     1      45.714   1.825   8.554  0.00  0.00    +0.000 A 
ATOM     26  C   UNL     1      44.985   2.498   9.540  0.00  0.00    +0.000 A 
ATOM     27  C   UNL     1      44.920   3.896   9.571  0.00  0.00    +0.000 A 
ATOM     28  C   UNL     1      45.655   4.610   8.615  0.00  0.00    +0.000 A 
ATOM     29  C   UNL     1      46.406   3.945   7.636  0.00  0.00    +0.000 A 
BRANCH  24  31
ATOM     30  N   UNL     1      47.958   2.665   5.713  0.00  0.00    +0.000 N 
ATOM     31  C   UNL     1      47.225   1.869   6.550  0.00  0.00    +0.000 C 
ATOM     32  O   UNL     1      47.262   0.650   6.455  0.00  0.00    +0.000 OA
ATOM     33  H   UNL     1      48.582   2.186   5.074  0.00  0.00    +0.000 HD
ATOM     34  H   UNL     1      48.154   3.633   5.922  0.00  0.00    +0.000 HD
ENDBRANCH  24  31
ENDBRANCH  22  27
ENDBRANCH  21  22
ENDBRANCH   1  21
TORSDOF 8
ENDMDL
