MODEL 1
REMARK VINA RESULT:    -9.147      0.000      0.000
REMARK INTER + INTRA:         -11.825
REMARK INTER:                 -11.286
REMARK INTRA:                  -0.539
REMARK UNBOUND:                -0.539
REMARK  Name = 
REMARK  4 active torsions:
REMARK  status: ('A' for Active; 'I' for Inactive)
REMARK    1  A    between atoms: C_2  and  C_4
REMARK    2  A    between atoms: N_8  and  C_9
REMARK    3  A    between atoms: C_9  and  C_10
REMARK    4  A    between atoms: C_14  and  C_15
REMARK                            x       y       z     vdW  Elec       q    Type
REMARK                         _______ _______ _______ _____ _____    ______ ____
ROOT
ATOM      1  C   UNL     1      43.673   3.718  11.217  0.00  0.00    +0.000 C 
ENDROOT
BRANCH   1   6
ATOM      2  C   UNL     1      46.645   2.502   7.190  0.00  0.00    +0.000 A 
ATOM      3  C   UNL     1      46.082   3.715   7.567  0.00  0.00    +0.000 A 
ATOM      4  C   UNL     1      45.283   3.766   8.707  0.00  0.00    +0.000 A 
ATOM      5  C   UNL     1      45.052   2.611   9.448  0.00  0.00    +0.000 A 
ATOM      6  N   UNL     1      44.330   2.592  10.605  0.00  0.00    +0.000 N 
ATOM      7  N   UNL     1      45.575   1.425   9.075  0.00  0.00    +0.000 NA
ATOM      8  C   UNL     1      46.348   1.389   7.957  0.00  0.00    +0.000 A 
ATOM      9  H   UNL     1      44.173   1.661  10.968  0.00  0.00    +0.000 HD
BRANCH   2  11
ATOM     10  N   UNL     1      47.404   3.332   5.046  0.00  0.00    +0.000 N 
ATOM     11  C   UNL     1      47.519   2.369   6.010  0.00  0.00    +0.000 C 
ATOM     12  O   UNL     1      48.332   1.460   5.911  0.00  0.00    +0.000 OA
ATOM     13  H   UNL     1      48.065   3.290   4.282  0.00  0.00    +0.000 HD
ATOM     14  H   UNL     1      46.925   4.208   5.202  0.00  0.00    +0.000 HD
ENDBRANCH   2  11
ENDBRANCH   1   6
BRANCH   1  15
ATOM     15  C   UNL     1      44.661   4.738  11.727  0.00  0.00    +0.000 A 
ATOM     16  C   UNL     1      44.699   6.028  11.176  0.00  0.00    +0.000 A 
ATOM     17  C   UNL     1      45.567   6.985  11.689  0.00  0.00    +0.000 A 
ATOM     18  C   UNL     1      46.388   6.672  12.771  0.00  0.00    +0.000 A 
ATOM     19  C   UNL     1      46.354   5.401  13.377  0.00  0.00    +0.000 A 
ATOM     20  C   UNL     1      45.509   4.432  12.808  0.00  0.00    +0.000 A 
BRANCH  19  21
ATOM     21  C   UNL     1      47.116   5.121  14.608  0.00  0.00    +0.000 A 
ATOM     22  C   UNL     1      48.108   6.002  15.059  0.00  0.00    +0.000 A 
ATOM     23  C   UNL     1      48.791   5.732  16.238  0.00  0.00    +0.000 A 
ATOM     24  C   UNL     1      48.464   4.591  16.952  0.00  0.00    +0.000 A 
ATOM     25  C   UNL     1      47.463   3.774  16.453  0.00  0.00    +0.000 A 
ATOM     26  F   UNL     1      47.138   2.677  17.153  0.00  0.00    +0.000 F 
ATOM     27  N   UNL     1      46.778   4.012  15.313  0.00  0.00    +0.000 NA
ENDBRANCH  19  21
ENDBRANCH   1  15
TORSDOF 4
ENDMDL
MODEL 2
REMARK VINA RESULT:    -8.926      2.984      4.277
REMARK INTER + INTRA:         -11.553
REMARK INTER:                 -10.765
REMARK INTRA:                  -0.787
REMARK UNBOUND:                -0.539
REMARK  Name = 
REMARK  4 active torsions:
REMARK  status: ('A' for Active; 'I' for Inactive)
REMARK    1  A    between atoms: C_2  and  C_4
REMARK    2  A    between atoms: N_8  and  C_9
REMARK    3  A    between atoms: C_9  and  C_10
REMARK    4  A    between atoms: C_14  and  C_15
REMARK                            x       y       z     vdW  Elec       q    Type
REMARK                         _______ _______ _______ _____ _____    ______ ____
ROOT
ATOM      1  C   UNL     1      43.464   3.724  11.090  0.00  0.00    +0.000 C 
ENDROOT
BRANCH   1   6
ATOM      2  C   UNL     1      46.620   2.491   7.212  0.00  0.00    +0.000 A 
ATOM      3  C   UNL     1      46.039   3.705   7.556  0.00  0.00    +0.000 A 
ATOM      4  C   UNL     1      45.188   3.761   8.658  0.00  0.00    +0.000 A 
ATOM      5  C   UNL     1      44.924   2.609   9.393  0.00  0.00    +0.000 A 
ATOM      6  N   UNL     1      44.148   2.595  10.516  0.00  0.00    +0.000 N 
ATOM      7  N   UNL     1      45.464   1.422   9.051  0.00  0.00    +0.000 NA
ATOM      8  C   UNL     1      46.289   1.381   7.971  0.00  0.00    +0.000 A 
ATOM      9  H   UNL     1      43.975   1.667  10.875  0.00  0.00    +0.000 HD
BRANCH   2  11
ATOM     10  N   UNL     1      47.469   3.303   5.096  0.00  0.00    +0.000 N 
ATOM     11  C   UNL     1      47.548   2.352   6.075  0.00  0.00    +0.000 C 
ATOM     12  O   UNL     1      48.372   1.449   6.023  0.00  0.00    +0.000 OA
ATOM     13  H   UNL     1      48.164   3.259   4.362  0.00  0.00    +0.000 HD
ATOM     14  H   UNL     1      46.975   4.176   5.219  0.00  0.00    +0.000 HD
ENDBRANCH   2  11
ENDBRANCH   1   6
BRANCH   1  15
ATOM     15  C   UNL     1      44.399   4.613  11.873  0.00  0.00    +0.000 A 
ATOM     16  C   UNL     1      45.339   4.056  12.752  0.00  0.00    +0.000 A 
ATOM     17  C   UNL     1      46.241   4.872  13.425  0.00  0.00    +0.000 A 
ATOM     18  C   UNL     1      46.229   6.249  13.209  0.00  0.00    +0.000 A 
ATOM     19  C   UNL     1      45.326   6.844  12.307  0.00  0.00    +0.000 A 
ATOM     20  C   UNL     1      44.387   6.007  11.679  0.00  0.00    +0.000 A 
BRANCH  19  21
ATOM     21  C   UNL     1      45.413   8.278  11.975  0.00  0.00    +0.000 A 
ATOM     22  C   UNL     1      46.525   9.041  12.355  0.00  0.00    +0.000 A 
ATOM     23  C   UNL     1      46.597  10.383  12.004  0.00  0.00    +0.000 A 
ATOM     24  C   UNL     1      45.562  10.938  11.269  0.00  0.00    +0.000 A 
ATOM     25  C   UNL     1      44.502  10.119  10.917  0.00  0.00    +0.000 A 
ATOM     26  F   UNL     1      43.507  10.654  10.195  0.00  0.00    +0.000 F 
ATOM     27  N   UNL     1      44.405   8.811  11.239  0.00  0.00    +0.000 NA
ENDBRANCH  19  21
ENDBRANCH   1  15
TORSDOF 4
ENDMDL
MODEL 3
REMARK VINA RESULT:    -8.648      2.675      3.912
REMARK INTER + INTRA:         -11.210
REMARK INTER:                 -10.436
REMARK INTRA:                  -0.774
REMARK UNBOUND:                -0.539
REMARK  Name = 
REMARK  4 active torsions:
REMARK  status: ('A' for Active; 'I' for Inactive)
REMARK    1  A    between atoms: C_2  and  C_4
REMARK    2  A    between atoms: N_8  and  C_9
REMARK    3  A    between atoms: C_9  and  C_10
REMARK    4  A    between atoms: C_14  and  C_15
REMARK                            x       y       z     vdW  Elec       q    Type
REMARK                         _______ _______ _______ _____ _____    ______ ____
ROOT
ATOM      1  C   UNL     1      43.622   3.967  11.237  0.00  0.00    +0.000 C 
ENDROOT
BRANCH   1   6
ATOM      2  C   UNL     1      46.590   2.518   7.285  0.00  0.00    +0.000 A 
ATOM      3  C   UNL     1      46.160   3.779   7.680  0.00  0.00    +0.000 A 
ATOM      4  C   UNL     1      45.327   3.892   8.792  0.00  0.00    +0.000 A 
ATOM      5  C   UNL     1      44.931   2.753   9.485  0.00  0.00    +0.000 A 
ATOM      6  N   UNL     1      44.165   2.788  10.614  0.00  0.00    +0.000 N 
ATOM      7  N   UNL     1      45.325   1.524   9.094  0.00  0.00    +0.000 NA
ATOM      8  C   UNL     1      46.133   1.427   8.005  0.00  0.00    +0.000 A 
ATOM      9  H   UNL     1      43.884   1.873  10.940  0.00  0.00    +0.000 HD
BRANCH   2  11
ATOM     10  N   UNL     1      47.368   3.192   5.094  0.00  0.00    +0.000 N 
ATOM     11  C   UNL     1      47.490   2.314   6.136  0.00  0.00    +0.000 C 
ATOM     12  O   UNL     1      48.328   1.423   6.124  0.00  0.00    +0.000 OA
ATOM     13  H   UNL     1      48.043   3.107   4.347  0.00  0.00    +0.000 HD
ATOM     14  H   UNL     1      46.862   4.064   5.170  0.00  0.00    +0.000 HD
ENDBRANCH   2  11
ENDBRANCH   1   6
BRANCH   1  15
ATOM     15  C   UNL     1      44.656   4.698  12.059  0.00  0.00    +0.000 A 
ATOM     16  C   UNL     1      45.479   3.996  12.952  0.00  0.00    +0.000 A 
ATOM     17  C   UNL     1      46.472   4.661  13.662  0.00  0.00    +0.000 A 
ATOM     18  C   UNL     1      46.668   6.027  13.470  0.00  0.00    +0.000 A 
ATOM     19  C   UNL     1      45.888   6.762  12.556  0.00  0.00    +0.000 A 
ATOM     20  C   UNL     1      44.854   6.080  11.890  0.00  0.00    +0.000 A 
BRANCH  19  21
ATOM     21  C   UNL     1      46.194   8.171  12.251  0.00  0.00    +0.000 A 
ATOM     22  C   UNL     1      45.179   9.137  12.204  0.00  0.00    +0.000 A 
ATOM     23  C   UNL     1      45.497  10.463  11.944  0.00  0.00    +0.000 A 
ATOM     24  C   UNL     1      46.825  10.806  11.746  0.00  0.00    +0.000 A 
ATOM     25  C   UNL     1      47.775   9.801  11.822  0.00  0.00    +0.000 A 
ATOM     26  F   UNL     1      49.061  10.137  11.644  0.00  0.00    +0.000 F 
ATOM     27  N   UNL     1      47.498   8.504  12.077  0.00  0.00    +0.000 NA
ENDBRANCH  19  21
ENDBRANCH   1  15
TORSDOF 4
ENDMDL
MODEL 4
REMARK VINA RESULT:    -8.368      3.669      7.290
REMARK INTER + INTRA:         -10.863
REMARK INTER:                 -10.051
REMARK INTRA:                  -0.813
REMARK UNBOUND:                -0.539
REMARK  Name = 
REMARK  4 active torsions:
REMARK  status: ('A' for Active; 'I' for Inactive)
REMARK    1  A    between atoms: C_2  and  C_4
REMARK    2  A    between atoms: N_8  and  C_9
REMARK    3  A    between atoms: C_9  and  C_10
REMARK    4  A    between atoms: C_14  and  C_15
REMARK                            x       y       z     vdW  Elec       q    Type
REMARK                         _______ _______ _______ _____ _____    ______ ____
ROOT
ATOM      1  C   UNL     1      44.665   6.445  12.277  0.00  0.00    +0.000 C 
ENDROOT
BRANCH   1   6
ATOM      2  C   UNL     1      49.622   7.795  12.650  0.00  0.00    +0.000 A 
ATOM      3  C   UNL     1      48.762   7.797  11.559  0.00  0.00    +0.000 A 
ATOM      4  C   UNL     1      47.453   7.350  11.727  0.00  0.00    +0.000 A 
ATOM      5  C   UNL     1      47.024   6.903  12.973  0.00  0.00    +0.000 A 
ATOM      6  N   UNL     1      45.744   6.504  13.229  0.00  0.00    +0.000 N 
ATOM      7  N   UNL     1      47.859   6.875  14.031  0.00  0.00    +0.000 NA
ATOM      8  C   UNL     1      49.135   7.309  13.852  0.00  0.00    +0.000 A 
ATOM      9  H   UNL     1      45.620   6.117  14.154  0.00  0.00    +0.000 HD
BRANCH   2  11
ATOM     10  N   UNL     1      51.835   7.977  13.615  0.00  0.00    +0.000 N 
ATOM     11  C   UNL     1      51.014   8.272  12.562  0.00  0.00    +0.000 C 
ATOM     12  O   UNL     1      51.427   8.874  11.581  0.00  0.00    +0.000 OA
ATOM     13  H   UNL     1      52.809   8.226  13.515  0.00  0.00    +0.000 HD
ATOM     14  H   UNL     1      51.597   7.291  14.319  0.00  0.00    +0.000 HD
ENDBRANCH   2  11
ENDBRANCH   1   6
BRANCH   1  15
ATOM     15  C   UNL     1      44.451   5.046  11.754  0.00  0.00    +0.000 A 
ATOM     16  C   UNL     1      43.459   4.224  12.308  0.00  0.00    +0.000 A 
ATOM     17  C   UNL     1      43.221   2.959  11.784  0.00  0.00    +0.000 A 
ATOM     18  C   UNL     1      43.954   2.512  10.687  0.00  0.00    +0.000 A 
ATOM     19  C   UNL     1      44.933   3.320  10.077  0.00  0.00    +0.000 A 
ATOM     20  C   UNL     1      45.195   4.573  10.657  0.00  0.00    +0.000 A 
BRANCH  19  21
ATOM     21  C   UNL     1      45.602   2.900   8.831  0.00  0.00    +0.000 A 
ATOM     22  C   UNL     1      45.904   3.828   7.825  0.00  0.00    +0.000 A 
ATOM     23  C   UNL     1      46.561   3.413   6.674  0.00  0.00    +0.000 A 
ATOM     24  C   UNL     1      46.915   2.079   6.552  0.00  0.00    +0.000 A 
ATOM     25  C   UNL     1      46.598   1.223   7.592  0.00  0.00    +0.000 A 
ATOM     26  F   UNL     1      46.953  -0.065   7.478  0.00  0.00    +0.000 F 
ATOM     27  N   UNL     1      45.964   1.597   8.725  0.00  0.00    +0.000 NA
ENDBRANCH  19  21
ENDBRANCH   1  15
TORSDOF 4
ENDMDL
MODEL 5
REMARK VINA RESULT:    -8.322      3.636      7.270
REMARK INTER + INTRA:         -10.807
REMARK INTER:                 -10.497
REMARK INTRA:                  -0.310
REMARK UNBOUND:                -0.539
REMARK  Name = 
REMARK  4 active torsions:
REMARK  status: ('A' for Active; 'I' for Inactive)
REMARK    1  A    between atoms: C_2  and  C_4
REMARK    2  A    between atoms: N_8  and  C_9
REMARK    3  A    between atoms: C_9  and  C_10
REMARK    4  A    between atoms: C_14  and  C_15
REMARK                            x       y       z     vdW  Elec       q    Type
REMARK                         _______ _______ _______ _____ _____    ______ ____
ROOT
ATOM      1  C   UNL     1      43.243   6.437  11.134  0.00  0.00    +0.000 C 
ENDROOT
BRANCH   1   6
ATOM      2  C   UNL     1      47.826   6.941  13.429  0.00  0.00    +0.000 A 
ATOM      3  C   UNL     1      46.807   6.019  13.634  0.00  0.00    +0.000 A 
ATOM      4  C   UNL     1      45.638   6.123  12.883  0.00  0.00    +0.000 A 
ATOM      5  C   UNL     1      45.500   7.145  11.948  0.00  0.00    +0.000 A 
ATOM      6  N   UNL     1      44.411   7.278  11.136  0.00  0.00    +0.000 N 
ATOM      7  N   UNL     1      46.474   8.058  11.760  0.00  0.00    +0.000 NA
ATOM      8  C   UNL     1      47.607   7.947  12.504  0.00  0.00    +0.000 A 
ATOM      9  H   UNL     1      44.421   8.125  10.584  0.00  0.00    +0.000 HD
BRANCH   2  11
ATOM     10  N   UNL     1      50.176   7.501  13.584  0.00  0.00    +0.000 N 
ATOM     11  C   UNL     1      49.101   6.887  14.167  0.00  0.00    +0.000 C 
ATOM     12  O   UNL     1      49.190   6.349  15.261  0.00  0.00    +0.000 OA
ATOM     13  H   UNL     1      51.026   7.541  14.130  0.00  0.00    +0.000 HD
ATOM     14  H   UNL     1      50.085   8.146  12.811  0.00  0.00    +0.000 HD
ENDBRANCH   2  11
ENDBRANCH   1   6
BRANCH   1  15
ATOM     15  C   UNL     1      43.599   4.977  10.994  0.00  0.00    +0.000 A 
ATOM     16  C   UNL     1      43.004   4.017  11.826  0.00  0.00    +0.000 A 
ATOM     17  C   UNL     1      43.287   2.667  11.654  0.00  0.00    +0.000 A 
ATOM     18  C   UNL     1      44.147   2.260  10.636  0.00  0.00    +0.000 A 
ATOM     19  C   UNL     1      44.736   3.188   9.755  0.00  0.00    +0.000 A 
ATOM     20  C   UNL     1      44.480   4.552   9.982  0.00  0.00    +0.000 A 
BRANCH  19  21
ATOM     21  C   UNL     1      45.527   2.742   8.594  0.00  0.00    +0.000 A 
ATOM     22  C   UNL     1      45.894   3.640   7.582  0.00  0.00    +0.000 A 
ATOM     23  C   UNL     1      46.665   3.202   6.514  0.00  0.00    +0.000 A 
ATOM     24  C   UNL     1      47.066   1.877   6.478  0.00  0.00    +0.000 A 
ATOM     25  C   UNL     1      46.678   1.051   7.520  0.00  0.00    +0.000 A 
ATOM     26  F   UNL     1      47.078  -0.228   7.491  0.00  0.00    +0.000 F 
ATOM     27  N   UNL     1      45.933   1.448   8.575  0.00  0.00    +0.000 NA
ENDBRANCH  19  21
ENDBRANCH   1  15
TORSDOF 4
ENDMDL
MODEL 6
REMARK VINA RESULT:    -8.103      3.798      8.497
REMARK INTER + INTRA:         -10.537
REMARK INTER:                 -10.013
REMARK INTRA:                  -0.525
REMARK UNBOUND:                -0.539
REMARK  Name = 
REMARK  4 active torsions:
REMARK  status: ('A' for Active; 'I' for Inactive)
REMARK    1  A    between atoms: C_2  and  C_4
REMARK    2  A    between atoms: N_8  and  C_9
REMARK    3  A    between atoms: C_9  and  C_10
REMARK    4  A    between atoms: C_14  and  C_15
REMARK                            x       y       z     vdW  Elec       q    Type
REMARK                         _______ _______ _______ _____ _____    ______ ____
ROOT
ATOM      1  C   UNL     1      46.248   5.385  13.534  0.00  0.00    +0.000 C 
ENDROOT
BRANCH   1   6
ATOM      2  C   UNL     1      48.523   4.439  18.057  0.00  0.00    +0.000 A 
ATOM      3  C   UNL     1      48.769   5.424  17.108  0.00  0.00    +0.000 A 
ATOM      4  C   UNL     1      48.012   5.440  15.938  0.00  0.00    +0.000 A 
ATOM      5  C   UNL     1      47.031   4.475  15.729  0.00  0.00    +0.000 A 
ATOM      6  N   UNL     1      46.213   4.460  14.637  0.00  0.00    +0.000 N 
ATOM      7  N   UNL     1      46.804   3.502  16.634  0.00  0.00    +0.000 NA
ATOM      8  C   UNL     1      47.553   3.495  17.769  0.00  0.00    +0.000 A 
ATOM      9  H   UNL     1      45.623   3.640  14.587  0.00  0.00    +0.000 HD
BRANCH   2  11
ATOM     10  N   UNL     1      48.647   3.718  20.364  0.00  0.00    +0.000 N 
ATOM     11  C   UNL     1      49.264   4.365  19.329  0.00  0.00    +0.000 C 
ATOM     12  O   UNL     1      50.389   4.830  19.447  0.00  0.00    +0.000 OA
ATOM     13  H   UNL     1      49.190   3.589  21.208  0.00  0.00    +0.000 HD
ATOM     14  H   UNL     1      47.837   3.127  20.235  0.00  0.00    +0.000 HD
ENDBRANCH   2  11
ENDBRANCH   1   6
BRANCH   1  15
ATOM     15  C   UNL     1      45.319   4.970  12.420  0.00  0.00    +0.000 A 
ATOM     16  C   UNL     1      43.980   5.387  12.419  0.00  0.00    +0.000 A 
ATOM     17  C   UNL     1      43.142   5.056  11.360  0.00  0.00    +0.000 A 
ATOM     18  C   UNL     1      43.639   4.327  10.281  0.00  0.00    +0.000 A 
ATOM     19  C   UNL     1      44.986   3.921  10.225  0.00  0.00    +0.000 A 
ATOM     20  C   UNL     1      45.801   4.219  11.332  0.00  0.00    +0.000 A 
BRANCH  19  21
ATOM     21  C   UNL     1      45.540   3.278   9.020  0.00  0.00    +0.000 A 
ATOM     22  C   UNL     1      45.929   4.039   7.909  0.00  0.00    +0.000 A 
ATOM     23  C   UNL     1      46.476   3.412   6.797  0.00  0.00    +0.000 A 
ATOM     24  C   UNL     1      46.636   2.036   6.817  0.00  0.00    +0.000 A 
ATOM     25  C   UNL     1      46.243   1.351   7.955  0.00  0.00    +0.000 A 
ATOM     26  F   UNL     1      46.410   0.021   7.978  0.00  0.00    +0.000 F 
ATOM     27  N   UNL     1      45.712   1.932   9.053  0.00  0.00    +0.000 NA
ENDBRANCH  19  21
ENDBRANCH   1  15
TORSDOF 4
ENDMDL
MODEL 7
REMARK VINA RESULT:    -7.883      3.802      7.011
REMARK INTER + INTRA:         -10.265
REMARK INTER:                  -9.598
REMARK INTRA:                  -0.668
REMARK UNBOUND:                -0.539
REMARK  Name = 
REMARK  4 active torsions:
REMARK  status: ('A' for Active; 'I' for Inactive)
REMARK    1  A    between atoms: C_2  and  C_4
REMARK    2  A    between atoms: N_8  and  C_9
REMARK    3  A    between atoms: C_9  and  C_10
REMARK    4  A    between atoms: C_14  and  C_15
REMARK                            x       y       z     vdW  Elec       q    Type
REMARK                         _______ _______ _______ _____ _____    ______ ____
ROOT
ATOM      1  C   UNL     1      45.748   4.689  13.908  0.00  0.00    +0.000 C 
ENDROOT
BRANCH   1   6
ATOM      2  C   UNL     1      48.663   8.500  12.037  0.00  0.00    +0.000 A 
ATOM      3  C   UNL     1      47.285   8.398  12.172  0.00  0.00    +0.000 A 
ATOM      4  C   UNL     1      46.741   7.226  12.695  0.00  0.00    +0.000 A 
ATOM      5  C   UNL     1      47.575   6.176  13.066  0.00  0.00    +0.000 A 
ATOM      6  N   UNL     1      47.122   5.022  13.636  0.00  0.00    +0.000 N 
ATOM      7  N   UNL     1      48.912   6.258  12.915  0.00  0.00    +0.000 NA
ATOM      8  C   UNL     1      49.429   7.405  12.399  0.00  0.00    +0.000 A 
ATOM      9  H   UNL     1      47.842   4.321  13.756  0.00  0.00    +0.000 HD
BRANCH   2  11
ATOM     10  N   UNL     1      50.648   9.612  11.209  0.00  0.00    +0.000 N 
ATOM     11  C   UNL     1      49.319   9.713  11.514  0.00  0.00    +0.000 C 
ATOM     12  O   UNL     1      48.699  10.751  11.329  0.00  0.00    +0.000 OA
ATOM     13  H   UNL     1      51.075  10.415  10.768  0.00  0.00    +0.000 HD
ATOM     14  H   UNL     1      51.125   8.725  11.126  0.00  0.00    +0.000 HD
ENDBRANCH   2  11
ENDBRANCH   1   6
BRANCH   1  15
ATOM     15  C   UNL     1      44.941   4.546  12.642  0.00  0.00    +0.000 A 
ATOM     16  C   UNL     1      43.681   5.153  12.529  0.00  0.00    +0.000 A 
ATOM     17  C   UNL     1      42.966   5.072  11.340  0.00  0.00    +0.000 A 
ATOM     18  C   UNL     1      43.512   4.406  10.244  0.00  0.00    +0.000 A 
ATOM     19  C   UNL     1      44.789   3.816  10.303  0.00  0.00    +0.000 A 
ATOM     20  C   UNL     1      45.470   3.862  11.532  0.00  0.00    +0.000 A 
BRANCH  19  21
ATOM     21  C   UNL     1      45.420   3.240   9.101  0.00  0.00    +0.000 A 
ATOM     22  C   UNL     1      45.822   4.057   8.035  0.00  0.00    +0.000 A 
ATOM     23  C   UNL     1      46.441   3.494   6.927  0.00  0.00    +0.000 A 
ATOM     24  C   UNL     1      46.659   2.126   6.906  0.00  0.00    +0.000 A 
ATOM     25  C   UNL     1      46.249   1.384   8.001  0.00  0.00    +0.000 A 
ATOM     26  F   UNL     1      46.472   0.062   7.986  0.00  0.00    +0.000 F 
ATOM     27  N   UNL     1      45.648   1.903   9.095  0.00  0.00    +0.000 NA
ENDBRANCH  19  21
ENDBRANCH   1  15
TORSDOF 4
ENDMDL
MODEL 8
REMARK VINA RESULT:    -7.656      3.390      4.185
REMARK INTER + INTRA:          -9.985
REMARK INTER:                  -9.168
REMARK INTRA:                  -0.817
REMARK UNBOUND:                -0.539
REMARK  Name = 
REMARK  4 active torsions:
REMARK  status: ('A' for Active; 'I' for Inactive)
REMARK    1  A    between atoms: C_2  and  C_4
REMARK    2  A    between atoms: N_8  and  C_9
REMARK    3  A    between atoms: C_9  and  C_10
REMARK    4  A    between atoms: C_14  and  C_15
REMARK                            x       y       z     vdW  Elec       q    Type
REMARK                         _______ _______ _______ _____ _____    ______ ____
ROOT
ATOM      1  C   UNL     1      44.626   5.979  10.968  0.00  0.00    +0.000 C 
ENDROOT
BRANCH   1   6
ATOM      2  C   UNL     1      46.490   2.801   7.370  0.00  0.00    +0.000 A 
ATOM      3  C   UNL     1      46.670   4.166   7.553  0.00  0.00    +0.000 A 
ATOM      4  C   UNL     1      46.019   4.799   8.611  0.00  0.00    +0.000 A 
ATOM      5  C   UNL     1      45.196   4.066   9.461  0.00  0.00    +0.000 A 
ATOM      6  N   UNL     1      44.572   4.602  10.549  0.00  0.00    +0.000 N 
ATOM      7  N   UNL     1      44.997   2.745   9.275  0.00  0.00    +0.000 NA
ATOM      8  C   UNL     1      45.634   2.142   8.236  0.00  0.00    +0.000 A 
ATOM      9  H   UNL     1      43.935   3.963  11.005  0.00  0.00    +0.000 HD
BRANCH   2  11
ATOM     10  N   UNL     1      47.798   2.793   5.333  0.00  0.00    +0.000 N 
ATOM     11  C   UNL     1      47.159   2.053   6.290  0.00  0.00    +0.000 C 
ATOM     12  O   UNL     1      47.172   0.830   6.266  0.00  0.00    +0.000 OA
ATOM     13  H   UNL     1      48.331   2.280   4.644  0.00  0.00    +0.000 HD
ATOM     14  H   UNL     1      48.006   3.775   5.448  0.00  0.00    +0.000 HD
ENDBRANCH   2  11
ENDBRANCH   1   6
BRANCH   1  15
ATOM     15  C   UNL     1      45.802   6.248  11.874  0.00  0.00    +0.000 A 
ATOM     16  C   UNL     1      45.950   5.540  13.076  0.00  0.00    +0.000 A 
ATOM     17  C   UNL     1      47.066   5.745  13.879  0.00  0.00    +0.000 A 
ATOM     18  C   UNL     1      48.057   6.639  13.478  0.00  0.00    +0.000 A 
ATOM     19  C   UNL     1      47.965   7.342  12.261  0.00  0.00    +0.000 A 
ATOM     20  C   UNL     1      46.802   7.161  11.492  0.00  0.00    +0.000 A 
BRANCH  19  21
ATOM     21  C   UNL     1      49.081   8.174  11.775  0.00  0.00    +0.000 A 
ATOM     22  C   UNL     1      48.936   9.560  11.625  0.00  0.00    +0.000 A 
ATOM     23  C   UNL     1      50.011  10.326  11.193  0.00  0.00    +0.000 A 
ATOM     24  C   UNL     1      51.216   9.697  10.929  0.00  0.00    +0.000 A 
ATOM     25  C   UNL     1      51.290   8.326  11.114  0.00  0.00    +0.000 A 
ATOM     26  F   UNL     1      52.461   7.720  10.870  0.00  0.00    +0.000 F 
ATOM     27  N   UNL     1      50.264   7.555  11.536  0.00  0.00    +0.000 NA
ENDBRANCH  19  21
ENDBRANCH   1  15
TORSDOF 4
ENDMDL
MODEL 9
REMARK VINA RESULT:    -7.592      3.276      7.529
REMARK INTER + INTRA:          -9.906
REMARK INTER:                  -9.981
REMARK INTRA:                   0.075
REMARK UNBOUND:                -0.539
REMARK  Name = 
REMARK  4 active torsions:
REMARK  status: ('A' for Active; 'I' for Inactive)
REMARK    1  A    between atoms: C_2  and  C_4
REMARK    2  A    between atoms: N_8  and  C_9
REMARK    3  A    between atoms: C_9  and  C_10
REMARK    4  A    between atoms: C_14  and  C_15
REMARK                            x       y       z     vdW  Elec       q    Type
REMARK                         _______ _______ _______ _____ _____    ______ ____
ROOT
ATOM      1  C   UNL     1      45.497   7.156  11.363  0.00  0.00    +0.000 C 
ENDROOT
BRANCH   1   6
ATOM      2  C   UNL     1      47.373   4.445  15.320  0.00  0.00    +0.000 A 
ATOM      3  C   UNL     1      46.139   4.384  14.684  0.00  0.00    +0.000 A 
ATOM      4  C   UNL     1      45.873   5.263  13.637  0.00  0.00    +0.000 A 
ATOM      5  C   UNL     1      46.833   6.192  13.246  0.00  0.00    +0.000 A 
ATOM      6  N   UNL     1      46.668   7.047  12.195  0.00  0.00    +0.000 N 
ATOM      7  N   UNL     1      48.023   6.274  13.874  0.00  0.00    +0.000 NA
ATOM      8  C   UNL     1      48.268   5.413  14.897  0.00  0.00    +0.000 A 
ATOM      9  H   UNL     1      47.414   7.722  12.103  0.00  0.00    +0.000 HD
BRANCH   2  11
ATOM     10  N   UNL     1      46.772   3.265  17.346  0.00  0.00    +0.000 N 
ATOM     11  C   UNL     1      47.741   3.536  16.420  0.00  0.00    +0.000 C 
ATOM     12  O   UNL     1      48.849   3.020  16.486  0.00  0.00    +0.000 OA
ATOM     13  H   UNL     1      46.996   2.573  18.049  0.00  0.00    +0.000 HD
ATOM     14  H   UNL     1      45.796   3.479  17.195  0.00  0.00    +0.000 HD
ENDBRANCH   2  11
ENDBRANCH   1   6
BRANCH   1  15
ATOM     15  C   UNL     1      44.968   5.804  10.953  0.00  0.00    +0.000 A 
ATOM     16  C   UNL     1      43.731   5.349  11.434  0.00  0.00    +0.000 A 
ATOM     17  C   UNL     1      43.217   4.130  11.007  0.00  0.00    +0.000 A 
ATOM     18  C   UNL     1      43.920   3.365  10.078  0.00  0.00    +0.000 A 
ATOM     19  C   UNL     1      45.147   3.803   9.542  0.00  0.00    +0.000 A 
ATOM     20  C   UNL     1      45.675   5.011  10.029  0.00  0.00    +0.000 A 
BRANCH  19  21
ATOM     21  C   UNL     1      45.813   3.061   8.456  0.00  0.00    +0.000 A 
ATOM     22  C   UNL     1      46.262   3.718   7.302  0.00  0.00    +0.000 A 
ATOM     23  C   UNL     1      46.914   3.002   6.307  0.00  0.00    +0.000 A 
ATOM     24  C   UNL     1      47.115   1.643   6.484  0.00  0.00    +0.000 A 
ATOM     25  C   UNL     1      46.657   1.065   7.656  0.00  0.00    +0.000 A 
ATOM     26  F   UNL     1      46.865  -0.248   7.832  0.00  0.00    +0.000 F 
ATOM     27  N   UNL     1      46.024   1.734   8.644  0.00  0.00    +0.000 NA
ENDBRANCH  19  21
ENDBRANCH   1  15
TORSDOF 4
ENDMDL
