MODEL 1
REMARK VINA RESULT:    -9.341      0.000      0.000
REMARK INTER + INTRA:         -11.946
REMARK INTER:                 -11.526
REMARK INTRA:                  -0.420
REMARK UNBOUND:                -0.420
REMARK  Name = 
REMARK  4 active torsions:
REMARK  status: ('A' for Active; 'I' for Inactive)
REMARK    1  A    between atoms: C_2  and  C_4
REMARK    2  A    between atoms: N_8  and  C_9
REMARK    3  A    between atoms: C_9  and  C_10
REMARK    4  A    between atoms: C_14  and  C_15
REMARK                            x       y       z     vdW  Elec       q    Type
REMARK                         _______ _______ _______ _____ _____    ______ ____
ROOT
ATOM      1  C   UNL     1      44.133   4.809  11.441  0.00  0.00    +0.000 C 
ATOM      2  C   UNL     1      42.848   4.924  12.240  0.00  0.00    +0.000 C 
ATOM      3  C   UNL     1      43.035   5.774  11.027  0.00  0.00    +0.000 C 
ENDROOT
BRANCH   1   8
ATOM      4  C   UNL     1      46.592   2.691   7.385  0.00  0.00    +0.000 A 
ATOM      5  C   UNL     1      46.420   4.022   7.743  0.00  0.00    +0.000 A 
ATOM      6  C   UNL     1      45.669   4.329   8.876  0.00  0.00    +0.000 A 
ATOM      7  C   UNL     1      45.125   3.306   9.639  0.00  0.00    +0.000 A 
ATOM      8  N   UNL     1      44.313   3.529  10.747  0.00  0.00    +0.000 N 
ATOM      9  N   UNL     1      45.299   2.007   9.306  0.00  0.00    +0.000 NA
ATOM     10  C   UNL     1      46.003   1.723   8.185  0.00  0.00    +0.000 A 
ATOM     11  H   UNL     1      44.201   2.659  11.254  0.00  0.00    +0.000 HD
BRANCH   4  13
ATOM     12  N   UNL     1      47.181   3.064   5.065  0.00  0.00    +0.000 N 
ATOM     13  C   UNL     1      47.335   2.278   6.175  0.00  0.00    +0.000 C 
ATOM     14  O   UNL     1      48.070   1.304   6.173  0.00  0.00    +0.000 OA
ATOM     15  H   UNL     1      47.754   2.827   4.263  0.00  0.00    +0.000 HD
ATOM     16  H   UNL     1      46.792   3.993   5.103  0.00  0.00    +0.000 HD
ENDBRANCH   4  13
ENDBRANCH   1   8
BRANCH   1  17
ATOM     17  C   UNL     1      45.434   5.364  12.005  0.00  0.00    +0.000 A 
ATOM     18  C   UNL     1      46.005   6.531  11.483  0.00  0.00    +0.000 A 
ATOM     19  C   UNL     1      47.064   7.167  12.125  0.00  0.00    +0.000 A 
ATOM     20  C   UNL     1      47.571   6.645  13.317  0.00  0.00    +0.000 A 
ATOM     21  C   UNL     1      47.060   5.462  13.873  0.00  0.00    +0.000 A 
ATOM     22  C   UNL     1      46.016   4.826  13.170  0.00  0.00    +0.000 A 
BRANCH  21  23
ATOM     23  C   UNL     1      47.523   4.950  15.177  0.00  0.00    +0.000 A 
ATOM     24  N   UNL     1      48.573   5.568  15.761  0.00  0.00    +0.000 NA
ATOM     25  C   UNL     1      48.908   5.149  16.994  0.00  0.00    +0.000 A 
ATOM     26  C   UNL     1      48.255   4.142  17.661  0.00  0.00    +0.000 A 
ATOM     27  C   UNL     1      47.208   3.567  16.982  0.00  0.00    +0.000 A 
ATOM     28  N   UNL     1      46.819   3.950  15.752  0.00  0.00    +0.000 NA
ENDBRANCH  21  23
ENDBRANCH   1  17
TORSDOF 4
ENDMDL
MODEL 2
REMARK VINA RESULT:    -8.537      2.001      3.513
REMARK INTER + INTRA:         -10.953
REMARK INTER:                 -10.426
REMARK INTRA:                  -0.527
REMARK UNBOUND:                -0.420
REMARK  Name = 
REMARK  4 active torsions:
REMARK  status: ('A' for Active; 'I' for Inactive)
REMARK    1  A    between atoms: C_2  and  C_4
REMARK    2  A    between atoms: N_8  and  C_9
REMARK    3  A    between atoms: C_9  and  C_10
REMARK    4  A    between atoms: C_14  and  C_15
REMARK                            x       y       z     vdW  Elec       q    Type
REMARK                         _______ _______ _______ _____ _____    ______ ____
ROOT
ATOM      1  C   UNL     1      43.901   4.952  11.567  0.00  0.00    +0.000 C 
ATOM      2  C   UNL     1      42.505   5.173  12.118  0.00  0.00    +0.000 C 
ATOM      3  C   UNL     1      42.988   6.019  10.988  0.00  0.00    +0.000 C 
ENDROOT
BRANCH   1   8
ATOM      4  C   UNL     1      46.465   2.820   7.583  0.00  0.00    +0.000 A 
ATOM      5  C   UNL     1      46.288   4.152   7.936  0.00  0.00    +0.000 A 
ATOM      6  C   UNL     1      45.507   4.463   9.047  0.00  0.00    +0.000 A 
ATOM      7  C   UNL     1      44.937   3.444   9.795  0.00  0.00    +0.000 A 
ATOM      8  N   UNL     1      44.095   3.672  10.880  0.00  0.00    +0.000 N 
ATOM      9  N   UNL     1      45.115   2.144   9.468  0.00  0.00    +0.000 NA
ATOM     10  C   UNL     1      45.849   1.856   8.367  0.00  0.00    +0.000 A 
ATOM     11  H   UNL     1      43.965   2.802  11.384  0.00  0.00    +0.000 HD
BRANCH   4  13
ATOM     12  N   UNL     1      47.139   3.202   5.288  0.00  0.00    +0.000 N 
ATOM     13  C   UNL     1      47.240   2.403   6.396  0.00  0.00    +0.000 C 
ATOM     14  O   UNL     1      47.954   1.414   6.409  0.00  0.00    +0.000 OA
ATOM     15  H   UNL     1      47.734   2.960   4.504  0.00  0.00    +0.000 HD
ATOM     16  H   UNL     1      46.767   4.138   5.322  0.00  0.00    +0.000 HD
ENDBRANCH   4  13
ENDBRANCH   1   8
BRANCH   1  17
ATOM     17  C   UNL     1      45.118   5.378  12.378  0.00  0.00    +0.000 A 
ATOM     18  C   UNL     1      45.742   4.488  13.261  0.00  0.00    +0.000 A 
ATOM     19  C   UNL     1      46.974   4.786  13.837  0.00  0.00    +0.000 A 
ATOM     20  C   UNL     1      47.612   5.991  13.533  0.00  0.00    +0.000 A 
ATOM     21  C   UNL     1      47.022   6.936  12.679  0.00  0.00    +0.000 A 
ATOM     22  C   UNL     1      45.756   6.614  12.149  0.00  0.00    +0.000 A 
BRANCH  21  23
ATOM     23  C   UNL     1      47.725   8.170  12.277  0.00  0.00    +0.000 A 
ATOM     24  N   UNL     1      49.013   8.063  11.886  0.00  0.00    +0.000 NA
ATOM     25  C   UNL     1      49.597   9.184  11.426  0.00  0.00    +0.000 A 
ATOM     26  C   UNL     1      48.962  10.399  11.352  0.00  0.00    +0.000 A 
ATOM     27  C   UNL     1      47.658  10.411  11.784  0.00  0.00    +0.000 A 
ATOM     28  N   UNL     1      47.017   9.320  12.243  0.00  0.00    +0.000 NA
ENDBRANCH  21  23
ENDBRANCH   1  17
TORSDOF 4
ENDMDL
MODEL 3
REMARK VINA RESULT:    -8.120      1.875      3.002
REMARK INTER + INTRA:         -10.439
REMARK INTER:                  -9.668
REMARK INTRA:                  -0.771
REMARK UNBOUND:                -0.420
REMARK  Name = 
REMARK  4 active torsions:
REMARK  status: ('A' for Active; 'I' for Inactive)
REMARK    1  A    between atoms: C_2  and  C_4
REMARK    2  A    between atoms: N_8  and  C_9
REMARK    3  A    between atoms: C_9  and  C_10
REMARK    4  A    between atoms: C_14  and  C_15
REMARK                            x       y       z     vdW  Elec       q    Type
REMARK                         _______ _______ _______ _____ _____    ______ ____
ROOT
ATOM      1  C   UNL     1      44.374   5.479  11.100  0.00  0.00    +0.000 C 
ATOM      2  C   UNL     1      43.121   4.623  11.061  0.00  0.00    +0.000 C 
ATOM      3  C   UNL     1      42.994   6.099  11.244  0.00  0.00    +0.000 C 
ENDROOT
BRANCH   1   8
ATOM      4  C   UNL     1      46.606   2.469   7.503  0.00  0.00    +0.000 A 
ATOM      5  C   UNL     1      46.118   2.158   8.766  0.00  0.00    +0.000 A 
ATOM      6  C   UNL     1      45.598   3.176   9.563  0.00  0.00    +0.000 A 
ATOM      7  C   UNL     1      45.553   4.475   9.078  0.00  0.00    +0.000 A 
ATOM      8  N   UNL     1      45.106   5.556   9.832  0.00  0.00    +0.000 N 
ATOM      9  N   UNL     1      46.012   4.784   7.844  0.00  0.00    +0.000 NA
ATOM     10  C   UNL     1      46.545   3.793   7.093  0.00  0.00    +0.000 A 
ATOM     11  H   UNL     1      44.976   6.353   9.220  0.00  0.00    +0.000 HD
BRANCH   4  13
ATOM     12  N   UNL     1      48.173   1.912   5.742  0.00  0.00    +0.000 N 
ATOM     13  C   UNL     1      47.215   1.461   6.610  0.00  0.00    +0.000 C 
ATOM     14  O   UNL     1      46.902   0.283   6.662  0.00  0.00    +0.000 OA
ATOM     15  H   UNL     1      48.647   1.208   5.189  0.00  0.00    +0.000 HD
ATOM     16  H   UNL     1      48.624   2.808   5.844  0.00  0.00    +0.000 HD
ENDBRANCH   4  13
ENDBRANCH   1   8
BRANCH   1  17
ATOM     17  C   UNL     1      45.294   5.429  12.313  0.00  0.00    +0.000 A 
ATOM     18  C   UNL     1      45.197   4.390  13.248  0.00  0.00    +0.000 A 
ATOM     19  C   UNL     1      46.165   4.211  14.231  0.00  0.00    +0.000 A 
ATOM     20  C   UNL     1      47.263   5.071  14.294  0.00  0.00    +0.000 A 
ATOM     21  C   UNL     1      47.400   6.148  13.403  0.00  0.00    +0.000 A 
ATOM     22  C   UNL     1      46.377   6.320  12.449  0.00  0.00    +0.000 A 
BRANCH  21  23
ATOM     23  C   UNL     1      48.599   7.008  13.399  0.00  0.00    +0.000 A 
ATOM     24  N   UNL     1      49.402   6.977  14.484  0.00  0.00    +0.000 NA
ATOM     25  C   UNL     1      50.540   7.690  14.411  0.00  0.00    +0.000 A 
ATOM     26  C   UNL     1      50.904   8.435  13.318  0.00  0.00    +0.000 A 
ATOM     27  C   UNL     1      50.018   8.415  12.268  0.00  0.00    +0.000 A 
ATOM     28  N   UNL     1      48.870   7.713  12.278  0.00  0.00    +0.000 NA
ENDBRANCH  21  23
ENDBRANCH   1  17
TORSDOF 4
ENDMDL
MODEL 4
REMARK VINA RESULT:    -7.535      2.957      7.661
REMARK INTER + INTRA:          -9.717
REMARK INTER:                  -9.490
REMARK INTRA:                  -0.227
REMARK UNBOUND:                -0.420
REMARK  Name = 
REMARK  4 active torsions:
REMARK  status: ('A' for Active; 'I' for Inactive)
REMARK    1  A    between atoms: C_2  and  C_4
REMARK    2  A    between atoms: N_8  and  C_9
REMARK    3  A    between atoms: C_9  and  C_10
REMARK    4  A    between atoms: C_14  and  C_15
REMARK                            x       y       z     vdW  Elec       q    Type
REMARK                         _______ _______ _______ _____ _____    ______ ____
ROOT
ATOM      1  C   UNL     1      48.559   7.855  12.667  0.00  0.00    +0.000 C 
ATOM      2  C   UNL     1      49.700   7.369  11.791  0.00  0.00    +0.000 C 
ATOM      3  C   UNL     1      49.378   8.826  11.833  0.00  0.00    +0.000 C 
ENDROOT
BRANCH   1   8
ATOM      4  C   UNL     1      47.775   4.576  16.619  0.00  0.00    +0.000 A 
ATOM      5  C   UNL     1      47.277   4.565  15.323  0.00  0.00    +0.000 A 
ATOM      6  C   UNL     1      47.613   5.603  14.456  0.00  0.00    +0.000 A 
ATOM      7  C   UNL     1      48.455   6.616  14.890  0.00  0.00    +0.000 A 
ATOM      8  N   UNL     1      48.789   7.718  14.108  0.00  0.00    +0.000 N 
ATOM      9  N   UNL     1      48.956   6.629  16.146  0.00  0.00    +0.000 NA
ATOM     10  C   UNL     1      48.596   5.632  16.988  0.00  0.00    +0.000 A 
ATOM     11  H   UNL     1      49.558   8.213  14.547  0.00  0.00    +0.000 HD
BRANCH   4  13
ATOM     12  N   UNL     1      48.249   3.456  18.714  0.00  0.00    +0.000 N 
ATOM     13  C   UNL     1      47.434   3.540  17.617  0.00  0.00    +0.000 C 
ATOM     14  O   UNL     1      46.461   2.817  17.485  0.00  0.00    +0.000 OA
ATOM     15  H   UNL     1      47.967   2.802  19.435  0.00  0.00    +0.000 HD
ATOM     16  H   UNL     1      48.896   4.185  18.971  0.00  0.00    +0.000 HD
ENDBRANCH   4  13
ENDBRANCH   1   8
BRANCH   1  17
ATOM     17  C   UNL     1      47.118   7.569  12.268  0.00  0.00    +0.000 A 
ATOM     18  C   UNL     1      46.117   8.533  12.444  0.00  0.00    +0.000 A 
ATOM     19  C   UNL     1      44.852   8.371  11.886  0.00  0.00    +0.000 A 
ATOM     20  C   UNL     1      44.563   7.232  11.131  0.00  0.00    +0.000 A 
ATOM     21  C   UNL     1      45.515   6.217  10.946  0.00  0.00    +0.000 A 
ATOM     22  C   UNL     1      46.770   6.400  11.561  0.00  0.00    +0.000 A 
BRANCH  21  23
ATOM     23  C   UNL     1      45.254   5.054  10.075  0.00  0.00    +0.000 A 
ATOM     24  N   UNL     1      45.797   5.057   8.839  0.00  0.00    +0.000 NA
ATOM     25  C   UNL     1      45.631   3.941   8.107  0.00  0.00    +0.000 A 
ATOM     26  C   UNL     1      44.944   2.837   8.545  0.00  0.00    +0.000 A 
ATOM     27  C   UNL     1      44.419   2.933   9.810  0.00  0.00    +0.000 A 
ATOM     28  N   UNL     1      44.560   4.017  10.595  0.00  0.00    +0.000 NA
ENDBRANCH  21  23
ENDBRANCH   1  17
TORSDOF 4
ENDMDL
MODEL 5
REMARK VINA RESULT:    -6.779      3.298      7.188
REMARK INTER + INTRA:          -8.784
REMARK INTER:                  -8.406
REMARK INTRA:                  -0.379
REMARK UNBOUND:                -0.420
REMARK  Name = 
REMARK  4 active torsions:
REMARK  status: ('A' for Active; 'I' for Inactive)
REMARK    1  A    between atoms: C_2  and  C_4
REMARK    2  A    between atoms: N_8  and  C_9
REMARK    3  A    between atoms: C_9  and  C_10
REMARK    4  A    between atoms: C_14  and  C_15
REMARK                            x       y       z     vdW  Elec       q    Type
REMARK                         _______ _______ _______ _____ _____    ______ ____
ROOT
ATOM      1  C   UNL     1      44.619   6.179  12.014  0.00  0.00    +0.000 C 
ATOM      2  C   UNL     1      44.540   7.327  11.024  0.00  0.00    +0.000 C 
ATOM      3  C   UNL     1      43.383   7.058  11.927  0.00  0.00    +0.000 C 
ENDROOT
BRANCH   1   8
ATOM      4  C   UNL     1      49.468   7.836  12.860  0.00  0.00    +0.000 A 
ATOM      5  C   UNL     1      48.797   7.573  11.673  0.00  0.00    +0.000 A 
ATOM      6  C   UNL     1      47.492   7.088  11.723  0.00  0.00    +0.000 A 
ATOM      7  C   UNL     1      46.875   6.898  12.951  0.00  0.00    +0.000 A 
ATOM      8  N   UNL     1      45.599   6.360  13.089  0.00  0.00    +0.000 N 
ATOM      9  N   UNL     1      47.516   7.164  14.112  0.00  0.00    +0.000 NA
ATOM     10  C   UNL     1      48.795   7.603  14.050  0.00  0.00    +0.000 A 
ATOM     11  H   UNL     1      45.284   6.499  14.042  0.00  0.00    +0.000 HD
BRANCH   4  13
ATOM     12  N   UNL     1      51.689   7.878  11.892  0.00  0.00    +0.000 N 
ATOM     13  C   UNL     1      50.869   8.309  12.900  0.00  0.00    +0.000 C 
ATOM     14  O   UNL     1      51.267   9.066  13.769  0.00  0.00    +0.000 OA
ATOM     15  H   UNL     1      52.623   8.267  11.874  0.00  0.00    +0.000 HD
ATOM     16  H   UNL     1      51.338   7.466  11.041  0.00  0.00    +0.000 HD
ENDBRANCH   4  13
ENDBRANCH   1   8
BRANCH   1  17
ATOM     17  C   UNL     1      44.541   4.741  11.520  0.00  0.00    +0.000 A 
ATOM     18  C   UNL     1      43.611   3.843  12.060  0.00  0.00    +0.000 A 
ATOM     19  C   UNL     1      43.379   2.603  11.472  0.00  0.00    +0.000 A 
ATOM     20  C   UNL     1      44.076   2.236  10.319  0.00  0.00    +0.000 A 
ATOM     21  C   UNL     1      45.043   3.080   9.749  0.00  0.00    +0.000 A 
ATOM     22  C   UNL     1      45.277   4.309  10.398  0.00  0.00    +0.000 A 
BRANCH  21  23
ATOM     23  C   UNL     1      45.720   2.745   8.482  0.00  0.00    +0.000 A 
ATOM     24  N   UNL     1      45.849   3.721   7.559  0.00  0.00    +0.000 NA
ATOM     25  C   UNL     1      46.561   3.418   6.458  0.00  0.00    +0.000 A 
ATOM     26  C   UNL     1      47.134   2.191   6.235  0.00  0.00    +0.000 A 
ATOM     27  C   UNL     1      46.938   1.259   7.225  0.00  0.00    +0.000 A 
ATOM     28  N   UNL     1      46.245   1.506   8.352  0.00  0.00    +0.000 NA
ENDBRANCH  21  23
ENDBRANCH   1  17
TORSDOF 4
ENDMDL
MODEL 6
REMARK VINA RESULT:    -6.666      3.502      5.147
REMARK INTER + INTRA:          -8.645
REMARK INTER:                  -8.066
REMARK INTRA:                  -0.579
REMARK UNBOUND:                -0.420
REMARK  Name = 
REMARK  4 active torsions:
REMARK  status: ('A' for Active; 'I' for Inactive)
REMARK    1  A    between atoms: C_2  and  C_4
REMARK    2  A    between atoms: N_8  and  C_9
REMARK    3  A    between atoms: C_9  and  C_10
REMARK    4  A    between atoms: C_14  and  C_15
REMARK                            x       y       z     vdW  Elec       q    Type
REMARK                         _______ _______ _______ _____ _____    ______ ____
ROOT
ATOM      1  C   UNL     1      48.382   8.413  12.627  0.00  0.00    +0.000 C 
ATOM      2  C   UNL     1      49.159   9.450  11.837  0.00  0.00    +0.000 C 
ATOM      3  C   UNL     1      49.485   8.003  11.667  0.00  0.00    +0.000 C 
ENDROOT
BRANCH   1   8
ATOM      4  C   UNL     1      44.621   4.871  12.079  0.00  0.00    +0.000 A 
ATOM      5  C   UNL     1      45.988   4.716  12.273  0.00  0.00    +0.000 A 
ATOM      6  C   UNL     1      46.797   5.848  12.346  0.00  0.00    +0.000 A 
ATOM      7  C   UNL     1      46.226   7.109  12.249  0.00  0.00    +0.000 A 
ATOM      8  N   UNL     1      46.970   8.285  12.251  0.00  0.00    +0.000 N 
ATOM      9  N   UNL     1      44.895   7.270  12.075  0.00  0.00    +0.000 NA
ATOM     10  C   UNL     1      44.124   6.162  11.972  0.00  0.00    +0.000 A 
ATOM     11  H   UNL     1      46.342   9.072  12.371  0.00  0.00    +0.000 HD
BRANCH   4  13
ATOM     12  N   UNL     1      44.063   2.567  12.577  0.00  0.00    +0.000 N 
ATOM     13  C   UNL     1      43.697   3.725  11.945  0.00  0.00    +0.000 C 
ATOM     14  O   UNL     1      42.649   3.813  11.327  0.00  0.00    +0.000 OA
ATOM     15  H   UNL     1      43.391   1.810  12.553  0.00  0.00    +0.000 HD
ATOM     16  H   UNL     1      44.778   2.535  13.287  0.00  0.00    +0.000 HD
ENDBRANCH   4  13
ENDBRANCH   1   8
BRANCH   1  17
ATOM     17  C   UNL     1      48.610   8.267  14.125  0.00  0.00    +0.000 A 
ATOM     18  C   UNL     1      48.403   9.347  14.994  0.00  0.00    +0.000 A 
ATOM     19  C   UNL     1      48.393   9.171  16.375  0.00  0.00    +0.000 A 
ATOM     20  C   UNL     1      48.586   7.899  16.918  0.00  0.00    +0.000 A 
ATOM     21  C   UNL     1      48.828   6.784  16.099  0.00  0.00    +0.000 A 
ATOM     22  C   UNL     1      48.871   7.011  14.709  0.00  0.00    +0.000 A 
BRANCH  21  23
ATOM     23  C   UNL     1      48.941   5.421  16.653  0.00  0.00    +0.000 A 
ATOM     24  N   UNL     1      47.832   4.652  16.669  0.00  0.00    +0.000 NA
ATOM     25  C   UNL     1      47.987   3.381  17.082  0.00  0.00    +0.000 A 
ATOM     26  C   UNL     1      49.187   2.852  17.487  0.00  0.00    +0.000 A 
ATOM     27  C   UNL     1      50.255   3.714  17.447  0.00  0.00    +0.000 A 
ATOM     28  N   UNL     1      50.165   4.992  17.034  0.00  0.00    +0.000 NA
ENDBRANCH  21  23
ENDBRANCH   1  17
TORSDOF 4
ENDMDL
MODEL 7
REMARK VINA RESULT:    -6.573      3.787      8.526
REMARK INTER + INTRA:          -8.530
REMARK INTER:                  -8.061
REMARK INTRA:                  -0.469
REMARK UNBOUND:                -0.420
REMARK  Name = 
REMARK  4 active torsions:
REMARK  status: ('A' for Active; 'I' for Inactive)
REMARK    1  A    between atoms: C_2  and  C_4
REMARK    2  A    between atoms: N_8  and  C_9
REMARK    3  A    between atoms: C_9  and  C_10
REMARK    4  A    between atoms: C_14  and  C_15
REMARK                            x       y       z     vdW  Elec       q    Type
REMARK                         _______ _______ _______ _____ _____    ______ ____
ROOT
ATOM      1  C   UNL     1      48.991   7.772  12.529  0.00  0.00    +0.000 C 
ATOM      2  C   UNL     1      49.942   7.911  11.355  0.00  0.00    +0.000 C 
ATOM      3  C   UNL     1      49.627   9.109  12.188  0.00  0.00    +0.000 C 
ENDROOT
BRANCH   1   8
ATOM      4  C   UNL     1      48.899   7.447  17.712  0.00  0.00    +0.000 A 
ATOM      5  C   UNL     1      48.480   8.462  16.863  0.00  0.00    +0.000 A 
ATOM      6  C   UNL     1      48.659   8.316  15.489  0.00  0.00    +0.000 A 
ATOM      7  C   UNL     1      49.229   7.155  14.989  0.00  0.00    +0.000 A 
ATOM      8  N   UNL     1      49.498   6.957  13.638  0.00  0.00    +0.000 N 
ATOM      9  N   UNL     1      49.628   6.155  15.807  0.00  0.00    +0.000 NA
ATOM     10  C   UNL     1      49.479   6.323  17.142  0.00  0.00    +0.000 A 
ATOM     11  H   UNL     1      49.722   5.980  13.486  0.00  0.00    +0.000 HD
BRANCH   4  13
ATOM     12  N   UNL     1      47.558   7.866  19.686  0.00  0.00    +0.000 N 
ATOM     13  C   UNL     1      48.789   7.538  19.184  0.00  0.00    +0.000 C 
ATOM     14  O   UNL     1      49.737   7.306  19.915  0.00  0.00    +0.000 OA
ATOM     15  H   UNL     1      47.464   7.848  20.694  0.00  0.00    +0.000 HD
ATOM     16  H   UNL     1      46.714   7.819  19.136  0.00  0.00    +0.000 HD
ENDBRANCH   4  13
ENDBRANCH   1   8
BRANCH   1  17
ATOM     17  C   UNL     1      47.501   7.575  12.283  0.00  0.00    +0.000 A 
ATOM     18  C   UNL     1      46.586   8.601  12.550  0.00  0.00    +0.000 A 
ATOM     19  C   UNL     1      45.262   8.517  12.128  0.00  0.00    +0.000 A 
ATOM     20  C   UNL     1      44.827   7.396  11.418  0.00  0.00    +0.000 A 
ATOM     21  C   UNL     1      45.690   6.322  11.146  0.00  0.00    +0.000 A 
ATOM     22  C   UNL     1      47.011   6.428  11.627  0.00  0.00    +0.000 A 
BRANCH  21  23
ATOM     23  C   UNL     1      45.270   5.174  10.319  0.00  0.00    +0.000 A 
ATOM     24  N   UNL     1      45.641   5.162   9.022  0.00  0.00    +0.000 NA
ATOM     25  C   UNL     1      45.334   4.057   8.318  0.00  0.00    +0.000 A 
ATOM     26  C   UNL     1      44.670   2.978   8.846  0.00  0.00    +0.000 A 
ATOM     27  C   UNL     1      44.324   3.088  10.170  0.00  0.00    +0.000 A 
ATOM     28  N   UNL     1      44.612   4.162  10.928  0.00  0.00    +0.000 NA
ENDBRANCH  21  23
ENDBRANCH   1  17
TORSDOF 4
ENDMDL
MODEL 8
REMARK VINA RESULT:    -6.509      3.998      8.469
REMARK INTER + INTRA:          -8.452
REMARK INTER:                  -8.207
REMARK INTRA:                  -0.245
REMARK UNBOUND:                -0.420
REMARK  Name = 
REMARK  4 active torsions:
REMARK  status: ('A' for Active; 'I' for Inactive)
REMARK    1  A    between atoms: C_2  and  C_4
REMARK    2  A    between atoms: N_8  and  C_9
REMARK    3  A    between atoms: C_9  and  C_10
REMARK    4  A    between atoms: C_14  and  C_15
REMARK                            x       y       z     vdW  Elec       q    Type
REMARK                         _______ _______ _______ _____ _____    ______ ____
ROOT
ATOM      1  C   UNL     1      48.025   4.527  17.019  0.00  0.00    +0.000 C 
ATOM      2  C   UNL     1      48.476   5.330  18.225  0.00  0.00    +0.000 C 
ATOM      3  C   UNL     1      47.087   4.788  18.185  0.00  0.00    +0.000 C 
ENDROOT
BRANCH   1   8
ATOM      4  C   UNL     1      52.584   2.166  17.811  0.00  0.00    +0.000 A 
ATOM      5  C   UNL     1      52.240   3.510  17.868  0.00  0.00    +0.000 A 
ATOM      6  C   UNL     1      50.935   3.892  17.566  0.00  0.00    +0.000 A 
ATOM      7  C   UNL     1      49.995   2.927  17.235  0.00  0.00    +0.000 A 
ATOM      8  N   UNL     1      48.689   3.230  16.860  0.00  0.00    +0.000 N 
ATOM      9  N   UNL     1      50.317   1.614  17.190  0.00  0.00    +0.000 NA
ATOM     10  C   UNL     1      51.596   1.260  17.454  0.00  0.00    +0.000 A 
ATOM     11  H   UNL     1      48.140   2.377  16.861  0.00  0.00    +0.000 HD
BRANCH   4  13
ATOM     12  N   UNL     1      54.077   0.643  18.959  0.00  0.00    +0.000 N 
ATOM     13  C   UNL     1      53.955   1.679  18.072  0.00  0.00    +0.000 C 
ATOM     14  O   UNL     1      54.925   2.155  17.507  0.00  0.00    +0.000 OA
ATOM     15  H   UNL     1      55.006   0.256  19.075  0.00  0.00    +0.000 HD
ATOM     16  H   UNL     1      53.295   0.074  19.245  0.00  0.00    +0.000 HD
ENDBRANCH   4  13
ENDBRANCH   1   8
BRANCH   1  17
ATOM     17  C   UNL     1      47.769   5.227  15.691  0.00  0.00    +0.000 A 
ATOM     18  C   UNL     1      48.623   6.238  15.233  0.00  0.00    +0.000 A 
ATOM     19  C   UNL     1      48.531   6.728  13.933  0.00  0.00    +0.000 A 
ATOM     20  C   UNL     1      47.577   6.206  13.057  0.00  0.00    +0.000 A 
ATOM     21  C   UNL     1      46.674   5.212  13.467  0.00  0.00    +0.000 A 
ATOM     22  C   UNL     1      46.773   4.773  14.803  0.00  0.00    +0.000 A 
BRANCH  21  23
ATOM     23  C   UNL     1      45.723   4.587  12.527  0.00  0.00    +0.000 A 
ATOM     24  N   UNL     1      45.062   3.485  12.939  0.00  0.00    +0.000 NA
ATOM     25  C   UNL     1      44.127   2.998  12.104  0.00  0.00    +0.000 A 
ATOM     26  C   UNL     1      43.834   3.550  10.882  0.00  0.00    +0.000 A 
ATOM     27  C   UNL     1      44.567   4.662  10.545  0.00  0.00    +0.000 A 
ATOM     28  N   UNL     1      45.507   5.202  11.343  0.00  0.00    +0.000 NA
ENDBRANCH  21  23
ENDBRANCH   1  17
TORSDOF 4
ENDMDL
