MODEL 1
REMARK VINA RESULT:    -9.388      0.000      0.000
REMARK INTER + INTRA:         -13.078
REMARK INTER:                 -12.132
REMARK INTRA:                  -0.946
REMARK UNBOUND:                -0.946
REMARK  Name = 
REMARK  5 active torsions:
REMARK  status: ('A' for Active; 'I' for Inactive)
REMARK    1  A    between atoms: C_2  and  C_4
REMARK    2  A    between atoms: C_7  and  O_8
REMARK    3  A    between atoms: O_8  and  C_9
REMARK    4  A    between atoms: C_9  and  C_10
REMARK    5  A    between atoms: C_14  and  C_15
REMARK                            x       y       z     vdW  Elec       q    Type
REMARK                         _______ _______ _______ _____ _____    ______ ____
ROOT
ATOM      1  C   UNL     1      43.965   4.845  11.414  0.00  0.00    +0.000 C 
ATOM      2  C   UNL     1      42.707   4.916  12.267  0.00  0.00    +0.000 C 
ATOM      3  C   UNL     1      42.969   5.976  11.252  0.00  0.00    +0.000 C 
ENDROOT
BRANCH   1   4
ATOM      4  C   UNL     1      45.336   5.132  12.001  0.00  0.00    +0.000 A 
ATOM      5  C   UNL     1      46.083   6.233  11.559  0.00  0.00    +0.000 A 
ATOM      6  C   UNL     1      47.246   6.629  12.214  0.00  0.00    +0.000 A 
ATOM      7  C   UNL     1      47.675   5.941  13.351  0.00  0.00    +0.000 A 
ATOM      8  C   UNL     1      46.969   4.833  13.840  0.00  0.00    +0.000 A 
ATOM      9  C   UNL     1      45.835   4.416  13.112  0.00  0.00    +0.000 A 
BRANCH   8  10
ATOM     10  C   UNL     1      47.335   4.179  15.117  0.00  0.00    +0.000 A 
ATOM     11  C   UNL     1      47.088   4.789  16.351  0.00  0.00    +0.000 A 
ATOM     12  C   UNL     1      47.417   4.125  17.529  0.00  0.00    +0.000 A 
ATOM     13  C   UNL     1      47.986   2.859  17.453  0.00  0.00    +0.000 A 
ATOM     14  C   UNL     1      48.188   2.315  16.197  0.00  0.00    +0.000 A 
ATOM     15  N   UNL     1      47.872   2.935  15.038  0.00  0.00    +0.000 NA
ENDBRANCH   8  10
ENDBRANCH   1   4
BRANCH   1  16
ATOM     16  O   UNL     1      43.894   3.669  10.575  0.00  0.00    +0.000 OA
BRANCH  16  20
ATOM     17  C   UNL     1      46.515   2.732   7.489  0.00  0.00    +0.000 A 
ATOM     18  C   UNL     1      46.189   4.077   7.693  0.00  0.00    +0.000 A 
ATOM     19  C   UNL     1      45.340   4.441   8.748  0.00  0.00    +0.000 A 
ATOM     20  C   UNL     1      44.811   3.465   9.584  0.00  0.00    +0.000 A 
ATOM     21  C   UNL     1      45.173   2.126   9.406  0.00  0.00    +0.000 A 
ATOM     22  C   UNL     1      46.011   1.756   8.355  0.00  0.00    +0.000 A 
BRANCH  17  24
ATOM     23  N   UNL     1      47.334   3.098   5.227  0.00  0.00    +0.000 N 
ATOM     24  C   UNL     1      47.328   2.293   6.329  0.00  0.00    +0.000 C 
ATOM     25  O   UNL     1      47.980   1.257   6.354  0.00  0.00    +0.000 OA
ATOM     26  H   UNL     1      47.941   2.820   4.471  0.00  0.00    +0.000 HD
ATOM     27  H   UNL     1      46.997   4.051   5.243  0.00  0.00    +0.000 HD
ENDBRANCH  17  24
ENDBRANCH  16  20
ENDBRANCH   1  16
TORSDOF 5
ENDMDL
MODEL 2
REMARK VINA RESULT:    -9.180      1.869      3.152
REMARK INTER + INTRA:         -12.809
REMARK INTER:                 -11.506
REMARK INTRA:                  -1.303
REMARK UNBOUND:                -0.946
REMARK  Name = 
REMARK  5 active torsions:
REMARK  status: ('A' for Active; 'I' for Inactive)
REMARK    1  A    between atoms: C_2  and  C_4
REMARK    2  A    between atoms: C_7  and  O_8
REMARK    3  A    between atoms: O_8  and  C_9
REMARK    4  A    between atoms: C_9  and  C_10
REMARK    5  A    between atoms: C_14  and  C_15
REMARK                            x       y       z     vdW  Elec       q    Type
REMARK                         _______ _______ _______ _____ _____    ______ ____
ROOT
ATOM      1  C   UNL     1      43.660   5.082  11.238  0.00  0.00    +0.000 C 
ATOM      2  C   UNL     1      42.303   5.478  11.801  0.00  0.00    +0.000 C 
ATOM      3  C   UNL     1      43.096   6.472  11.022  0.00  0.00    +0.000 C 
ENDROOT
BRANCH   1   4
ATOM      4  C   UNL     1      44.867   4.895  12.141  0.00  0.00    +0.000 A 
ATOM      5  C   UNL     1      45.118   3.657  12.746  0.00  0.00    +0.000 A 
ATOM      6  C   UNL     1      46.315   3.406  13.413  0.00  0.00    +0.000 A 
ATOM      7  C   UNL     1      47.304   4.390  13.464  0.00  0.00    +0.000 A 
ATOM      8  C   UNL     1      47.111   5.648  12.876  0.00  0.00    +0.000 A 
ATOM      9  C   UNL     1      45.860   5.892  12.270  0.00  0.00    +0.000 A 
BRANCH   8  10
ATOM     10  C   UNL     1      48.198   6.649  12.805  0.00  0.00    +0.000 A 
ATOM     11  C   UNL     1      48.332   7.512  11.713  0.00  0.00    +0.000 A 
ATOM     12  C   UNL     1      49.349   8.462  11.702  0.00  0.00    +0.000 A 
ATOM     13  C   UNL     1      50.215   8.534  12.786  0.00  0.00    +0.000 A 
ATOM     14  C   UNL     1      50.012   7.657  13.837  0.00  0.00    +0.000 A 
ATOM     15  N   UNL     1      49.029   6.730  13.875  0.00  0.00    +0.000 NA
ENDBRANCH   8  10
ENDBRANCH   1   4
BRANCH   1  16
ATOM     16  O   UNL     1      43.470   4.043  10.250  0.00  0.00    +0.000 OA
BRANCH  16  20
ATOM     17  C   UNL     1      46.432   2.499   7.778  0.00  0.00    +0.000 A 
ATOM     18  C   UNL     1      46.245   3.886   7.797  0.00  0.00    +0.000 A 
ATOM     19  C   UNL     1      45.283   4.451   8.646  0.00  0.00    +0.000 A 
ATOM     20  C   UNL     1      44.507   3.635   9.460  0.00  0.00    +0.000 A 
ATOM     21  C   UNL     1      44.727   2.254   9.473  0.00  0.00    +0.000 A 
ATOM     22  C   UNL     1      45.676   1.684   8.626  0.00  0.00    +0.000 A 
BRANCH  17  24
ATOM     23  N   UNL     1      48.442   2.581   6.408  0.00  0.00    +0.000 N 
ATOM     24  C   UNL     1      47.367   1.851   6.827  0.00  0.00    +0.000 C 
ATOM     25  O   UNL     1      47.197   0.704   6.436  0.00  0.00    +0.000 OA
ATOM     26  H   UNL     1      49.103   2.107   5.812  0.00  0.00    +0.000 HD
ATOM     27  H   UNL     1      48.738   3.433   6.866  0.00  0.00    +0.000 HD
ENDBRANCH  17  24
ENDBRANCH  16  20
ENDBRANCH   1  16
TORSDOF 5
ENDMDL
MODEL 3
REMARK VINA RESULT:    -8.442      2.040      3.828
REMARK INTER + INTRA:         -11.855
REMARK INTER:                 -10.871
REMARK INTRA:                  -0.985
REMARK UNBOUND:                -0.946
REMARK  Name = 
REMARK  5 active torsions:
REMARK  status: ('A' for Active; 'I' for Inactive)
REMARK    1  A    between atoms: C_2  and  C_4
REMARK    2  A    between atoms: C_7  and  O_8
REMARK    3  A    between atoms: O_8  and  C_9
REMARK    4  A    between atoms: C_9  and  C_10
REMARK    5  A    between atoms: C_14  and  C_15
REMARK                            x       y       z     vdW  Elec       q    Type
REMARK                         _______ _______ _______ _____ _____    ______ ____
ROOT
ATOM      1  C   UNL     1      43.731   5.014  11.432  0.00  0.00    +0.000 C 
ATOM      2  C   UNL     1      42.379   5.466  11.964  0.00  0.00    +0.000 C 
ATOM      3  C   UNL     1      43.024   6.223  10.853  0.00  0.00    +0.000 C 
ENDROOT
BRANCH   1   4
ATOM      4  C   UNL     1      45.003   5.204  12.238  0.00  0.00    +0.000 A 
ATOM      5  C   UNL     1      45.498   4.168  13.041  0.00  0.00    +0.000 A 
ATOM      6  C   UNL     1      46.758   4.247  13.630  0.00  0.00    +0.000 A 
ATOM      7  C   UNL     1      47.565   5.363  13.403  0.00  0.00    +0.000 A 
ATOM      8  C   UNL     1      47.125   6.431  12.608  0.00  0.00    +0.000 A 
ATOM      9  C   UNL     1      45.817   6.349  12.084  0.00  0.00    +0.000 A 
BRANCH   8  10
ATOM     10  C   UNL     1      48.018   7.555  12.249  0.00  0.00    +0.000 A 
ATOM     11  C   UNL     1      49.362   7.348  11.923  0.00  0.00    +0.000 A 
ATOM     12  C   UNL     1      50.160   8.430  11.559  0.00  0.00    +0.000 A 
ATOM     13  C   UNL     1      49.598   9.700  11.525  0.00  0.00    +0.000 A 
ATOM     14  C   UNL     1      48.258   9.824  11.847  0.00  0.00    +0.000 A 
ATOM     15  N   UNL     1      47.460   8.791  12.198  0.00  0.00    +0.000 NA
ENDBRANCH   8  10
ENDBRANCH   1   4
BRANCH   1  16
ATOM     16  O   UNL     1      43.581   3.708  10.826  0.00  0.00    +0.000 OA
BRANCH  16  20
ATOM     17  C   UNL     1      46.237   2.836   7.752  0.00  0.00    +0.000 A 
ATOM     18  C   UNL     1      45.727   1.773   8.505  0.00  0.00    +0.000 A 
ATOM     19  C   UNL     1      44.798   2.019   9.526  0.00  0.00    +0.000 A 
ATOM     20  C   UNL     1      44.392   3.320   9.798  0.00  0.00    +0.000 A 
ATOM     21  C   UNL     1      44.868   4.376   9.015  0.00  0.00    +0.000 A 
ATOM     22  C   UNL     1      45.798   4.140   8.004  0.00  0.00    +0.000 A 
BRANCH  17  24
ATOM     23  N   UNL     1      47.173   3.325   5.560  0.00  0.00    +0.000 N 
ATOM     24  C   UNL     1      47.293   2.633   6.731  0.00  0.00    +0.000 C 
ATOM     25  O   UNL     1      48.243   1.887   6.925  0.00  0.00    +0.000 OA
ATOM     26  H   UNL     1      47.931   3.228   4.901  0.00  0.00    +0.000 HD
ATOM     27  H   UNL     1      46.540   4.105   5.447  0.00  0.00    +0.000 HD
ENDBRANCH  17  24
ENDBRANCH  16  20
ENDBRANCH   1  16
TORSDOF 5
ENDMDL
MODEL 4
REMARK VINA RESULT:    -7.972      1.421      1.871
REMARK INTER + INTRA:         -11.248
REMARK INTER:                 -11.049
REMARK INTRA:                  -0.199
REMARK UNBOUND:                -0.946
REMARK  Name = 
REMARK  5 active torsions:
REMARK  status: ('A' for Active; 'I' for Inactive)
REMARK    1  A    between atoms: C_2  and  C_4
REMARK    2  A    between atoms: C_7  and  O_8
REMARK    3  A    between atoms: O_8  and  C_9
REMARK    4  A    between atoms: C_9  and  C_10
REMARK    5  A    between atoms: C_14  and  C_15
REMARK                            x       y       z     vdW  Elec       q    Type
REMARK                         _______ _______ _______ _____ _____    ______ ____
ROOT
ATOM      1  C   UNL     1      44.030   4.654  11.668  0.00  0.00    +0.000 C 
ATOM      2  C   UNL     1      43.968   3.352  12.453  0.00  0.00    +0.000 C 
ATOM      3  C   UNL     1      42.967   4.423  12.724  0.00  0.00    +0.000 C 
ENDROOT
BRANCH   1   4
ATOM      4  C   UNL     1      45.123   5.678  11.918  0.00  0.00    +0.000 A 
ATOM      5  C   UNL     1      45.050   6.952  11.340  0.00  0.00    +0.000 A 
ATOM      6  C   UNL     1      45.931   7.966  11.709  0.00  0.00    +0.000 A 
ATOM      7  C   UNL     1      46.894   7.730  12.691  0.00  0.00    +0.000 A 
ATOM      8  C   UNL     1      47.015   6.475  13.305  0.00  0.00    +0.000 A 
ATOM      9  C   UNL     1      46.154   5.452  12.858  0.00  0.00    +0.000 A 
BRANCH   8  10
ATOM     10  C   UNL     1      47.939   6.250  14.440  0.00  0.00    +0.000 A 
ATOM     11  C   UNL     1      49.068   7.052  14.638  0.00  0.00    +0.000 A 
ATOM     12  C   UNL     1      49.892   6.827  15.736  0.00  0.00    +0.000 A 
ATOM     13  C   UNL     1      49.571   5.805  16.621  0.00  0.00    +0.000 A 
ATOM     14  C   UNL     1      48.431   5.063  16.368  0.00  0.00    +0.000 A 
ATOM     15  N   UNL     1      47.610   5.264  15.312  0.00  0.00    +0.000 NA
ENDBRANCH   8  10
ENDBRANCH   1   4
BRANCH   1  16
ATOM     16  O   UNL     1      43.763   4.372  10.274  0.00  0.00    +0.000 OA
BRANCH  16  20
ATOM     17  C   UNL     1      46.503   2.507   7.768  0.00  0.00    +0.000 A 
ATOM     18  C   UNL     1      46.452   3.905   7.766  0.00  0.00    +0.000 A 
ATOM     19  C   UNL     1      45.570   4.576   8.625  0.00  0.00    +0.000 A 
ATOM     20  C   UNL     1      44.737   3.852   9.471  0.00  0.00    +0.000 A 
ATOM     21  C   UNL     1      44.822   2.457   9.504  0.00  0.00    +0.000 A 
ATOM     22  C   UNL     1      45.692   1.783   8.648  0.00  0.00    +0.000 A 
BRANCH  17  24
ATOM     23  N   UNL     1      48.367   2.434   6.206  0.00  0.00    +0.000 N 
ATOM     24  C   UNL     1      47.348   1.755   6.810  0.00  0.00    +0.000 C 
ATOM     25  O   UNL     1      47.155   0.571   6.571  0.00  0.00    +0.000 OA
ATOM     26  H   UNL     1      48.972   1.895   5.606  0.00  0.00    +0.000 HD
ATOM     27  H   UNL     1      48.696   3.333   6.532  0.00  0.00    +0.000 HD
ENDBRANCH  17  24
ENDBRANCH  16  20
ENDBRANCH   1  16
TORSDOF 5
ENDMDL
MODEL 5
REMARK VINA RESULT:    -7.849      2.595      3.307
REMARK INTER + INTRA:         -11.089
REMARK INTER:                 -10.740
REMARK INTRA:                  -0.349
REMARK UNBOUND:                -0.946
REMARK  Name = 
REMARK  5 active torsions:
REMARK  status: ('A' for Active; 'I' for Inactive)
REMARK    1  A    between atoms: C_2  and  C_4
REMARK    2  A    between atoms: C_7  and  O_8
REMARK    3  A    between atoms: O_8  and  C_9
REMARK    4  A    between atoms: C_9  and  C_10
REMARK    5  A    between atoms: C_14  and  C_15
REMARK                            x       y       z     vdW  Elec       q    Type
REMARK                         _______ _______ _______ _____ _____    ______ ____
ROOT
ATOM      1  C   UNL     1      44.123   4.361  11.578  0.00  0.00    +0.000 C 
ATOM      2  C   UNL     1      44.742   3.303  12.481  0.00  0.00    +0.000 C 
ATOM      3  C   UNL     1      43.424   3.900  12.841  0.00  0.00    +0.000 C 
ENDROOT
BRANCH   1   4
ATOM      4  C   UNL     1      44.688   5.768  11.505  0.00  0.00    +0.000 A 
ATOM      5  C   UNL     1      43.840   6.865  11.298  0.00  0.00    +0.000 A 
ATOM      6  C   UNL     1      44.304   8.172  11.424  0.00  0.00    +0.000 A 
ATOM      7  C   UNL     1      45.630   8.410  11.788  0.00  0.00    +0.000 A 
ATOM      8  C   UNL     1      46.525   7.353  12.009  0.00  0.00    +0.000 A 
ATOM      9  C   UNL     1      46.041   6.044  11.805  0.00  0.00    +0.000 A 
BRANCH   8  10
ATOM     10  C   UNL     1      47.892   7.586  12.525  0.00  0.00    +0.000 A 
ATOM     11  C   UNL     1      48.996   7.669  11.670  0.00  0.00    +0.000 A 
ATOM     12  C   UNL     1      50.260   7.922  12.195  0.00  0.00    +0.000 A 
ATOM     13  C   UNL     1      50.398   8.092  13.567  0.00  0.00    +0.000 A 
ATOM     14  C   UNL     1      49.259   8.010  14.348  0.00  0.00    +0.000 A 
ATOM     15  N   UNL     1      48.020   7.771  13.864  0.00  0.00    +0.000 NA
ENDBRANCH   8  10
ENDBRANCH   1   4
BRANCH   1  16
ATOM     16  O   UNL     1      43.814   3.759  10.298  0.00  0.00    +0.000 OA
BRANCH  16  20
ATOM     17  C   UNL     1      46.654   2.711   7.451  0.00  0.00    +0.000 A 
ATOM     18  C   UNL     1      46.314   4.062   7.579  0.00  0.00    +0.000 A 
ATOM     19  C   UNL     1      45.391   4.464   8.554  0.00  0.00    +0.000 A 
ATOM     20  C   UNL     1      44.801   3.519   9.386  0.00  0.00    +0.000 A 
ATOM     21  C   UNL     1      45.175   2.176   9.287  0.00  0.00    +0.000 A 
ATOM     22  C   UNL     1      46.088   1.768   8.315  0.00  0.00    +0.000 A 
BRANCH  17  24
ATOM     23  N   UNL     1      47.794   3.080   5.334  0.00  0.00    +0.000 N 
ATOM     24  C   UNL     1      47.549   2.229   6.372  0.00  0.00    +0.000 C 
ATOM     25  O   UNL     1      48.063   1.119   6.408  0.00  0.00    +0.000 OA
ATOM     26  H   UNL     1      48.454   2.765   4.640  0.00  0.00    +0.000 HD
ATOM     27  H   UNL     1      47.576   4.067   5.371  0.00  0.00    +0.000 HD
ENDBRANCH  17  24
ENDBRANCH  16  20
ENDBRANCH   1  16
TORSDOF 5
ENDMDL
MODEL 6
REMARK VINA RESULT:    -7.545      2.656      7.690
REMARK INTER + INTRA:         -10.696
REMARK INTER:                  -9.670
REMARK INTRA:                  -1.026
REMARK UNBOUND:                -0.946
REMARK  Name = 
REMARK  5 active torsions:
REMARK  status: ('A' for Active; 'I' for Inactive)
REMARK    1  A    between atoms: C_2  and  C_4
REMARK    2  A    between atoms: C_7  and  O_8
REMARK    3  A    between atoms: O_8  and  C_9
REMARK    4  A    between atoms: C_9  and  C_10
REMARK    5  A    between atoms: C_14  and  C_15
REMARK                            x       y       z     vdW  Elec       q    Type
REMARK                         _______ _______ _______ _____ _____    ______ ____
ROOT
ATOM      1  C   UNL     1      46.278   7.313  12.488  0.00  0.00    +0.000 C 
ATOM      2  C   UNL     1      46.470   8.712  11.920  0.00  0.00    +0.000 C 
ATOM      3  C   UNL     1      45.685   8.528  13.174  0.00  0.00    +0.000 C 
ENDROOT
BRANCH   1   4
ATOM      4  C   UNL     1      45.358   6.307  11.819  0.00  0.00    +0.000 A 
ATOM      5  C   UNL     1      43.967   6.413  11.956  0.00  0.00    +0.000 A 
ATOM      6  C   UNL     1      43.103   5.627  11.198  0.00  0.00    +0.000 A 
ATOM      7  C   UNL     1      43.618   4.730  10.260  0.00  0.00    +0.000 A 
ATOM      8  C   UNL     1      45.000   4.580  10.078  0.00  0.00    +0.000 A 
ATOM      9  C   UNL     1      45.847   5.340  10.912  0.00  0.00    +0.000 A 
BRANCH   8  10
ATOM     10  C   UNL     1      45.555   3.735   8.998  0.00  0.00    +0.000 A 
ATOM     11  C   UNL     1      45.539   2.339   9.076  0.00  0.00    +0.000 A 
ATOM     12  C   UNL     1      46.042   1.581   8.022  0.00  0.00    +0.000 A 
ATOM     13  C   UNL     1      46.550   2.233   6.906  0.00  0.00    +0.000 A 
ATOM     14  C   UNL     1      46.520   3.617   6.894  0.00  0.00    +0.000 A 
ATOM     15  N   UNL     1      46.033   4.376   7.900  0.00  0.00    +0.000 NA
ENDBRANCH   8  10
ENDBRANCH   1   4
BRANCH   1  16
ATOM     16  O   UNL     1      47.566   6.791  12.890  0.00  0.00    +0.000 OA
BRANCH  16  20
ATOM     17  C   UNL     1      47.985   4.921  16.577  0.00  0.00    +0.000 A 
ATOM     18  C   UNL     1      47.175   4.309  15.615  0.00  0.00    +0.000 A 
ATOM     19  C   UNL     1      47.037   4.885  14.344  0.00  0.00    +0.000 A 
ATOM     20  C   UNL     1      47.696   6.071  14.043  0.00  0.00    +0.000 A 
ATOM     21  C   UNL     1      48.542   6.657  14.990  0.00  0.00    +0.000 A 
ATOM     22  C   UNL     1      48.677   6.094  16.258  0.00  0.00    +0.000 A 
BRANCH  17  24
ATOM     23  N   UNL     1      47.163   4.850  18.866  0.00  0.00    +0.000 N 
ATOM     24  C   UNL     1      48.082   4.400  17.962  0.00  0.00    +0.000 C 
ATOM     25  O   UNL     1      48.940   3.591  18.288  0.00  0.00    +0.000 OA
ATOM     26  H   UNL     1      47.201   4.441  19.786  0.00  0.00    +0.000 HD
ATOM     27  H   UNL     1      46.319   5.336  18.594  0.00  0.00    +0.000 HD
ENDBRANCH  17  24
ENDBRANCH  16  20
ENDBRANCH   1  16
TORSDOF 5
ENDMDL
MODEL 7
REMARK VINA RESULT:    -6.894      2.859      4.468
REMARK INTER + INTRA:          -9.856
REMARK INTER:                  -8.904
REMARK INTRA:                  -0.952
REMARK UNBOUND:                -0.946
REMARK  Name = 
REMARK  5 active torsions:
REMARK  status: ('A' for Active; 'I' for Inactive)
REMARK    1  A    between atoms: C_2  and  C_4
REMARK    2  A    between atoms: C_7  and  O_8
REMARK    3  A    between atoms: O_8  and  C_9
REMARK    4  A    between atoms: C_9  and  C_10
REMARK    5  A    between atoms: C_14  and  C_15
REMARK                            x       y       z     vdW  Elec       q    Type
REMARK                         _______ _______ _______ _____ _____    ______ ____
ROOT
ATOM      1  C   UNL     1      47.807   7.991  12.643  0.00  0.00    +0.000 C 
ATOM      2  C   UNL     1      48.293   9.127  11.754  0.00  0.00    +0.000 C 
ATOM      3  C   UNL     1      48.813   7.747  11.536  0.00  0.00    +0.000 C 
ENDROOT
BRANCH   1   4
ATOM      4  C   UNL     1      48.244   7.877  14.092  0.00  0.00    +0.000 A 
ATOM      5  C   UNL     1      48.248   9.004  14.925  0.00  0.00    +0.000 A 
ATOM      6  C   UNL     1      48.453   8.890  16.298  0.00  0.00    +0.000 A 
ATOM      7  C   UNL     1      48.635   7.630  16.873  0.00  0.00    +0.000 A 
ATOM      8  C   UNL     1      48.640   6.467  16.091  0.00  0.00    +0.000 A 
ATOM      9  C   UNL     1      48.500   6.626  14.697  0.00  0.00    +0.000 A 
BRANCH   8  10
ATOM     10  C   UNL     1      48.696   5.120  16.701  0.00  0.00    +0.000 A 
ATOM     11  C   UNL     1      47.546   4.342  16.870  0.00  0.00    +0.000 A 
ATOM     12  C   UNL     1      47.648   3.066  17.417  0.00  0.00    +0.000 A 
ATOM     13  C   UNL     1      48.900   2.589  17.784  0.00  0.00    +0.000 A 
ATOM     14  C   UNL     1      49.994   3.410  17.575  0.00  0.00    +0.000 A 
ATOM     15  N   UNL     1      49.924   4.650  17.040  0.00  0.00    +0.000 NA
ENDBRANCH   8  10
ENDBRANCH   1   4
BRANCH   1  16
ATOM     16  O   UNL     1      46.392   7.793  12.414  0.00  0.00    +0.000 OA
BRANCH  16  20
ATOM     17  C   UNL     1      44.706   4.160  11.309  0.00  0.00    +0.000 A 
ATOM     18  C   UNL     1      45.233   4.976  10.302  0.00  0.00    +0.000 A 
ATOM     19  C   UNL     1      45.846   6.192  10.635  0.00  0.00    +0.000 A 
ATOM     20  C   UNL     1      45.921   6.593  11.964  0.00  0.00    +0.000 A 
ATOM     21  C   UNL     1      45.435   5.755  12.972  0.00  0.00    +0.000 A 
ATOM     22  C   UNL     1      44.817   4.548  12.648  0.00  0.00    +0.000 A 
BRANCH  17  24
ATOM     23  N   UNL     1      44.436   2.144   9.973  0.00  0.00    +0.000 N 
ATOM     24  C   UNL     1      43.963   2.915  10.996  0.00  0.00    +0.000 C 
ATOM     25  O   UNL     1      42.973   2.578  11.630  0.00  0.00    +0.000 OA
ATOM     26  H   UNL     1      43.959   1.270   9.812  0.00  0.00    +0.000 HD
ATOM     27  H   UNL     1      45.358   2.265   9.576  0.00  0.00    +0.000 HD
ENDBRANCH  17  24
ENDBRANCH  16  20
ENDBRANCH   1  16
TORSDOF 5
ENDMDL
MODEL 8
REMARK VINA RESULT:    -6.784      3.037      7.289
REMARK INTER + INTRA:          -9.713
REMARK INTER:                  -8.741
REMARK INTRA:                  -0.972
REMARK UNBOUND:                -0.946
REMARK  Name = 
REMARK  5 active torsions:
REMARK  status: ('A' for Active; 'I' for Inactive)
REMARK    1  A    between atoms: C_2  and  C_4
REMARK    2  A    between atoms: C_7  and  O_8
REMARK    3  A    between atoms: O_8  and  C_9
REMARK    4  A    between atoms: C_9  and  C_10
REMARK    5  A    between atoms: C_14  and  C_15
REMARK                            x       y       z     vdW  Elec       q    Type
REMARK                         _______ _______ _______ _____ _____    ______ ____
ROOT
ATOM      1  C   UNL     1      44.023   5.633  11.569  0.00  0.00    +0.000 C 
ATOM      2  C   UNL     1      42.661   6.307  11.481  0.00  0.00    +0.000 C 
ATOM      3  C   UNL     1      43.164   5.833  12.802  0.00  0.00    +0.000 C 
ENDROOT
BRANCH   1   4
ATOM      4  C   UNL     1      44.248   4.230  11.033  0.00  0.00    +0.000 A 
ATOM      5  C   UNL     1      43.450   3.164  11.470  0.00  0.00    +0.000 A 
ATOM      6  C   UNL     1      43.505   1.917  10.853  0.00  0.00    +0.000 A 
ATOM      7  C   UNL     1      44.349   1.718   9.758  0.00  0.00    +0.000 A 
ATOM      8  C   UNL     1      45.170   2.747   9.275  0.00  0.00    +0.000 A 
ATOM      9  C   UNL     1      45.141   3.975   9.967  0.00  0.00    +0.000 A 
BRANCH   8  10
ATOM     10  C   UNL     1      45.965   2.591   8.037  0.00  0.00    +0.000 A 
ATOM     11  C   UNL     1      46.021   3.598   7.068  0.00  0.00    +0.000 A 
ATOM     12  C   UNL     1      46.808   3.424   5.933  0.00  0.00    +0.000 A 
ATOM     13  C   UNL     1      47.530   2.245   5.788  0.00  0.00    +0.000 A 
ATOM     14  C   UNL     1      47.436   1.300   6.795  0.00  0.00    +0.000 A 
ATOM     15  N   UNL     1      46.684   1.446   7.909  0.00  0.00    +0.000 NA
ENDBRANCH   8  10
ENDBRANCH   1   4
BRANCH   1  16
ATOM     16  O   UNL     1      45.044   6.594  11.213  0.00  0.00    +0.000 OA
BRANCH  16  20
ATOM     17  C   UNL     1      48.074   7.696  13.834  0.00  0.00    +0.000 A 
ATOM     18  C   UNL     1      47.032   8.603  13.611  0.00  0.00    +0.000 A 
ATOM     19  C   UNL     1      45.969   8.255  12.765  0.00  0.00    +0.000 A 
ATOM     20  C   UNL     1      45.956   7.015  12.137  0.00  0.00    +0.000 A 
ATOM     21  C   UNL     1      46.975   6.094  12.397  0.00  0.00    +0.000 A 
ATOM     22  C   UNL     1      48.038   6.435  13.231  0.00  0.00    +0.000 A 
BRANCH  17  24
ATOM     23  N   UNL     1      50.424   7.386  14.382  0.00  0.00    +0.000 N 
ATOM     24  C   UNL     1      49.265   8.058  14.641  0.00  0.00    +0.000 C 
ATOM     25  O   UNL     1      49.222   8.930  15.498  0.00  0.00    +0.000 OA
ATOM     26  H   UNL     1      51.240   7.685  14.893  0.00  0.00    +0.000 HD
ATOM     27  H   UNL     1      50.561   6.827  13.550  0.00  0.00    +0.000 HD
ENDBRANCH  17  24
ENDBRANCH  16  20
ENDBRANCH   1  16
TORSDOF 5
ENDMDL
MODEL 9
REMARK VINA RESULT:    -6.588      3.304      8.099
REMARK INTER + INTRA:          -9.460
REMARK INTER:                  -8.281
REMARK INTRA:                  -1.178
REMARK UNBOUND:                -0.946
REMARK  Name = 
REMARK  5 active torsions:
REMARK  status: ('A' for Active; 'I' for Inactive)
REMARK    1  A    between atoms: C_2  and  C_4
REMARK    2  A    between atoms: C_7  and  O_8
REMARK    3  A    between atoms: O_8  and  C_9
REMARK    4  A    between atoms: C_9  and  C_10
REMARK    5  A    between atoms: C_14  and  C_15
REMARK                            x       y       z     vdW  Elec       q    Type
REMARK                         _______ _______ _______ _____ _____    ______ ____
ROOT
ATOM      1  C   UNL     1      48.545   7.715  12.957  0.00  0.00    +0.000 C 
ATOM      2  C   UNL     1      49.584   8.267  11.992  0.00  0.00    +0.000 C 
ATOM      3  C   UNL     1      49.065   9.132  13.089  0.00  0.00    +0.000 C 
ENDROOT
BRANCH   1   4
ATOM      4  C   UNL     1      47.108   7.481  12.526  0.00  0.00    +0.000 A 
ATOM      5  C   UNL     1      46.160   8.509  12.621  0.00  0.00    +0.000 A 
ATOM      6  C   UNL     1      44.896   8.382  12.053  0.00  0.00    +0.000 A 
ATOM      7  C   UNL     1      44.560   7.224  11.348  0.00  0.00    +0.000 A 
ATOM      8  C   UNL     1      45.467   6.162  11.219  0.00  0.00    +0.000 A 
ATOM      9  C   UNL     1      46.713   6.295  11.866  0.00  0.00    +0.000 A 
BRANCH   8  10
ATOM     10  C   UNL     1      45.175   4.990  10.365  0.00  0.00    +0.000 A 
ATOM     11  C   UNL     1      45.659   4.897   9.056  0.00  0.00    +0.000 A 
ATOM     12  C   UNL     1      45.389   3.761   8.298  0.00  0.00    +0.000 A 
ATOM     13  C   UNL     1      44.642   2.735   8.863  0.00  0.00    +0.000 A 
ATOM     14  C   UNL     1      44.209   2.892  10.168  0.00  0.00    +0.000 A 
ATOM     15  N   UNL     1      44.462   3.982  10.928  0.00  0.00    +0.000 NA
ENDBRANCH   8  10
ENDBRANCH   1   4
BRANCH   1  16
ATOM     16  O   UNL     1      49.139   6.635  13.715  0.00  0.00    +0.000 OA
BRANCH  16  20
ATOM     17  C   UNL     1      48.137   5.656  17.627  0.00  0.00    +0.000 A 
ATOM     18  C   UNL     1      48.853   6.837  17.405  0.00  0.00    +0.000 A 
ATOM     19  C   UNL     1      49.177   7.225  16.097  0.00  0.00    +0.000 A 
ATOM     20  C   UNL     1      48.798   6.431  15.021  0.00  0.00    +0.000 A 
ATOM     21  C   UNL     1      48.044   5.275  15.242  0.00  0.00    +0.000 A 
ATOM     22  C   UNL     1      47.724   4.879  16.540  0.00  0.00    +0.000 A 
BRANCH  17  24
ATOM     23  N   UNL     1      48.207   3.869  19.276  0.00  0.00    +0.000 N 
ATOM     24  C   UNL     1      47.858   5.158  18.996  0.00  0.00    +0.000 C 
ATOM     25  O   UNL     1      47.346   5.870  19.849  0.00  0.00    +0.000 OA
ATOM     26  H   UNL     1      48.071   3.563  20.227  0.00  0.00    +0.000 HD
ATOM     27  H   UNL     1      48.822   3.326  18.684  0.00  0.00    +0.000 HD
ENDBRANCH  17  24
ENDBRANCH  16  20
ENDBRANCH   1  16
TORSDOF 5
ENDMDL
