MODEL 1
REMARK VINA RESULT:    -9.101      0.000      0.000
REMARK INTER + INTRA:         -13.937
REMARK INTER:                 -12.826
REMARK INTRA:                  -1.112
REMARK UNBOUND:                -1.112
REMARK  Name = 
REMARK  7 active torsions:
REMARK  status: ('A' for Active; 'I' for Inactive)
REMARK    1  A    between atoms: C_2  and  C_4
REMARK    2  A    between atoms: C_7  and  N_8
REMARK    3  A    between atoms: N_8  and  C_9
REMARK    4  A    between atoms: C_9  and  C_10
REMARK    5  A    between atoms: C_10  and  C_13
REMARK    6  A    between atoms: C_18  and  O_19
REMARK    7  A    between atoms: O_19  and  C_20
REMARK                            x       y       z     vdW  Elec       q    Type
REMARK                         _______ _______ _______ _____ _____    ______ ____
ROOT
ATOM      1  C   UNL     1      43.836   4.689  12.518  0.00  0.00    +0.000 C 
ATOM      2  F   UNL     1      42.913   5.467  13.156  0.00  0.00    +0.000 F 
ATOM      3  F   UNL     1      43.698   3.443  13.070  0.00  0.00    +0.000 F 
ENDROOT
BRANCH   1   4
ATOM      4  C   UNL     1      45.241   5.233  12.685  0.00  0.00    +0.000 A 
ATOM      5  C   UNL     1      45.790   6.124  11.752  0.00  0.00    +0.000 A 
ATOM      6  C   UNL     1      47.083   6.621  11.934  0.00  0.00    +0.000 A 
ATOM      7  C   UNL     1      47.837   6.229  13.043  0.00  0.00    +0.000 A 
ATOM      8  F   UNL     1      49.059   6.753  13.191  0.00  0.00    +0.000 F 
ATOM      9  C   UNL     1      47.313   5.335  13.974  0.00  0.00    +0.000 A 
ATOM     10  C   UNL     1      46.019   4.844  13.789  0.00  0.00    +0.000 A 
BRANCH   9  11
ATOM     11  O   UNL     1      47.918   4.896  15.123  0.00  0.00    +0.000 OA
BRANCH  11  12
ATOM     12  C   UNL     1      47.173   4.117  16.083  0.00  0.00    +0.000 C 
ATOM     13  C   UNL     1      47.162   4.590  17.551  0.00  0.00    +0.000 C 
ATOM     14  N   UNL     1      47.619   3.267  18.001  0.00  0.00    +0.000 NA
ATOM     15  C   UNL     1      47.943   2.888  16.619  0.00  0.00    +0.000 C 
ATOM     16  H   UNL     1      46.887   2.695  18.422  0.00  0.00    +0.000 HD
ENDBRANCH  11  12
ENDBRANCH   9  11
ENDBRANCH   1   4
BRANCH   1  17
ATOM     17  C   UNL     1      43.466   4.589  11.018  0.00  0.00    +0.000 C 
BRANCH  17  18
ATOM     18  N   UNL     1      43.770   3.273  10.437  0.00  0.00    +0.000 N 
ATOM     19  H   UNL     1      43.704   2.495  11.093  0.00  0.00    +0.000 HD
BRANCH  18  23
ATOM     20  C   UNL     1      46.612   2.653   7.389  0.00  0.00    +0.000 A 
ATOM     21  C   UNL     1      46.153   3.946   7.647  0.00  0.00    +0.000 A 
ATOM     22  C   UNL     1      45.226   4.168   8.671  0.00  0.00    +0.000 A 
ATOM     23  C   UNL     1      44.762   3.120   9.474  0.00  0.00    +0.000 A 
ATOM     24  C   UNL     1      45.223   1.826   9.192  0.00  0.00    +0.000 A 
ATOM     25  C   UNL     1      46.135   1.590   8.156  0.00  0.00    +0.000 A 
BRANCH  20  27
ATOM     26  N   UNL     1      47.514   3.200   5.197  0.00  0.00    +0.000 N 
ATOM     27  C   UNL     1      47.563   2.373   6.284  0.00  0.00    +0.000 C 
ATOM     28  O   UNL     1      48.380   1.463   6.350  0.00  0.00    +0.000 OA
ATOM     29  H   UNL     1      48.233   3.063   4.498  0.00  0.00    +0.000 HD
ATOM     30  H   UNL     1      47.042   4.093   5.217  0.00  0.00    +0.000 HD
ENDBRANCH  20  27
ENDBRANCH  18  23
ENDBRANCH  17  18
ENDBRANCH   1  17
TORSDOF 7
ENDMDL
MODEL 2
REMARK VINA RESULT:    -9.019      1.007      1.026
REMARK INTER + INTRA:         -13.822
REMARK INTER:                 -12.864
REMARK INTRA:                  -0.958
REMARK UNBOUND:                -1.112
REMARK  Name = 
REMARK  7 active torsions:
REMARK  status: ('A' for Active; 'I' for Inactive)
REMARK    1  A    between atoms: C_2  and  C_4
REMARK    2  A    between atoms: C_7  and  N_8
REMARK    3  A    between atoms: N_8  and  C_9
REMARK    4  A    between atoms: C_9  and  C_10
REMARK    5  A    between atoms: C_10  and  C_13
REMARK    6  A    between atoms: C_18  and  O_19
REMARK    7  A    between atoms: O_19  and  C_20
REMARK                            x       y       z     vdW  Elec       q    Type
REMARK                         _______ _______ _______ _____ _____    ______ ____
ROOT
ATOM      1  C   UNL     1      43.220   5.067  12.520  0.00  0.00    +0.000 C 
ATOM      2  F   UNL     1      42.424   6.142  12.242  0.00  0.00    +0.000 F 
ATOM      3  F   UNL     1      42.638   4.458  13.599  0.00  0.00    +0.000 F 
ENDROOT
BRANCH   1   4
ATOM      4  C   UNL     1      44.649   5.485  12.804  0.00  0.00    +0.000 A 
ATOM      5  C   UNL     1      45.140   6.727  12.379  0.00  0.00    +0.000 A 
ATOM      6  C   UNL     1      46.457   7.095  12.663  0.00  0.00    +0.000 A 
ATOM      7  C   UNL     1      47.294   6.226  13.366  0.00  0.00    +0.000 A 
ATOM      8  F   UNL     1      48.539   6.631  13.641  0.00  0.00    +0.000 F 
ATOM      9  C   UNL     1      46.828   4.981  13.786  0.00  0.00    +0.000 A 
ATOM     10  C   UNL     1      45.509   4.620  13.502  0.00  0.00    +0.000 A 
BRANCH   9  11
ATOM     11  O   UNL     1      47.518   4.047  14.514  0.00  0.00    +0.000 OA
BRANCH  11  12
ATOM     12  C   UNL     1      47.403   4.018  15.952  0.00  0.00    +0.000 C 
ATOM     13  C   UNL     1      48.337   4.929  16.774  0.00  0.00    +0.000 C 
ATOM     14  N   UNL     1      48.793   3.778  17.568  0.00  0.00    +0.000 NA
ATOM     15  C   UNL     1      48.169   2.850  16.615  0.00  0.00    +0.000 C 
ATOM     16  H   UNL     1      48.392   3.734  18.505  0.00  0.00    +0.000 HD
ENDBRANCH  11  12
ENDBRANCH   9  11
ENDBRANCH   1   4
BRANCH   1  17
ATOM     17  C   UNL     1      43.169   4.077  11.330  0.00  0.00    +0.000 C 
BRANCH  17  18
ATOM     18  N   UNL     1      43.751   4.630  10.097  0.00  0.00    +0.000 N 
ATOM     19  H   UNL     1      43.098   5.160   9.521  0.00  0.00    +0.000 HD
BRANCH  18  23
ATOM     20  C   UNL     1      46.444   2.367   7.779  0.00  0.00    +0.000 A 
ATOM     21  C   UNL     1      46.425   3.756   7.647  0.00  0.00    +0.000 A 
ATOM     22  C   UNL     1      45.551   4.521   8.427  0.00  0.00    +0.000 A 
ATOM     23  C   UNL     1      44.705   3.926   9.370  0.00  0.00    +0.000 A 
ATOM     24  C   UNL     1      44.728   2.528   9.479  0.00  0.00    +0.000 A 
ATOM     25  C   UNL     1      45.583   1.752   8.689  0.00  0.00    +0.000 A 
BRANCH  20  27
ATOM     26  N   UNL     1      48.458   2.102   6.440  0.00  0.00    +0.000 N 
ATOM     27  C   UNL     1      47.327   1.519   6.939  0.00  0.00    +0.000 C 
ATOM     28  O   UNL     1      47.077   0.339   6.726  0.00  0.00    +0.000 OA
ATOM     29  H   UNL     1      49.102   1.489   5.957  0.00  0.00    +0.000 HD
ATOM     30  H   UNL     1      48.820   2.975   6.797  0.00  0.00    +0.000 HD
ENDBRANCH  20  27
ENDBRANCH  18  23
ENDBRANCH  17  18
ENDBRANCH   1  17
TORSDOF 7
ENDMDL
MODEL 3
REMARK VINA RESULT:    -8.232      2.390      3.850
REMARK INTER + INTRA:         -12.713
REMARK INTER:                 -11.796
REMARK INTRA:                  -0.917
REMARK UNBOUND:                -1.112
REMARK  Name = 
REMARK  7 active torsions:
REMARK  status: ('A' for Active; 'I' for Inactive)
REMARK    1  A    between atoms: C_2  and  C_4
REMARK    2  A    between atoms: C_7  and  N_8
REMARK    3  A    between atoms: N_8  and  C_9
REMARK    4  A    between atoms: C_9  and  C_10
REMARK    5  A    between atoms: C_10  and  C_13
REMARK    6  A    between atoms: C_18  and  O_19
REMARK    7  A    between atoms: O_19  and  C_20
REMARK                            x       y       z     vdW  Elec       q    Type
REMARK                         _______ _______ _______ _____ _____    ______ ____
ROOT
ATOM      1  C   UNL     1      43.399   4.383  12.763  0.00  0.00    +0.000 C 
ATOM      2  F   UNL     1      42.394   5.262  12.478  0.00  0.00    +0.000 F 
ATOM      3  F   UNL     1      43.019   3.770  13.928  0.00  0.00    +0.000 F 
ENDROOT
BRANCH   1   4
ATOM      4  C   UNL     1      44.736   5.083  12.899  0.00  0.00    +0.000 A 
ATOM      5  C   UNL     1      45.803   4.485  13.583  0.00  0.00    +0.000 A 
ATOM      6  C   UNL     1      47.030   5.145  13.685  0.00  0.00    +0.000 A 
ATOM      7  C   UNL     1      47.199   6.407  13.110  0.00  0.00    +0.000 A 
ATOM      8  F   UNL     1      48.399   6.990  13.207  0.00  0.00    +0.000 F 
ATOM      9  C   UNL     1      46.146   7.023  12.436  0.00  0.00    +0.000 A 
ATOM     10  C   UNL     1      44.922   6.357  12.335  0.00  0.00    +0.000 A 
BRANCH   9  11
ATOM     11  O   UNL     1      46.177   8.233  11.793  0.00  0.00    +0.000 OA
BRANCH  11  12
ATOM     12  C   UNL     1      45.187   9.239  12.092  0.00  0.00    +0.000 C 
ATOM     13  C   UNL     1      44.105   9.532  11.032  0.00  0.00    +0.000 C 
ATOM     14  N   UNL     1      44.436  10.965  11.061  0.00  0.00    +0.000 NA
ATOM     15  C   UNL     1      45.664  10.684  11.818  0.00  0.00    +0.000 C 
ATOM     16  H   UNL     1      43.763  11.537  11.571  0.00  0.00    +0.000 HD
ENDBRANCH  11  12
ENDBRANCH   9  11
ENDBRANCH   1   4
BRANCH   1  17
ATOM     17  C   UNL     1      43.460   3.303  11.655  0.00  0.00    +0.000 C 
BRANCH  17  18
ATOM     18  N   UNL     1      43.568   3.873  10.303  0.00  0.00    +0.000 N 
ATOM     19  H   UNL     1      42.676   4.017   9.831  0.00  0.00    +0.000 HD
BRANCH  18  23
ATOM     20  C   UNL     1      46.550   2.644   7.592  0.00  0.00    +0.000 A 
ATOM     21  C   UNL     1      46.225   3.999   7.688  0.00  0.00    +0.000 A 
ATOM     22  C   UNL     1      45.252   4.422   8.600  0.00  0.00    +0.000 A 
ATOM     23  C   UNL     1      44.609   3.517   9.451  0.00  0.00    +0.000 A 
ATOM     24  C   UNL     1      44.938   2.159   9.332  0.00  0.00    +0.000 A 
ATOM     25  C   UNL     1      45.894   1.722   8.408  0.00  0.00    +0.000 A 
BRANCH  20  27
ATOM     26  N   UNL     1      47.895   3.005   5.598  0.00  0.00    +0.000 N 
ATOM     27  C   UNL     1      47.546   2.152   6.607  0.00  0.00    +0.000 C 
ATOM     28  O   UNL     1      48.060   1.045   6.707  0.00  0.00    +0.000 OA
ATOM     29  H   UNL     1      48.648   2.699   4.994  0.00  0.00    +0.000 HD
ATOM     30  H   UNL     1      47.691   3.994   5.629  0.00  0.00    +0.000 HD
ENDBRANCH  20  27
ENDBRANCH  18  23
ENDBRANCH  17  18
ENDBRANCH   1  17
TORSDOF 7
ENDMDL
MODEL 4
REMARK VINA RESULT:    -8.225      1.483      1.826
REMARK INTER + INTRA:         -12.702
REMARK INTER:                 -11.608
REMARK INTRA:                  -1.094
REMARK UNBOUND:                -1.112
REMARK  Name = 
REMARK  7 active torsions:
REMARK  status: ('A' for Active; 'I' for Inactive)
REMARK    1  A    between atoms: C_2  and  C_4
REMARK    2  A    between atoms: C_7  and  N_8
REMARK    3  A    between atoms: N_8  and  C_9
REMARK    4  A    between atoms: C_9  and  C_10
REMARK    5  A    between atoms: C_10  and  C_13
REMARK    6  A    between atoms: C_18  and  O_19
REMARK    7  A    between atoms: O_19  and  C_20
REMARK                            x       y       z     vdW  Elec       q    Type
REMARK                         _______ _______ _______ _____ _____    ______ ____
ROOT
ATOM      1  C   UNL     1      44.453   5.028  12.375  0.00  0.00    +0.000 C 
ATOM      2  F   UNL     1      43.580   5.443  13.340  0.00  0.00    +0.000 F 
ATOM      3  F   UNL     1      44.459   3.661  12.460  0.00  0.00    +0.000 F 
ENDROOT
BRANCH   1   4
ATOM      4  C   UNL     1      45.835   5.617  12.578  0.00  0.00    +0.000 A 
ATOM      5  C   UNL     1      46.408   6.468  11.624  0.00  0.00    +0.000 A 
ATOM      6  C   UNL     1      47.679   7.008  11.838  0.00  0.00    +0.000 A 
ATOM      7  C   UNL     1      48.387   6.698  13.002  0.00  0.00    +0.000 A 
ATOM      8  F   UNL     1      49.587   7.260  13.179  0.00  0.00    +0.000 F 
ATOM      9  C   UNL     1      47.838   5.843  13.957  0.00  0.00    +0.000 A 
ATOM     10  C   UNL     1      46.567   5.309  13.738  0.00  0.00    +0.000 A 
BRANCH   9  11
ATOM     11  O   UNL     1      48.396   5.483  15.156  0.00  0.00    +0.000 OA
BRANCH  11  12
ATOM     12  C   UNL     1      48.748   6.493  16.125  0.00  0.00    +0.000 C 
ATOM     13  C   UNL     1      50.238   6.671  16.481  0.00  0.00    +0.000 C 
ATOM     14  N   UNL     1      49.934   6.516  17.912  0.00  0.00    +0.000 NA
ATOM     15  C   UNL     1      48.584   6.033  17.591  0.00  0.00    +0.000 C 
ATOM     16  H   UNL     1      49.943   7.390  18.436  0.00  0.00    +0.000 HD
ENDBRANCH  11  12
ENDBRANCH   9  11
ENDBRANCH   1   4
BRANCH   1  17
ATOM     17  C   UNL     1      43.895   5.417  10.984  0.00  0.00    +0.000 C 
BRANCH  17  18
ATOM     18  N   UNL     1      43.535   4.251  10.162  0.00  0.00    +0.000 N 
ATOM     19  H   UNL     1      42.885   3.604  10.608  0.00  0.00    +0.000 HD
BRANCH  18  23
ATOM     20  C   UNL     1      46.545   2.522   7.776  0.00  0.00    +0.000 A 
ATOM     21  C   UNL     1      45.723   1.699   8.547  0.00  0.00    +0.000 A 
ATOM     22  C   UNL     1      44.705   2.259   9.327  0.00  0.00    +0.000 A 
ATOM     23  C   UNL     1      44.466   3.638   9.332  0.00  0.00    +0.000 A 
ATOM     24  C   UNL     1      45.311   4.451   8.562  0.00  0.00    +0.000 A 
ATOM     25  C   UNL     1      46.345   3.903   7.795  0.00  0.00    +0.000 A 
BRANCH  20  27
ATOM     26  N   UNL     1      48.564   2.860   6.462  0.00  0.00    +0.000 N 
ATOM     27  C   UNL     1      47.662   1.968   6.970  0.00  0.00    +0.000 C 
ATOM     28  O   UNL     1      47.795   0.764   6.793  0.00  0.00    +0.000 OA
ATOM     29  H   UNL     1      49.375   2.464   6.003  0.00  0.00    +0.000 HD
ATOM     30  H   UNL     1      48.630   3.812   6.793  0.00  0.00    +0.000 HD
ENDBRANCH  20  27
ENDBRANCH  18  23
ENDBRANCH  17  18
ENDBRANCH   1  17
TORSDOF 7
ENDMDL
MODEL 5
REMARK VINA RESULT:    -8.069      2.638      3.604
REMARK INTER + INTRA:         -12.482
REMARK INTER:                 -11.463
REMARK INTRA:                  -1.019
REMARK UNBOUND:                -1.112
REMARK  Name = 
REMARK  7 active torsions:
REMARK  status: ('A' for Active; 'I' for Inactive)
REMARK    1  A    between atoms: C_2  and  C_4
REMARK    2  A    between atoms: C_7  and  N_8
REMARK    3  A    between atoms: N_8  and  C_9
REMARK    4  A    between atoms: C_9  and  C_10
REMARK    5  A    between atoms: C_10  and  C_13
REMARK    6  A    between atoms: C_18  and  O_19
REMARK    7  A    between atoms: O_19  and  C_20
REMARK                            x       y       z     vdW  Elec       q    Type
REMARK                         _______ _______ _______ _____ _____    ______ ____
ROOT
ATOM      1  C   UNL     1      43.316   5.789  11.959  0.00  0.00    +0.000 C 
ATOM      2  F   UNL     1      43.039   6.934  11.268  0.00  0.00    +0.000 F 
ATOM      3  F   UNL     1      42.336   5.697  12.910  0.00  0.00    +0.000 F 
ENDROOT
BRANCH   1   4
ATOM      4  C   UNL     1      44.702   5.824  12.571  0.00  0.00    +0.000 A 
ATOM      5  C   UNL     1      45.235   4.705  13.225  0.00  0.00    +0.000 A 
ATOM      6  C   UNL     1      46.520   4.758  13.773  0.00  0.00    +0.000 A 
ATOM      7  C   UNL     1      47.277   5.927  13.675  0.00  0.00    +0.000 A 
ATOM      8  F   UNL     1      48.513   5.923  14.188  0.00  0.00    +0.000 F 
ATOM      9  C   UNL     1      46.759   7.054  13.040  0.00  0.00    +0.000 A 
ATOM     10  C   UNL     1      45.476   6.995  12.492  0.00  0.00    +0.000 A 
BRANCH   9  11
ATOM     11  O   UNL     1      47.398   8.250  12.836  0.00  0.00    +0.000 OA
BRANCH  11  12
ATOM     12  C   UNL     1      48.236   8.436  11.676  0.00  0.00    +0.000 C 
ATOM     13  C   UNL     1      49.688   7.919  11.737  0.00  0.00    +0.000 C 
ATOM     14  N   UNL     1      50.196   9.244  11.349  0.00  0.00    +0.000 NA
ATOM     15  C   UNL     1      48.875   9.841  11.588  0.00  0.00    +0.000 C 
ATOM     16  H   UNL     1      50.504   9.304  10.379  0.00  0.00    +0.000 HD
ENDBRANCH  11  12
ENDBRANCH   9  11
ENDBRANCH   1   4
BRANCH   1  17
ATOM     17  C   UNL     1      43.173   4.575  11.007  0.00  0.00    +0.000 C 
BRANCH  17  18
ATOM     18  N   UNL     1      43.755   4.815   9.678  0.00  0.00    +0.000 N 
ATOM     19  H   UNL     1      43.112   5.226   9.002  0.00  0.00    +0.000 HD
BRANCH  18  23
ATOM     20  C   UNL     1      46.333   2.012   7.875  0.00  0.00    +0.000 A 
ATOM     21  C   UNL     1      46.490   3.370   7.593  0.00  0.00    +0.000 A 
ATOM     22  C   UNL     1      45.655   4.313   8.202  0.00  0.00    +0.000 A 
ATOM     23  C   UNL     1      44.673   3.929   9.122  0.00  0.00    +0.000 A 
ATOM     24  C   UNL     1      44.519   2.560   9.382  0.00  0.00    +0.000 A 
ATOM     25  C   UNL     1      45.335   1.607   8.763  0.00  0.00    +0.000 A 
BRANCH  20  27
ATOM     26  N   UNL     1      46.951  -0.321   7.572  0.00  0.00    +0.000 N 
ATOM     27  C   UNL     1      47.171   0.980   7.215  0.00  0.00    +0.000 C 
ATOM     28  O   UNL     1      48.002   1.270   6.364  0.00  0.00    +0.000 OA
ATOM     29  H   UNL     1      47.454  -1.021   7.042  0.00  0.00    +0.000 HD
ATOM     30  H   UNL     1      46.120  -0.614   8.066  0.00  0.00    +0.000 HD
ENDBRANCH  20  27
ENDBRANCH  18  23
ENDBRANCH  17  18
ENDBRANCH   1  17
TORSDOF 7
ENDMDL
MODEL 6
REMARK VINA RESULT:    -8.030      3.009      4.528
REMARK INTER + INTRA:         -12.427
REMARK INTER:                 -11.529
REMARK INTRA:                  -0.898
REMARK UNBOUND:                -1.112
REMARK  Name = 
REMARK  7 active torsions:
REMARK  status: ('A' for Active; 'I' for Inactive)
REMARK    1  A    between atoms: C_2  and  C_4
REMARK    2  A    between atoms: C_7  and  N_8
REMARK    3  A    between atoms: N_8  and  C_9
REMARK    4  A    between atoms: C_9  and  C_10
REMARK    5  A    between atoms: C_10  and  C_13
REMARK    6  A    between atoms: C_18  and  O_19
REMARK    7  A    between atoms: O_19  and  C_20
REMARK                            x       y       z     vdW  Elec       q    Type
REMARK                         _______ _______ _______ _____ _____    ______ ____
ROOT
ATOM      1  C   UNL     1      44.049   4.682  12.430  0.00  0.00    +0.000 C 
ATOM      2  F   UNL     1      43.235   4.754  13.525  0.00  0.00    +0.000 F 
ATOM      3  F   UNL     1      44.648   3.453  12.508  0.00  0.00    +0.000 F 
ENDROOT
BRANCH   1   4
ATOM      4  C   UNL     1      45.063   5.809  12.411  0.00  0.00    +0.000 A 
ATOM      5  C   UNL     1      46.439   5.545  12.360  0.00  0.00    +0.000 A 
ATOM      6  C   UNL     1      47.355   6.600  12.331  0.00  0.00    +0.000 A 
ATOM      7  C   UNL     1      46.904   7.923  12.359  0.00  0.00    +0.000 A 
ATOM      8  F   UNL     1      47.814   8.901  12.300  0.00  0.00    +0.000 F 
ATOM      9  C   UNL     1      45.541   8.204  12.422  0.00  0.00    +0.000 A 
ATOM     10  C   UNL     1      44.630   7.145  12.448  0.00  0.00    +0.000 A 
BRANCH   9  11
ATOM     11  O   UNL     1      44.955   9.443  12.416  0.00  0.00    +0.000 OA
BRANCH  11  12
ATOM     12  C   UNL     1      44.577  10.060  11.167  0.00  0.00    +0.000 C 
ATOM     13  C   UNL     1      44.066  11.515  11.202  0.00  0.00    +0.000 C 
ATOM     14  N   UNL     1      42.847  11.124  10.478  0.00  0.00    +0.000 NA
ATOM     15  C   UNL     1      43.146   9.704  10.704  0.00  0.00    +0.000 C 
ATOM     16  H   UNL     1      42.844  11.391   9.494  0.00  0.00    +0.000 HD
ENDBRANCH  11  12
ENDBRANCH   9  11
ENDBRANCH   1   4
BRANCH   1  17
ATOM     17  C   UNL     1      43.181   4.710  11.149  0.00  0.00    +0.000 C 
BRANCH  17  18
ATOM     18  N   UNL     1      43.958   4.997   9.934  0.00  0.00    +0.000 N 
ATOM     19  H   UNL     1      43.547   5.707   9.327  0.00  0.00    +0.000 HD
BRANCH  18  23
ATOM     20  C   UNL     1      46.222   2.033   7.977  0.00  0.00    +0.000 A 
ATOM     21  C   UNL     1      45.220   1.652   8.871  0.00  0.00    +0.000 A 
ATOM     22  C   UNL     1      44.446   2.627   9.510  0.00  0.00    +0.000 A 
ATOM     23  C   UNL     1      44.632   3.989   9.252  0.00  0.00    +0.000 A 
ATOM     24  C   UNL     1      45.652   4.354   8.362  0.00  0.00    +0.000 A 
ATOM     25  C   UNL     1      46.446   3.389   7.733  0.00  0.00    +0.000 A 
BRANCH  20  27
ATOM     26  N   UNL     1      46.848  -0.286   7.590  0.00  0.00    +0.000 N 
ATOM     27  C   UNL     1      47.092   1.030   7.312  0.00  0.00    +0.000 C 
ATOM     28  O   UNL     1      47.969   1.357   6.522  0.00  0.00    +0.000 OA
ATOM     29  H   UNL     1      47.377  -0.962   7.053  0.00  0.00    +0.000 HD
ATOM     30  H   UNL     1      45.991  -0.598   8.024  0.00  0.00    +0.000 HD
ENDBRANCH  20  27
ENDBRANCH  18  23
ENDBRANCH  17  18
ENDBRANCH   1  17
TORSDOF 7
ENDMDL
MODEL 7
REMARK VINA RESULT:    -7.888      2.041      2.555
REMARK INTER + INTRA:         -12.228
REMARK INTER:                 -11.444
REMARK INTRA:                  -0.783
REMARK UNBOUND:                -1.112
REMARK  Name = 
REMARK  7 active torsions:
REMARK  status: ('A' for Active; 'I' for Inactive)
REMARK    1  A    between atoms: C_2  and  C_4
REMARK    2  A    between atoms: C_7  and  N_8
REMARK    3  A    between atoms: N_8  and  C_9
REMARK    4  A    between atoms: C_9  and  C_10
REMARK    5  A    between atoms: C_10  and  C_13
REMARK    6  A    between atoms: C_18  and  O_19
REMARK    7  A    between atoms: O_19  and  C_20
REMARK                            x       y       z     vdW  Elec       q    Type
REMARK                         _______ _______ _______ _____ _____    ______ ____
ROOT
ATOM      1  C   UNL     1      43.944   4.878  12.319  0.00  0.00    +0.000 C 
ATOM      2  F   UNL     1      43.083   4.953  13.377  0.00  0.00    +0.000 F 
ATOM      3  F   UNL     1      44.657   3.726  12.518  0.00  0.00    +0.000 F 
ENDROOT
BRANCH   1   4
ATOM      4  C   UNL     1      44.842   6.097  12.239  0.00  0.00    +0.000 A 
ATOM      5  C   UNL     1      44.357   7.325  11.770  0.00  0.00    +0.000 A 
ATOM      6  C   UNL     1      45.200   8.438  11.715  0.00  0.00    +0.000 A 
ATOM      7  C   UNL     1      46.532   8.330  12.124  0.00  0.00    +0.000 A 
ATOM      8  F   UNL     1      47.295   9.428  12.083  0.00  0.00    +0.000 F 
ATOM      9  C   UNL     1      47.035   7.114  12.582  0.00  0.00    +0.000 A 
ATOM     10  C   UNL     1      46.187   6.006  12.636  0.00  0.00    +0.000 A 
BRANCH   9  11
ATOM     11  O   UNL     1      48.301   6.871  13.049  0.00  0.00    +0.000 OA
BRANCH  11  12
ATOM     12  C   UNL     1      48.676   7.287  14.378  0.00  0.00    +0.000 C 
ATOM     13  C   UNL     1      50.177   7.344  14.726  0.00  0.00    +0.000 C 
ATOM     14  N   UNL     1      49.958   6.486  15.901  0.00  0.00    +0.000 NA
ATOM     15  C   UNL     1      48.606   6.155  15.429  0.00  0.00    +0.000 C 
ATOM     16  H   UNL     1      49.970   6.987  16.789  0.00  0.00    +0.000 HD
ENDBRANCH  11  12
ENDBRANCH   9  11
ENDBRANCH   1   4
BRANCH   1  17
ATOM     17  C   UNL     1      43.130   4.715  11.012  0.00  0.00    +0.000 C 
BRANCH  17  18
ATOM     18  N   UNL     1      43.924   4.982   9.803  0.00  0.00    +0.000 N 
ATOM     19  H   UNL     1      43.519   5.676   9.175  0.00  0.00    +0.000 HD
BRANCH  18  23
ATOM     20  C   UNL     1      46.235   1.988   7.948  0.00  0.00    +0.000 A 
ATOM     21  C   UNL     1      45.213   1.621   8.824  0.00  0.00    +0.000 A 
ATOM     22  C   UNL     1      44.423   2.605   9.429  0.00  0.00    +0.000 A 
ATOM     23  C   UNL     1      44.614   3.964   9.154  0.00  0.00    +0.000 A 
ATOM     24  C   UNL     1      45.655   4.315   8.282  0.00  0.00    +0.000 A 
ATOM     25  C   UNL     1      46.464   3.340   7.688  0.00  0.00    +0.000 A 
BRANCH  20  27
ATOM     26  N   UNL     1      46.840  -0.338   7.572  0.00  0.00    +0.000 N 
ATOM     27  C   UNL     1      47.121   0.975   7.320  0.00  0.00    +0.000 C 
ATOM     28  O   UNL     1      48.044   1.294   6.580  0.00  0.00    +0.000 OA
ATOM     29  H   UNL     1      47.384  -1.019   7.057  0.00  0.00    +0.000 HD
ATOM     30  H   UNL     1      45.955  -0.638   7.957  0.00  0.00    +0.000 HD
ENDBRANCH  20  27
ENDBRANCH  18  23
ENDBRANCH  17  18
ENDBRANCH   1  17
TORSDOF 7
ENDMDL
MODEL 8
REMARK VINA RESULT:    -7.670      2.421      3.167
REMARK INTER + INTRA:         -11.920
REMARK INTER:                 -11.643
REMARK INTRA:                  -0.277
REMARK UNBOUND:                -1.112
REMARK  Name = 
REMARK  7 active torsions:
REMARK  status: ('A' for Active; 'I' for Inactive)
REMARK    1  A    between atoms: C_2  and  C_4
REMARK    2  A    between atoms: C_7  and  N_8
REMARK    3  A    between atoms: N_8  and  C_9
REMARK    4  A    between atoms: C_9  and  C_10
REMARK    5  A    between atoms: C_10  and  C_13
REMARK    6  A    between atoms: C_18  and  O_19
REMARK    7  A    between atoms: O_19  and  C_20
REMARK                            x       y       z     vdW  Elec       q    Type
REMARK                         _______ _______ _______ _____ _____    ______ ____
ROOT
ATOM      1  C   UNL     1      45.277   6.245  11.392  0.00  0.00    +0.000 C 
ATOM      2  F   UNL     1      46.070   6.259  10.280  0.00  0.00    +0.000 F 
ATOM      3  F   UNL     1      44.793   7.521  11.504  0.00  0.00    +0.000 F 
ENDROOT
BRANCH   1   4
ATOM      4  C   UNL     1      46.049   5.819  12.626  0.00  0.00    +0.000 A 
ATOM      5  C   UNL     1      45.583   4.787  13.452  0.00  0.00    +0.000 A 
ATOM      6  C   UNL     1      46.316   4.405  14.578  0.00  0.00    +0.000 A 
ATOM      7  C   UNL     1      47.515   5.052  14.889  0.00  0.00    +0.000 A 
ATOM      8  F   UNL     1      48.199   4.633  15.959  0.00  0.00    +0.000 F 
ATOM      9  C   UNL     1      47.988   6.088  14.086  0.00  0.00    +0.000 A 
ATOM     10  C   UNL     1      47.251   6.464  12.960  0.00  0.00    +0.000 A 
BRANCH   9  11
ATOM     11  O   UNL     1      49.159   6.783  14.244  0.00  0.00    +0.000 OA
BRANCH  11  12
ATOM     12  C   UNL     1      49.153   8.080  14.875  0.00  0.00    +0.000 C 
ATOM     13  C   UNL     1      48.744   8.165  16.360  0.00  0.00    +0.000 C 
ATOM     14  N   UNL     1      47.728   9.180  16.042  0.00  0.00    +0.000 NA
ATOM     15  C   UNL     1      47.868   8.898  14.607  0.00  0.00    +0.000 C 
ATOM     16  H   UNL     1      47.994  10.130  16.301  0.00  0.00    +0.000 HD
ENDBRANCH  11  12
ENDBRANCH   9  11
ENDBRANCH   1   4
BRANCH   1  17
ATOM     17  C   UNL     1      44.076   5.298  11.148  0.00  0.00    +0.000 C 
BRANCH  17  18
ATOM     18  N   UNL     1      43.871   4.985   9.725  0.00  0.00    +0.000 N 
ATOM     19  H   UNL     1      42.911   5.100   9.400  0.00  0.00    +0.000 HD
BRANCH  18  23
ATOM     20  C   UNL     1      46.174   1.939   7.945  0.00  0.00    +0.000 A 
ATOM     21  C   UNL     1      45.240   1.608   8.928  0.00  0.00    +0.000 A 
ATOM     22  C   UNL     1      44.454   2.607   9.512  0.00  0.00    +0.000 A 
ATOM     23  C   UNL     1      44.558   3.944   9.110  0.00  0.00    +0.000 A 
ATOM     24  C   UNL     1      45.510   4.260   8.130  0.00  0.00    +0.000 A 
ATOM     25  C   UNL     1      46.317   3.272   7.555  0.00  0.00    +0.000 A 
BRANCH  20  27
ATOM     26  N   UNL     1      46.780  -0.394   7.621  0.00  0.00    +0.000 N 
ATOM     27  C   UNL     1      47.055   0.913   7.334  0.00  0.00    +0.000 C 
ATOM     28  O   UNL     1      47.970   1.215   6.577  0.00  0.00    +0.000 OA
ATOM     29  H   UNL     1      47.321  -1.086   7.119  0.00  0.00    +0.000 HD
ATOM     30  H   UNL     1      45.900  -0.687   8.023  0.00  0.00    +0.000 HD
ENDBRANCH  20  27
ENDBRANCH  18  23
ENDBRANCH  17  18
ENDBRANCH   1  17
TORSDOF 7
ENDMDL
MODEL 9
REMARK VINA RESULT:    -7.428      2.259      8.186
REMARK INTER + INTRA:         -11.579
REMARK INTER:                 -10.839
REMARK INTRA:                  -0.740
REMARK UNBOUND:                -1.112
REMARK  Name = 
REMARK  7 active torsions:
REMARK  status: ('A' for Active; 'I' for Inactive)
REMARK    1  A    between atoms: C_2  and  C_4
REMARK    2  A    between atoms: C_7  and  N_8
REMARK    3  A    between atoms: N_8  and  C_9
REMARK    4  A    between atoms: C_9  and  C_10
REMARK    5  A    between atoms: C_10  and  C_13
REMARK    6  A    between atoms: C_18  and  O_19
REMARK    7  A    between atoms: O_19  and  C_20
REMARK                            x       y       z     vdW  Elec       q    Type
REMARK                         _______ _______ _______ _____ _____    ______ ____
ROOT
ATOM      1  C   UNL     1      45.492   6.120  11.191  0.00  0.00    +0.000 C 
ATOM      2  F   UNL     1      44.499   7.032  10.972  0.00  0.00    +0.000 F 
ATOM      3  F   UNL     1      46.625   6.692  10.677  0.00  0.00    +0.000 F 
ENDROOT
BRANCH   1   4
ATOM      4  C   UNL     1      45.182   4.786  10.541  0.00  0.00    +0.000 A 
ATOM      5  C   UNL     1      44.534   3.766  11.250  0.00  0.00    +0.000 A 
ATOM      6  C   UNL     1      44.249   2.549  10.626  0.00  0.00    +0.000 A 
ATOM      7  C   UNL     1      44.614   2.341   9.294  0.00  0.00    +0.000 A 
ATOM      8  F   UNL     1      44.295   1.171   8.728  0.00  0.00    +0.000 F 
ATOM      9  C   UNL     1      45.270   3.339   8.576  0.00  0.00    +0.000 A 
ATOM     10  C   UNL     1      45.550   4.554   9.204  0.00  0.00    +0.000 A 
BRANCH   9  11
ATOM     11  O   UNL     1      45.650   3.290   7.260  0.00  0.00    +0.000 OA
BRANCH  11  12
ATOM     12  C   UNL     1      47.045   3.167   6.912  0.00  0.00    +0.000 C 
ATOM     13  C   UNL     1      47.407   2.936   5.430  0.00  0.00    +0.000 C 
ATOM     14  N   UNL     1      48.196   1.747   5.788  0.00  0.00    +0.000 NA
ATOM     15  C   UNL     1      47.622   1.751   7.141  0.00  0.00    +0.000 C 
ATOM     16  H   UNL     1      49.205   1.898   5.771  0.00  0.00    +0.000 HD
ENDBRANCH  11  12
ENDBRANCH   9  11
ENDBRANCH   1   4
BRANCH   1  17
ATOM     17  C   UNL     1      45.695   5.947  12.717  0.00  0.00    +0.000 C 
BRANCH  17  18
ATOM     18  N   UNL     1      47.101   5.728  13.088  0.00  0.00    +0.000 N 
ATOM     19  H   UNL     1      47.644   5.203  12.402  0.00  0.00    +0.000 HD
BRANCH  18  23
ATOM     20  C   UNL     1      48.334   4.778  17.003  0.00  0.00    +0.000 A 
ATOM     21  C   UNL     1      48.780   5.961  16.411  0.00  0.00    +0.000 A 
ATOM     22  C   UNL     1      48.360   6.299  15.120  0.00  0.00    +0.000 A 
ATOM     23  C   UNL     1      47.470   5.488  14.408  0.00  0.00    +0.000 A 
ATOM     24  C   UNL     1      47.044   4.296  15.012  0.00  0.00    +0.000 A 
ATOM     25  C   UNL     1      47.474   3.938  16.294  0.00  0.00    +0.000 A 
BRANCH  20  27
ATOM     26  N   UNL     1      48.289   3.195  18.850  0.00  0.00    +0.000 N 
ATOM     27  C   UNL     1      48.791   4.365  18.354  0.00  0.00    +0.000 C 
ATOM     28  O   UNL     1      49.609   5.021  18.987  0.00  0.00    +0.000 OA
ATOM     29  H   UNL     1      48.685   2.873  19.724  0.00  0.00    +0.000 HD
ATOM     30  H   UNL     1      47.824   2.515  18.265  0.00  0.00    +0.000 HD
ENDBRANCH  20  27
ENDBRANCH  18  23
ENDBRANCH  17  18
ENDBRANCH   1  17
TORSDOF 7
ENDMDL
