MODEL 1
REMARK VINA RESULT:    -9.206      0.000      0.000
REMARK INTER + INTRA:         -12.838
REMARK INTER:                 -11.896
REMARK INTRA:                  -0.942
REMARK UNBOUND:                -0.942
REMARK  Name = 
REMARK  5 active torsions:
REMARK  status: ('A' for Active; 'I' for Inactive)
REMARK    1  A    between atoms: C_2  and  C_4
REMARK    2  A    between atoms: N_8  and  C_9
REMARK    3  A    between atoms: C_9  and  C_10
REMARK    4  A    between atoms: C_10  and  C_13
REMARK    5  A    between atoms: C_17  and  C_18
REMARK                            x       y       z     vdW  Elec       q    Type
REMARK                         _______ _______ _______ _____ _____    ______ ____
ROOT
ATOM      1  C   UNL     1      43.324   5.274  12.303  0.00  0.00    +0.000 C 
ATOM      2  F   UNL     1      42.706   6.481  12.097  0.00  0.00    +0.000 F 
ATOM      3  F   UNL     1      42.631   4.702  13.334  0.00  0.00    +0.000 F 
ENDROOT
BRANCH   1   4
ATOM      4  C   UNL     1      44.793   5.440  12.645  0.00  0.00    +0.000 A 
ATOM      5  C   UNL     1      45.472   4.413  13.311  0.00  0.00    +0.000 A 
ATOM      6  C   UNL     1      46.818   4.552  13.629  0.00  0.00    +0.000 A 
ATOM      7  C   UNL     1      47.504   5.717  13.277  0.00  0.00    +0.000 A 
ATOM      8  C   UNL     1      46.869   6.766  12.587  0.00  0.00    +0.000 A 
ATOM      9  C   UNL     1      45.499   6.607  12.290  0.00  0.00    +0.000 A 
BRANCH   8  10
ATOM     10  C   UNL     1      47.621   7.972  12.170  0.00  0.00    +0.000 A 
ATOM     11  C   UNL     1      48.961   7.927  11.759  0.00  0.00    +0.000 A 
ATOM     12  C   UNL     1      49.632   9.097  11.399  0.00  0.00    +0.000 A 
ATOM     13  C   UNL     1      48.944  10.295  11.449  0.00  0.00    +0.000 A 
ATOM     14  F   UNL     1      49.587  11.420  11.105  0.00  0.00    +0.000 F 
ATOM     15  N   UNL     1      47.659  10.401  11.827  0.00  0.00    +0.000 NA
ATOM     16  C   UNL     1      47.039   9.246  12.179  0.00  0.00    +0.000 A 
ENDBRANCH   8  10
ENDBRANCH   1   4
BRANCH   1  17
ATOM     17  C   UNL     1      43.124   4.419  11.025  0.00  0.00    +0.000 C 
BRANCH  17  22
ATOM     18  C   UNL     1      46.294   2.105   7.927  0.00  0.00    +0.000 A 
ATOM     19  C   UNL     1      46.348   3.441   7.541  0.00  0.00    +0.000 A 
ATOM     20  C   UNL     1      45.554   4.374   8.212  0.00  0.00    +0.000 A 
ATOM     21  C   UNL     1      44.731   3.962   9.262  0.00  0.00    +0.000 A 
ATOM     22  N   UNL     1      43.924   4.921   9.886  0.00  0.00    +0.000 N 
ATOM     23  N   UNL     1      44.654   2.667   9.625  0.00  0.00    +0.000 NA
ATOM     24  C   UNL     1      45.422   1.770   8.951  0.00  0.00    +0.000 A 
ATOM     25  H   UNL     1      44.465   5.746  10.132  0.00  0.00    +0.000 HD
BRANCH  18  27
ATOM     26  N   UNL     1      46.826  -0.250   7.654  0.00  0.00    +0.000 N 
ATOM     27  C   UNL     1      47.089   1.040   7.284  0.00  0.00    +0.000 C 
ATOM     28  O   UNL     1      47.924   1.294   6.427  0.00  0.00    +0.000 OA
ATOM     29  H   UNL     1      47.306  -0.974   7.132  0.00  0.00    +0.000 HD
ATOM     30  H   UNL     1      45.995  -0.515   8.162  0.00  0.00    +0.000 HD
ENDBRANCH  18  27
ENDBRANCH  17  22
ENDBRANCH   1  17
TORSDOF 5
ENDMDL
MODEL 2
REMARK VINA RESULT:    -9.050      2.899      4.251
REMARK INTER + INTRA:         -12.637
REMARK INTER:                 -11.689
REMARK INTRA:                  -0.948
REMARK UNBOUND:                -0.942
REMARK  Name = 
REMARK  5 active torsions:
REMARK  status: ('A' for Active; 'I' for Inactive)
REMARK    1  A    between atoms: C_2  and  C_4
REMARK    2  A    between atoms: N_8  and  C_9
REMARK    3  A    between atoms: C_9  and  C_10
REMARK    4  A    between atoms: C_10  and  C_13
REMARK    5  A    between atoms: C_17  and  C_18
REMARK                            x       y       z     vdW  Elec       q    Type
REMARK                         _______ _______ _______ _____ _____    ______ ____
ROOT
ATOM      1  C   UNL     1      43.558   4.834  12.383  0.00  0.00    +0.000 C 
ATOM      2  F   UNL     1      42.670   5.836  12.678  0.00  0.00    +0.000 F 
ATOM      3  F   UNL     1      43.167   3.783  13.167  0.00  0.00    +0.000 F 
ENDROOT
BRANCH   1   4
ATOM      4  C   UNL     1      44.990   5.241  12.674  0.00  0.00    +0.000 A 
ATOM      5  C   UNL     1      45.668   6.082  11.784  0.00  0.00    +0.000 A 
ATOM      6  C   UNL     1      46.981   6.463  12.040  0.00  0.00    +0.000 A 
ATOM      7  C   UNL     1      47.628   6.014  13.193  0.00  0.00    +0.000 A 
ATOM      8  C   UNL     1      46.979   5.185  14.127  0.00  0.00    +0.000 A 
ATOM      9  C   UNL     1      45.653   4.800  13.836  0.00  0.00    +0.000 A 
BRANCH   8  10
ATOM     10  C   UNL     1      47.658   4.761  15.373  0.00  0.00    +0.000 A 
ATOM     11  C   UNL     1      47.566   3.457  15.882  0.00  0.00    +0.000 A 
ATOM     12  C   UNL     1      48.204   3.115  17.076  0.00  0.00    +0.000 A 
ATOM     13  C   UNL     1      48.934   4.086  17.735  0.00  0.00    +0.000 A 
ATOM     14  F   UNL     1      49.547   3.759  18.882  0.00  0.00    +0.000 F 
ATOM     15  N   UNL     1      49.065   5.348  17.295  0.00  0.00    +0.000 NA
ATOM     16  C   UNL     1      48.424   5.650  16.137  0.00  0.00    +0.000 A 
ENDBRANCH   8  10
ENDBRANCH   1   4
BRANCH   1  17
ATOM     17  C   UNL     1      43.359   4.452  10.893  0.00  0.00    +0.000 C 
BRANCH  17  22
ATOM     18  C   UNL     1      46.446   2.778   7.334  0.00  0.00    +0.000 A 
ATOM     19  C   UNL     1      46.053   1.631   8.016  0.00  0.00    +0.000 A 
ATOM     20  C   UNL     1      45.182   1.752   9.101  0.00  0.00    +0.000 A 
ATOM     21  C   UNL     1      44.708   3.010   9.478  0.00  0.00    +0.000 A 
ATOM     22  N   UNL     1      43.865   3.094  10.592  0.00  0.00    +0.000 N 
ATOM     23  N   UNL     1      45.104   4.128   8.839  0.00  0.00    +0.000 NA
ATOM     24  C   UNL     1      45.964   3.994   7.794  0.00  0.00    +0.000 A 
ATOM     25  H   UNL     1      43.114   2.411  10.531  0.00  0.00    +0.000 HD
BRANCH  18  27
ATOM     26  N   UNL     1      48.683   2.504   6.426  0.00  0.00    +0.000 N 
ATOM     27  C   UNL     1      47.364   2.762   6.177  0.00  0.00    +0.000 C 
ATOM     28  O   UNL     1      46.958   2.935   5.037  0.00  0.00    +0.000 OA
ATOM     29  H   UNL     1      49.281   2.395   5.616  0.00  0.00    +0.000 HD
ATOM     30  H   UNL     1      49.011   2.120   7.301  0.00  0.00    +0.000 HD
ENDBRANCH  18  27
ENDBRANCH  17  22
ENDBRANCH   1  17
TORSDOF 5
ENDMDL
MODEL 3
REMARK VINA RESULT:    -8.504      2.066      2.562
REMARK INTER + INTRA:         -11.932
REMARK INTER:                 -11.524
REMARK INTRA:                  -0.408
REMARK UNBOUND:                -0.942
REMARK  Name = 
REMARK  5 active torsions:
REMARK  status: ('A' for Active; 'I' for Inactive)
REMARK    1  A    between atoms: C_2  and  C_4
REMARK    2  A    between atoms: N_8  and  C_9
REMARK    3  A    between atoms: C_9  and  C_10
REMARK    4  A    between atoms: C_10  and  C_13
REMARK    5  A    between atoms: C_17  and  C_18
REMARK                            x       y       z     vdW  Elec       q    Type
REMARK                         _______ _______ _______ _____ _____    ______ ____
ROOT
ATOM      1  C   UNL     1      43.709   4.672  12.482  0.00  0.00    +0.000 C 
ATOM      2  F   UNL     1      42.601   4.848  13.270  0.00  0.00    +0.000 F 
ATOM      3  F   UNL     1      44.417   3.675  13.097  0.00  0.00    +0.000 F 
ENDROOT
BRANCH   1   4
ATOM      4  C   UNL     1      44.529   5.943  12.362  0.00  0.00    +0.000 A 
ATOM      5  C   UNL     1      43.994   7.056  11.703  0.00  0.00    +0.000 A 
ATOM      6  C   UNL     1      44.735   8.227  11.587  0.00  0.00    +0.000 A 
ATOM      7  C   UNL     1      46.016   8.301  12.137  0.00  0.00    +0.000 A 
ATOM      8  C   UNL     1      46.587   7.216  12.827  0.00  0.00    +0.000 A 
ATOM      9  C   UNL     1      45.821   6.034  12.917  0.00  0.00    +0.000 A 
BRANCH   8  10
ATOM     10  C   UNL     1      47.924   7.326  13.453  0.00  0.00    +0.000 A 
ATOM     11  C   UNL     1      48.911   8.207  12.986  0.00  0.00    +0.000 A 
ATOM     12  C   UNL     1      50.166   8.254  13.597  0.00  0.00    +0.000 A 
ATOM     13  C   UNL     1      50.407   7.423  14.674  0.00  0.00    +0.000 A 
ATOM     14  F   UNL     1      51.612   7.466  15.261  0.00  0.00    +0.000 F 
ATOM     15  N   UNL     1      49.501   6.564  15.171  0.00  0.00    +0.000 NA
ATOM     16  C   UNL     1      48.295   6.536  14.549  0.00  0.00    +0.000 A 
ENDBRANCH   8  10
ENDBRANCH   1   4
BRANCH   1  17
ATOM     17  C   UNL     1      43.227   4.166  11.098  0.00  0.00    +0.000 C 
BRANCH  17  22
ATOM     18  C   UNL     1      46.441   2.301   7.752  0.00  0.00    +0.000 A 
ATOM     19  C   UNL     1      46.403   3.664   7.472  0.00  0.00    +0.000 A 
ATOM     20  C   UNL     1      45.573   4.490   8.232  0.00  0.00    +0.000 A 
ATOM     21  C   UNL     1      44.807   3.948   9.266  0.00  0.00    +0.000 A 
ATOM     22  N   UNL     1      43.962   4.803   9.982  0.00  0.00    +0.000 N 
ATOM     23  N   UNL     1      44.819   2.627   9.528  0.00  0.00    +0.000 NA
ATOM     24  C   UNL     1      45.621   1.834   8.768  0.00  0.00    +0.000 A 
ATOM     25  H   UNL     1      44.458   5.640  10.280  0.00  0.00    +0.000 HD
BRANCH  18  27
ATOM     26  N   UNL     1      48.317   1.849   6.276  0.00  0.00    +0.000 N 
ATOM     27  C   UNL     1      47.280   1.341   7.008  0.00  0.00    +0.000 C 
ATOM     28  O   UNL     1      47.082   0.136   7.072  0.00  0.00    +0.000 OA
ATOM     29  H   UNL     1      48.944   1.173   5.855  0.00  0.00    +0.000 HD
ATOM     30  H   UNL     1      48.659   2.792   6.392  0.00  0.00    +0.000 HD
ENDBRANCH  18  27
ENDBRANCH  17  22
ENDBRANCH   1  17
TORSDOF 5
ENDMDL
MODEL 4
REMARK VINA RESULT:    -8.370      2.477      3.065
REMARK INTER + INTRA:         -11.758
REMARK INTER:                 -10.890
REMARK INTRA:                  -0.869
REMARK UNBOUND:                -0.942
REMARK  Name = 
REMARK  5 active torsions:
REMARK  status: ('A' for Active; 'I' for Inactive)
REMARK    1  A    between atoms: C_2  and  C_4
REMARK    2  A    between atoms: N_8  and  C_9
REMARK    3  A    between atoms: C_9  and  C_10
REMARK    4  A    between atoms: C_10  and  C_13
REMARK    5  A    between atoms: C_17  and  C_18
REMARK                            x       y       z     vdW  Elec       q    Type
REMARK                         _______ _______ _______ _____ _____    ______ ____
ROOT
ATOM      1  C   UNL     1      43.898   4.922  12.468  0.00  0.00    +0.000 C 
ATOM      2  F   UNL     1      42.760   5.184  13.186  0.00  0.00    +0.000 F 
ATOM      3  F   UNL     1      44.455   3.835  13.084  0.00  0.00    +0.000 F 
ENDROOT
BRANCH   1   4
ATOM      4  C   UNL     1      44.848   6.104  12.459  0.00  0.00    +0.000 A 
ATOM      5  C   UNL     1      44.515   7.260  11.743  0.00  0.00    +0.000 A 
ATOM      6  C   UNL     1      45.378   8.350  11.729  0.00  0.00    +0.000 A 
ATOM      7  C   UNL     1      46.580   8.300  12.437  0.00  0.00    +0.000 A 
ATOM      8  C   UNL     1      46.948   7.169  13.189  0.00  0.00    +0.000 A 
ATOM      9  C   UNL     1      46.062   6.070  13.174  0.00  0.00    +0.000 A 
BRANCH   8  10
ATOM     10  C   UNL     1      48.199   7.150  13.980  0.00  0.00    +0.000 A 
ATOM     11  C   UNL     1      49.322   7.921  13.644  0.00  0.00    +0.000 A 
ATOM     12  C   UNL     1      50.487   7.847  14.410  0.00  0.00    +0.000 A 
ATOM     13  C   UNL     1      50.504   7.009  15.508  0.00  0.00    +0.000 A 
ATOM     14  F   UNL     1      51.622   6.936  16.244  0.00  0.00    +0.000 F 
ATOM     15  N   UNL     1      49.459   6.253  15.885  0.00  0.00    +0.000 NA
ATOM     16  C   UNL     1      48.345   6.340  15.114  0.00  0.00    +0.000 A 
ENDBRANCH   8  10
ENDBRANCH   1   4
BRANCH   1  17
ATOM     17  C   UNL     1      43.466   4.520  11.033  0.00  0.00    +0.000 C 
BRANCH  17  22
ATOM     18  C   UNL     1      46.428   2.801   7.390  0.00  0.00    +0.000 A 
ATOM     19  C   UNL     1      45.980   1.654   8.040  0.00  0.00    +0.000 A 
ATOM     20  C   UNL     1      45.126   1.787   9.137  0.00  0.00    +0.000 A 
ATOM     21  C   UNL     1      44.724   3.055   9.559  0.00  0.00    +0.000 A 
ATOM     22  N   UNL     1      43.896   3.148  10.683  0.00  0.00    +0.000 N 
ATOM     23  N   UNL     1      45.173   4.171   8.951  0.00  0.00    +0.000 NA
ATOM     24  C   UNL     1      46.016   4.025   7.894  0.00  0.00    +0.000 A 
ATOM     25  H   UNL     1      43.108   2.508  10.609  0.00  0.00    +0.000 HD
BRANCH  18  27
ATOM     26  N   UNL     1      48.657   2.523   6.463  0.00  0.00    +0.000 N 
ATOM     27  C   UNL     1      47.334   2.773   6.224  0.00  0.00    +0.000 C 
ATOM     28  O   UNL     1      46.916   2.931   5.086  0.00  0.00    +0.000 OA
ATOM     29  H   UNL     1      49.246   2.405   5.647  0.00  0.00    +0.000 HD
ATOM     30  H   UNL     1      48.995   2.150   7.339  0.00  0.00    +0.000 HD
ENDBRANCH  18  27
ENDBRANCH  17  22
ENDBRANCH   1  17
TORSDOF 5
ENDMDL
MODEL 5
REMARK VINA RESULT:    -8.329      3.970      7.327
REMARK INTER + INTRA:         -11.705
REMARK INTER:                 -11.071
REMARK INTRA:                  -0.635
REMARK UNBOUND:                -0.942
REMARK  Name = 
REMARK  5 active torsions:
REMARK  status: ('A' for Active; 'I' for Inactive)
REMARK    1  A    between atoms: C_2  and  C_4
REMARK    2  A    between atoms: N_8  and  C_9
REMARK    3  A    between atoms: C_9  and  C_10
REMARK    4  A    between atoms: C_10  and  C_13
REMARK    5  A    between atoms: C_17  and  C_18
REMARK                            x       y       z     vdW  Elec       q    Type
REMARK                         _______ _______ _______ _____ _____    ______ ____
ROOT
ATOM      1  C   UNL     1      46.048   7.551  12.021  0.00  0.00    +0.000 C 
ATOM      2  F   UNL     1      45.678   7.804  13.317  0.00  0.00    +0.000 F 
ATOM      3  F   UNL     1      45.901   8.750  11.378  0.00  0.00    +0.000 F 
ENDROOT
BRANCH   1   4
ATOM      4  C   UNL     1      45.191   6.472  11.387  0.00  0.00    +0.000 A 
ATOM      5  C   UNL     1      43.818   6.425  11.656  0.00  0.00    +0.000 A 
ATOM      6  C   UNL     1      43.022   5.442  11.080  0.00  0.00    +0.000 A 
ATOM      7  C   UNL     1      43.588   4.497  10.221  0.00  0.00    +0.000 A 
ATOM      8  C   UNL     1      44.959   4.517   9.904  0.00  0.00    +0.000 A 
ATOM      9  C   UNL     1      45.747   5.516  10.514  0.00  0.00    +0.000 A 
BRANCH   8  10
ATOM     10  C   UNL     1      45.537   3.545   8.948  0.00  0.00    +0.000 A 
ATOM     11  C   UNL     1      46.172   3.933   7.759  0.00  0.00    +0.000 A 
ATOM     12  C   UNL     1      46.677   2.975   6.879  0.00  0.00    +0.000 A 
ATOM     13  C   UNL     1      46.547   1.640   7.212  0.00  0.00    +0.000 A 
ATOM     14  F   UNL     1      47.032   0.718   6.368  0.00  0.00    +0.000 F 
ATOM     15  N   UNL     1      45.957   1.206   8.338  0.00  0.00    +0.000 NA
ATOM     16  C   UNL     1      45.468   2.163   9.167  0.00  0.00    +0.000 A 
ENDBRANCH   8  10
ENDBRANCH   1   4
BRANCH   1  17
ATOM     17  C   UNL     1      47.549   7.164  12.027  0.00  0.00    +0.000 C 
BRANCH  17  22
ATOM     18  C   UNL     1      47.806   4.473  16.233  0.00  0.00    +0.000 A 
ATOM     19  C   UNL     1      48.446   5.668  16.549  0.00  0.00    +0.000 A 
ATOM     20  C   UNL     1      48.561   6.655  15.568  0.00  0.00    +0.000 A 
ATOM     21  C   UNL     1      48.026   6.441  14.296  0.00  0.00    +0.000 A 
ATOM     22  N   UNL     1      48.193   7.440  13.331  0.00  0.00    +0.000 N 
ATOM     23  N   UNL     1      47.428   5.278  13.975  0.00  0.00    +0.000 NA
ATOM     24  C   UNL     1      47.337   4.321  14.937  0.00  0.00    +0.000 A 
ATOM     25  H   UNL     1      47.932   8.351  13.701  0.00  0.00    +0.000 HD
BRANCH  18  27
ATOM     26  N   UNL     1      48.748   2.920  17.847  0.00  0.00    +0.000 N 
ATOM     27  C   UNL     1      47.633   3.365  17.194  0.00  0.00    +0.000 C 
ATOM     28  O   UNL     1      46.531   2.886  17.425  0.00  0.00    +0.000 OA
ATOM     29  H   UNL     1      48.599   2.231  18.575  0.00  0.00    +0.000 HD
ATOM     30  H   UNL     1      49.614   3.439  17.868  0.00  0.00    +0.000 HD
ENDBRANCH  18  27
ENDBRANCH  17  22
ENDBRANCH   1  17
TORSDOF 5
ENDMDL
MODEL 6
REMARK VINA RESULT:    -8.106      4.856      7.973
REMARK INTER + INTRA:         -11.418
REMARK INTER:                 -10.711
REMARK INTRA:                  -0.707
REMARK UNBOUND:                -0.942
REMARK  Name = 
REMARK  5 active torsions:
REMARK  status: ('A' for Active; 'I' for Inactive)
REMARK    1  A    between atoms: C_2  and  C_4
REMARK    2  A    between atoms: N_8  and  C_9
REMARK    3  A    between atoms: C_9  and  C_10
REMARK    4  A    between atoms: C_10  and  C_13
REMARK    5  A    between atoms: C_17  and  C_18
REMARK                            x       y       z     vdW  Elec       q    Type
REMARK                         _______ _______ _______ _____ _____    ______ ____
ROOT
ATOM      1  C   UNL     1      45.391   5.584  12.720  0.00  0.00    +0.000 C 
ATOM      2  F   UNL     1      44.422   5.919  13.630  0.00  0.00    +0.000 F 
ATOM      3  F   UNL     1      45.623   6.736  12.019  0.00  0.00    +0.000 F 
ENDROOT
BRANCH   1   4
ATOM      4  C   UNL     1      44.947   4.457  11.807  0.00  0.00    +0.000 A 
ATOM      5  C   UNL     1      43.846   3.667  12.161  0.00  0.00    +0.000 A 
ATOM      6  C   UNL     1      43.429   2.632  11.331  0.00  0.00    +0.000 A 
ATOM      7  C   UNL     1      44.101   2.380  10.134  0.00  0.00    +0.000 A 
ATOM      8  C   UNL     1      45.199   3.161   9.726  0.00  0.00    +0.000 A 
ATOM      9  C   UNL     1      45.612   4.195  10.593  0.00  0.00    +0.000 A 
BRANCH   8  10
ATOM     10  C   UNL     1      45.869   2.919   8.427  0.00  0.00    +0.000 A 
ATOM     11  C   UNL     1      46.353   1.659   8.046  0.00  0.00    +0.000 A 
ATOM     12  C   UNL     1      47.001   1.489   6.821  0.00  0.00    +0.000 A 
ATOM     13  C   UNL     1      47.143   2.586   5.992  0.00  0.00    +0.000 A 
ATOM     14  F   UNL     1      47.765   2.425   4.815  0.00  0.00    +0.000 F 
ATOM     15  N   UNL     1      46.694   3.815   6.298  0.00  0.00    +0.000 NA
ATOM     16  C   UNL     1      46.078   3.948   7.500  0.00  0.00    +0.000 A 
ENDBRANCH   8  10
ENDBRANCH   1   4
BRANCH   1  17
ATOM     17  C   UNL     1      46.671   5.210  13.512  0.00  0.00    +0.000 C 
BRANCH  17  22
ATOM     18  C   UNL     1      48.960   4.564  17.910  0.00  0.00    +0.000 A 
ATOM     19  C   UNL     1      47.952   3.606  17.903  0.00  0.00    +0.000 A 
ATOM     20  C   UNL     1      47.101   3.525  16.798  0.00  0.00    +0.000 A 
ATOM     21  C   UNL     1      47.278   4.390  15.716  0.00  0.00    +0.000 A 
ATOM     22  N   UNL     1      46.383   4.301  14.644  0.00  0.00    +0.000 N 
ATOM     23  N   UNL     1      48.236   5.337  15.727  0.00  0.00    +0.000 NA
ATOM     24  C   UNL     1      49.046   5.412  16.817  0.00  0.00    +0.000 A 
ATOM     25  H   UNL     1      46.274   3.336  14.341  0.00  0.00    +0.000 HD
BRANCH  18  27
ATOM     26  N   UNL     1      51.060   3.997  18.993  0.00  0.00    +0.000 N 
ATOM     27  C   UNL     1      49.911   4.736  19.027  0.00  0.00    +0.000 C 
ATOM     28  O   UNL     1      49.699   5.534  19.930  0.00  0.00    +0.000 OA
ATOM     29  H   UNL     1      51.746   4.200  19.710  0.00  0.00    +0.000 HD
ATOM     30  H   UNL     1      51.382   3.522  18.162  0.00  0.00    +0.000 HD
ENDBRANCH  18  27
ENDBRANCH  17  22
ENDBRANCH   1  17
TORSDOF 5
ENDMDL
MODEL 7
REMARK VINA RESULT:    -7.710      3.599      7.173
REMARK INTER + INTRA:         -10.906
REMARK INTER:                 -10.056
REMARK INTRA:                  -0.850
REMARK UNBOUND:                -0.942
REMARK  Name = 
REMARK  5 active torsions:
REMARK  status: ('A' for Active; 'I' for Inactive)
REMARK    1  A    between atoms: C_2  and  C_4
REMARK    2  A    between atoms: N_8  and  C_9
REMARK    3  A    between atoms: C_9  and  C_10
REMARK    4  A    between atoms: C_10  and  C_13
REMARK    5  A    between atoms: C_17  and  C_18
REMARK                            x       y       z     vdW  Elec       q    Type
REMARK                         _______ _______ _______ _____ _____    ______ ____
ROOT
ATOM      1  C   UNL     1      44.033   6.128  11.766  0.00  0.00    +0.000 C 
ATOM      2  F   UNL     1      44.065   6.120  13.137  0.00  0.00    +0.000 F 
ATOM      3  F   UNL     1      42.850   6.738  11.450  0.00  0.00    +0.000 F 
ENDROOT
BRANCH   1   4
ATOM      4  C   UNL     1      44.107   4.727  11.189  0.00  0.00    +0.000 A 
ATOM      5  C   UNL     1      43.356   3.696  11.765  0.00  0.00    +0.000 A 
ATOM      6  C   UNL     1      43.415   2.408  11.244  0.00  0.00    +0.000 A 
ATOM      7  C   UNL     1      44.220   2.138  10.135  0.00  0.00    +0.000 A 
ATOM      8  C   UNL     1      44.976   3.147   9.509  0.00  0.00    +0.000 A 
ATOM      9  C   UNL     1      44.911   4.441  10.067  0.00  0.00    +0.000 A 
BRANCH   8  10
ATOM     10  C   UNL     1      45.782   2.859   8.300  0.00  0.00    +0.000 A 
ATOM     11  C   UNL     1      46.375   1.610   8.063  0.00  0.00    +0.000 A 
ATOM     12  C   UNL     1      47.147   1.398   6.919  0.00  0.00    +0.000 A 
ATOM     13  C   UNL     1      47.303   2.441   6.026  0.00  0.00    +0.000 A 
ATOM     14  F   UNL     1      48.045   2.240   4.927  0.00  0.00    +0.000 F 
ATOM     15  N   UNL     1      46.755   3.656   6.194  0.00  0.00    +0.000 NA
ATOM     16  C   UNL     1      46.018   3.832   7.321  0.00  0.00    +0.000 A 
ENDBRANCH   8  10
ENDBRANCH   1   4
BRANCH   1  17
ATOM     17  C   UNL     1      45.205   7.016  11.273  0.00  0.00    +0.000 C 
BRANCH  17  22
ATOM     18  C   UNL     1      49.202   7.618  14.217  0.00  0.00    +0.000 A 
ATOM     19  C   UNL     1      48.364   8.677  14.552  0.00  0.00    +0.000 A 
ATOM     20  C   UNL     1      47.142   8.812  13.889  0.00  0.00    +0.000 A 
ATOM     21  C   UNL     1      46.771   7.883  12.915  0.00  0.00    +0.000 A 
ATOM     22  N   UNL     1      45.555   8.072  12.249  0.00  0.00    +0.000 N 
ATOM     23  N   UNL     1      47.587   6.869  12.567  0.00  0.00    +0.000 NA
ATOM     24  C   UNL     1      48.780   6.761  13.212  0.00  0.00    +0.000 A 
ATOM     25  H   UNL     1      44.802   8.247  12.910  0.00  0.00    +0.000 HD
BRANCH  18  27
ATOM     26  N   UNL     1      51.621   7.840  14.193  0.00  0.00    +0.000 N 
ATOM     27  C   UNL     1      50.514   7.385  14.853  0.00  0.00    +0.000 C 
ATOM     28  O   UNL     1      50.608   6.841  15.944  0.00  0.00    +0.000 OA
ATOM     29  H   UNL     1      52.502   7.766  14.688  0.00  0.00    +0.000 HD
ATOM     30  H   UNL     1      51.571   8.498  13.428  0.00  0.00    +0.000 HD
ENDBRANCH  18  27
ENDBRANCH  17  22
ENDBRANCH   1  17
TORSDOF 5
ENDMDL
MODEL 8
REMARK VINA RESULT:    -7.632      3.907      7.664
REMARK INTER + INTRA:         -10.805
REMARK INTER:                  -9.730
REMARK INTRA:                  -1.076
REMARK UNBOUND:                -0.942
REMARK  Name = 
REMARK  5 active torsions:
REMARK  status: ('A' for Active; 'I' for Inactive)
REMARK    1  A    between atoms: C_2  and  C_4
REMARK    2  A    between atoms: N_8  and  C_9
REMARK    3  A    between atoms: C_9  and  C_10
REMARK    4  A    between atoms: C_10  and  C_13
REMARK    5  A    between atoms: C_17  and  C_18
REMARK                            x       y       z     vdW  Elec       q    Type
REMARK                         _______ _______ _______ _____ _____    ______ ____
ROOT
ATOM      1  C   UNL     1      48.451   8.553  12.304  0.00  0.00    +0.000 C 
ATOM      2  F   UNL     1      48.482   9.405  13.378  0.00  0.00    +0.000 F 
ATOM      3  F   UNL     1      49.012   9.264  11.279  0.00  0.00    +0.000 F 
ENDROOT
BRANCH   1   4
ATOM      4  C   UNL     1      47.037   8.115  11.969  0.00  0.00    +0.000 A 
ATOM      5  C   UNL     1      45.968   8.994  12.179  0.00  0.00    +0.000 A 
ATOM      6  C   UNL     1      44.669   8.604  11.875  0.00  0.00    +0.000 A 
ATOM      7  C   UNL     1      44.424   7.334  11.347  0.00  0.00    +0.000 A 
ATOM      8  C   UNL     1      45.469   6.425  11.098  0.00  0.00    +0.000 A 
ATOM      9  C   UNL     1      46.776   6.839  11.431  0.00  0.00    +0.000 A 
BRANCH   8  10
ATOM     10  C   UNL     1      45.202   5.103  10.487  0.00  0.00    +0.000 A 
ATOM     11  C   UNL     1      45.531   4.800   9.158  0.00  0.00    +0.000 A 
ATOM     12  C   UNL     1      45.235   3.545   8.622  0.00  0.00    +0.000 A 
ATOM     13  C   UNL     1      44.621   2.610   9.433  0.00  0.00    +0.000 A 
ATOM     14  F   UNL     1      44.335   1.405   8.920  0.00  0.00    +0.000 F 
ATOM     15  N   UNL     1      44.288   2.838  10.715  0.00  0.00    +0.000 NA
ATOM     16  C   UNL     1      44.581   4.070  11.201  0.00  0.00    +0.000 A 
ENDBRANCH   8  10
ENDBRANCH   1   4
BRANCH   1  17
ATOM     17  C   UNL     1      49.363   7.343  12.636  0.00  0.00    +0.000 C 
BRANCH  17  22
ATOM     18  C   UNL     1      48.090   4.827  16.765  0.00  0.00    +0.000 A 
ATOM     19  C   UNL     1      49.065   5.722  17.194  0.00  0.00    +0.000 A 
ATOM     20  C   UNL     1      49.652   6.583  16.264  0.00  0.00    +0.000 A 
ATOM     21  C   UNL     1      49.248   6.546  14.928  0.00  0.00    +0.000 A 
ATOM     22  N   UNL     1      49.885   7.400  14.020  0.00  0.00    +0.000 N 
ATOM     23  N   UNL     1      48.323   5.665  14.500  0.00  0.00    +0.000 NA
ATOM     24  C   UNL     1      47.773   4.824  15.415  0.00  0.00    +0.000 A 
ATOM     25  H   UNL     1      49.918   8.352  14.378  0.00  0.00    +0.000 HD
BRANCH  18  27
ATOM     26  N   UNL     1      47.899   3.749  18.934  0.00  0.00    +0.000 N 
ATOM     27  C   UNL     1      47.409   3.873  17.664  0.00  0.00    +0.000 C 
ATOM     28  O   UNL     1      46.424   3.246  17.302  0.00  0.00    +0.000 OA
ATOM     29  H   UNL     1      47.362   3.169  19.568  0.00  0.00    +0.000 HD
ATOM     30  H   UNL     1      48.541   4.413  19.341  0.00  0.00    +0.000 HD
ENDBRANCH  18  27
ENDBRANCH  17  22
ENDBRANCH   1  17
TORSDOF 5
ENDMDL
MODEL 9
REMARK VINA RESULT:    -7.357      2.324      3.276
REMARK INTER + INTRA:         -10.450
REMARK INTER:                  -9.582
REMARK INTRA:                  -0.868
REMARK UNBOUND:                -0.942
REMARK  Name = 
REMARK  5 active torsions:
REMARK  status: ('A' for Active; 'I' for Inactive)
REMARK    1  A    between atoms: C_2  and  C_4
REMARK    2  A    between atoms: N_8  and  C_9
REMARK    3  A    between atoms: C_9  and  C_10
REMARK    4  A    between atoms: C_10  and  C_13
REMARK    5  A    between atoms: C_17  and  C_18
REMARK                            x       y       z     vdW  Elec       q    Type
REMARK                         _______ _______ _______ _____ _____    ______ ____
ROOT
ATOM      1  C   UNL     1      45.595   6.340  12.232  0.00  0.00    +0.000 C 
ATOM      2  F   UNL     1      44.741   6.450  13.300  0.00  0.00    +0.000 F 
ATOM      3  F   UNL     1      46.326   5.212  12.487  0.00  0.00    +0.000 F 
ENDROOT
BRANCH   1   4
ATOM      4  C   UNL     1      46.487   7.559  12.091  0.00  0.00    +0.000 A 
ATOM      5  C   UNL     1      45.924   8.841  12.125  0.00  0.00    +0.000 A 
ATOM      6  C   UNL     1      46.731   9.966  11.998  0.00  0.00    +0.000 A 
ATOM      7  C   UNL     1      48.112   9.823  11.844  0.00  0.00    +0.000 A 
ATOM      8  C   UNL     1      48.725   8.556  11.826  0.00  0.00    +0.000 A 
ATOM      9  C   UNL     1      47.882   7.431  11.941  0.00  0.00    +0.000 A 
BRANCH   8  10
ATOM     10  C   UNL     1      50.196   8.420  11.717  0.00  0.00    +0.000 A 
ATOM     11  C   UNL     1      50.815   7.644  10.727  0.00  0.00    +0.000 A 
ATOM     12  C   UNL     1      52.206   7.528  10.684  0.00  0.00    +0.000 A 
ATOM     13  C   UNL     1      52.954   8.202  11.630  0.00  0.00    +0.000 A 
ATOM     14  F   UNL     1      54.290   8.092  11.590  0.00  0.00    +0.000 F 
ATOM     15  N   UNL     1      52.420   8.967  12.597  0.00  0.00    +0.000 NA
ATOM     16  C   UNL     1      51.065   9.050  12.617  0.00  0.00    +0.000 A 
ENDBRANCH   8  10
ENDBRANCH   1   4
BRANCH   1  17
ATOM     17  C   UNL     1      44.735   6.107  10.963  0.00  0.00    +0.000 C 
BRANCH  17  22
ATOM     18  C   UNL     1      46.494   3.187   7.306  0.00  0.00    +0.000 A 
ATOM     19  C   UNL     1      45.656   2.353   8.039  0.00  0.00    +0.000 A 
ATOM     20  C   UNL     1      45.002   2.867   9.162  0.00  0.00    +0.000 A 
ATOM     21  C   UNL     1      45.184   4.202   9.525  0.00  0.00    +0.000 A 
ATOM     22  N   UNL     1      44.539   4.669  10.676  0.00  0.00    +0.000 N 
ATOM     23  N   UNL     1      46.013   5.009   8.835  0.00  0.00    +0.000 NA
ATOM     24  C   UNL     1      46.654   4.489   7.754  0.00  0.00    +0.000 A 
ATOM     25  H   UNL     1      43.555   4.410  10.672  0.00  0.00    +0.000 HD
BRANCH  18  27
ATOM     26  N   UNL     1      48.432   2.117   6.304  0.00  0.00    +0.000 N 
ATOM     27  C   UNL     1      47.234   2.746   6.106  0.00  0.00    +0.000 C 
ATOM     28  O   UNL     1      46.779   2.901   4.982  0.00  0.00    +0.000 OA
ATOM     29  H   UNL     1      48.877   1.730   5.480  0.00  0.00    +0.000 HD
ATOM     30  H   UNL     1      48.720   1.756   7.202  0.00  0.00    +0.000 HD
ENDBRANCH  18  27
ENDBRANCH  17  22
ENDBRANCH   1  17
TORSDOF 5
ENDMDL
