MODEL 1
REMARK VINA RESULT:    -9.294      0.000      0.000
REMARK INTER + INTRA:         -12.406
REMARK INTER:                 -11.467
REMARK INTRA:                  -0.939
REMARK UNBOUND:                -0.939
REMARK  Name = 
REMARK  4 active torsions:
REMARK  status: ('A' for Active; 'I' for Inactive)
REMARK    1  A    between atoms: C_2  and  C_4
REMARK    2  A    between atoms: N_8  and  C_9
REMARK    3  A    between atoms: C_9  and  C_10
REMARK    4  A    between atoms: C_14  and  C_15
REMARK                            x       y       z     vdW  Elec       q    Type
REMARK                         _______ _______ _______ _____ _____    ______ ____
ROOT
ATOM      1  C   UNL     1      44.073   4.721  11.494  0.00  0.00    +0.000 C 
ATOM      2  C   UNL     1      42.751   4.815  12.246  0.00  0.00    +0.000 C 
ATOM      3  C   UNL     1      43.020   5.738  11.103  0.00  0.00    +0.000 C 
ENDROOT
BRANCH   1   8
ATOM      4  C   UNL     1      46.580   2.722   7.380  0.00  0.00    +0.000 A 
ATOM      5  C   UNL     1      46.403   4.044   7.763  0.00  0.00    +0.000 A 
ATOM      6  C   UNL     1      45.628   4.329   8.890  0.00  0.00    +0.000 A 
ATOM      7  C   UNL     1      45.076   3.289   9.630  0.00  0.00    +0.000 A 
ATOM      8  N   UNL     1      44.253   3.481  10.735  0.00  0.00    +0.000 N 
ATOM      9  N   UNL     1      45.256   1.999   9.273  0.00  0.00    +0.000 NA
ATOM     10  C   UNL     1      45.980   1.740   8.155  0.00  0.00    +0.000 A 
ATOM     11  H   UNL     1      44.101   2.587  11.190  0.00  0.00    +0.000 HD
BRANCH   4  13
ATOM     12  N   UNL     1      47.164   3.094   5.052  0.00  0.00    +0.000 N 
ATOM     13  C   UNL     1      47.323   2.321   6.168  0.00  0.00    +0.000 C 
ATOM     14  O   UNL     1      48.065   1.347   6.163  0.00  0.00    +0.000 OA
ATOM     15  H   UNL     1      47.737   2.856   4.253  0.00  0.00    +0.000 HD
ATOM     16  H   UNL     1      46.759   4.018   5.082  0.00  0.00    +0.000 HD
ENDBRANCH   4  13
ENDBRANCH   1   8
BRANCH   1  17
ATOM     17  C   UNL     1      45.347   5.200  12.184  0.00  0.00    +0.000 A 
ATOM     18  C   UNL     1      45.928   6.441  11.879  0.00  0.00    +0.000 A 
ATOM     19  C   UNL     1      47.010   6.934  12.605  0.00  0.00    +0.000 A 
ATOM     20  C   UNL     1      47.510   6.212  13.688  0.00  0.00    +0.000 A 
ATOM     21  C   UNL     1      46.956   4.974  14.049  0.00  0.00    +0.000 A 
ATOM     22  C   UNL     1      45.921   4.467  13.243  0.00  0.00    +0.000 A 
BRANCH  21  23
ATOM     23  C   UNL     1      47.353   4.270  15.286  0.00  0.00    +0.000 A 
ATOM     24  C   UNL     1      47.142   4.836  16.547  0.00  0.00    +0.000 A 
ATOM     25  C   UNL     1      47.467   4.111  17.691  0.00  0.00    +0.000 A 
ATOM     26  C   UNL     1      48.000   2.839  17.553  0.00  0.00    +0.000 A 
ATOM     27  C   UNL     1      48.181   2.342  16.273  0.00  0.00    +0.000 A 
ATOM     28  N   UNL     1      47.866   3.020  15.145  0.00  0.00    +0.000 NA
ENDBRANCH  21  23
ENDBRANCH   1  17
TORSDOF 4
ENDMDL
MODEL 2
REMARK VINA RESULT:    -8.856      1.986      3.934
REMARK INTER + INTRA:         -11.866
REMARK INTER:                 -10.755
REMARK INTRA:                  -1.110
REMARK UNBOUND:                -0.939
REMARK  Name = 
REMARK  4 active torsions:
REMARK  status: ('A' for Active; 'I' for Inactive)
REMARK    1  A    between atoms: C_2  and  C_4
REMARK    2  A    between atoms: N_8  and  C_9
REMARK    3  A    between atoms: C_9  and  C_10
REMARK    4  A    between atoms: C_14  and  C_15
REMARK                            x       y       z     vdW  Elec       q    Type
REMARK                         _______ _______ _______ _____ _____    ______ ____
ROOT
ATOM      1  C   UNL     1      43.914   4.984  11.537  0.00  0.00    +0.000 C 
ATOM      2  C   UNL     1      42.529   5.189  12.138  0.00  0.00    +0.000 C 
ATOM      3  C   UNL     1      42.988   6.065  11.020  0.00  0.00    +0.000 C 
ENDROOT
BRANCH   1   8
ATOM      4  C   UNL     1      46.472   2.808   7.546  0.00  0.00    +0.000 A 
ATOM      5  C   UNL     1      46.317   4.145   7.886  0.00  0.00    +0.000 A 
ATOM      6  C   UNL     1      45.522   4.480   8.985  0.00  0.00    +0.000 A 
ATOM      7  C   UNL     1      44.928   3.476   9.741  0.00  0.00    +0.000 A 
ATOM      8  N   UNL     1      44.083   3.718  10.819  0.00  0.00    +0.000 N 
ATOM      9  N   UNL     1      45.087   2.172   9.426  0.00  0.00    +0.000 NA
ATOM     10  C   UNL     1      45.831   1.864   8.333  0.00  0.00    +0.000 A 
ATOM     11  H   UNL     1      43.900   2.842  11.296  0.00  0.00    +0.000 HD
BRANCH   4  13
ATOM     12  N   UNL     1      47.122   3.100   5.224  0.00  0.00    +0.000 N 
ATOM     13  C   UNL     1      47.234   2.355   6.364  0.00  0.00    +0.000 C 
ATOM     14  O   UNL     1      47.952   1.363   6.405  0.00  0.00    +0.000 OA
ATOM     15  H   UNL     1      47.708   2.825   4.446  0.00  0.00    +0.000 HD
ATOM     16  H   UNL     1      46.740   4.034   5.218  0.00  0.00    +0.000 HD
ENDBRANCH   4  13
ENDBRANCH   1   8
BRANCH   1  17
ATOM     17  C   UNL     1      45.138   5.384  12.357  0.00  0.00    +0.000 A 
ATOM     18  C   UNL     1      45.746   4.494  13.256  0.00  0.00    +0.000 A 
ATOM     19  C   UNL     1      46.940   4.814  13.899  0.00  0.00    +0.000 A 
ATOM     20  C   UNL     1      47.580   6.022  13.620  0.00  0.00    +0.000 A 
ATOM     21  C   UNL     1      47.026   6.941  12.716  0.00  0.00    +0.000 A 
ATOM     22  C   UNL     1      45.778   6.624  12.151  0.00  0.00    +0.000 A 
BRANCH  21  23
ATOM     23  C   UNL     1      47.760   8.146  12.278  0.00  0.00    +0.000 A 
ATOM     24  C   UNL     1      49.108   8.085  11.910  0.00  0.00    +0.000 A 
ATOM     25  C   UNL     1      49.746   9.230  11.437  0.00  0.00    +0.000 A 
ATOM     26  C   UNL     1      49.027  10.412  11.345  0.00  0.00    +0.000 A 
ATOM     27  C   UNL     1      47.696  10.398  11.726  0.00  0.00    +0.000 A 
ATOM     28  N   UNL     1      47.049   9.299  12.181  0.00  0.00    +0.000 NA
ENDBRANCH  21  23
ENDBRANCH   1  17
TORSDOF 4
ENDMDL
MODEL 3
REMARK VINA RESULT:    -6.948      3.547      7.132
REMARK INTER + INTRA:          -9.512
REMARK INTER:                  -8.489
REMARK INTRA:                  -1.023
REMARK UNBOUND:                -0.939
REMARK  Name = 
REMARK  4 active torsions:
REMARK  status: ('A' for Active; 'I' for Inactive)
REMARK    1  A    between atoms: C_2  and  C_4
REMARK    2  A    between atoms: N_8  and  C_9
REMARK    3  A    between atoms: C_9  and  C_10
REMARK    4  A    between atoms: C_14  and  C_15
REMARK                            x       y       z     vdW  Elec       q    Type
REMARK                         _______ _______ _______ _____ _____    ______ ____
ROOT
ATOM      1  C   UNL     1      46.115   5.089  13.389  0.00  0.00    +0.000 C 
ATOM      2  C   UNL     1      46.028   4.240  14.651  0.00  0.00    +0.000 C 
ATOM      3  C   UNL     1      47.227   4.133  13.770  0.00  0.00    +0.000 C 
ENDROOT
BRANCH   1   8
ATOM      4  C   UNL     1      48.578   9.375  11.724  0.00  0.00    +0.000 A 
ATOM      5  C   UNL     1      48.831   8.037  11.455  0.00  0.00    +0.000 A 
ATOM      6  C   UNL     1      48.055   7.058  12.081  0.00  0.00    +0.000 A 
ATOM      7  C   UNL     1      47.022   7.434  12.932  0.00  0.00    +0.000 A 
ATOM      8  N   UNL     1      46.232   6.529  13.633  0.00  0.00    +0.000 N 
ATOM      9  N   UNL     1      46.759   8.734  13.187  0.00  0.00    +0.000 NA
ATOM     10  C   UNL     1      47.546   9.673  12.601  0.00  0.00    +0.000 A 
ATOM     11  H   UNL     1      45.461   7.030  14.062  0.00  0.00    +0.000 HD
BRANCH   4  13
ATOM     12  N   UNL     1      48.709  11.503  10.561  0.00  0.00    +0.000 N 
ATOM     13  C   UNL     1      49.384  10.481  11.168  0.00  0.00    +0.000 C 
ATOM     14  O   UNL     1      50.605  10.496  11.260  0.00  0.00    +0.000 OA
ATOM     15  H   UNL     1      49.265  12.291  10.253  0.00  0.00    +0.000 HD
ATOM     16  H   UNL     1      47.715  11.643  10.672  0.00  0.00    +0.000 HD
ENDBRANCH   4  13
ENDBRANCH   1   8
BRANCH   1  17
ATOM     17  C   UNL     1      45.213   4.746  12.208  0.00  0.00    +0.000 A 
ATOM     18  C   UNL     1      43.942   5.321  12.060  0.00  0.00    +0.000 A 
ATOM     19  C   UNL     1      43.178   5.111  10.913  0.00  0.00    +0.000 A 
ATOM     20  C   UNL     1      43.692   4.352   9.863  0.00  0.00    +0.000 A 
ATOM     21  C   UNL     1      44.966   3.769   9.948  0.00  0.00    +0.000 A 
ATOM     22  C   UNL     1      45.673   3.929  11.154  0.00  0.00    +0.000 A 
BRANCH  21  23
ATOM     23  C   UNL     1      45.601   3.103   8.793  0.00  0.00    +0.000 A 
ATOM     24  C   UNL     1      46.035   3.831   7.680  0.00  0.00    +0.000 A 
ATOM     25  C   UNL     1      46.690   3.175   6.640  0.00  0.00    +0.000 A 
ATOM     26  C   UNL     1      46.896   1.807   6.731  0.00  0.00    +0.000 A 
ATOM     27  C   UNL     1      46.441   1.152   7.862  0.00  0.00    +0.000 A 
ATOM     28  N   UNL     1      45.808   1.764   8.890  0.00  0.00    +0.000 NA
ENDBRANCH  21  23
ENDBRANCH   1  17
TORSDOF 4
ENDMDL
MODEL 4
REMARK VINA RESULT:    -6.893      3.130      7.599
REMARK INTER + INTRA:          -9.444
REMARK INTER:                  -9.617
REMARK INTRA:                   0.173
REMARK UNBOUND:                -0.939
REMARK  Name = 
REMARK  4 active torsions:
REMARK  status: ('A' for Active; 'I' for Inactive)
REMARK    1  A    between atoms: C_2  and  C_4
REMARK    2  A    between atoms: N_8  and  C_9
REMARK    3  A    between atoms: C_9  and  C_10
REMARK    4  A    between atoms: C_14  and  C_15
REMARK                            x       y       z     vdW  Elec       q    Type
REMARK                         _______ _______ _______ _____ _____    ______ ____
ROOT
ATOM      1  C   UNL     1      48.585   7.899  12.522  0.00  0.00    +0.000 C 
ATOM      2  C   UNL     1      49.681   7.393  11.593  0.00  0.00    +0.000 C 
ATOM      3  C   UNL     1      49.411   8.858  11.690  0.00  0.00    +0.000 C 
ENDROOT
BRANCH   1   8
ATOM      4  C   UNL     1      47.795   4.562  16.453  0.00  0.00    +0.000 A 
ATOM      5  C   UNL     1      47.208   4.619  15.196  0.00  0.00    +0.000 A 
ATOM      6  C   UNL     1      47.549   5.662  14.331  0.00  0.00    +0.000 A 
ATOM      7  C   UNL     1      48.494   6.604  14.723  0.00  0.00    +0.000 A 
ATOM      8  N   UNL     1      48.858   7.700  13.948  0.00  0.00    +0.000 N 
ATOM      9  N   UNL     1      49.082   6.547  15.938  0.00  0.00    +0.000 NA
ATOM     10  C   UNL     1      48.711   5.550  16.781  0.00  0.00    +0.000 A 
ATOM     11  H   UNL     1      49.661   8.151  14.374  0.00  0.00    +0.000 HD
BRANCH   4  13
ATOM     12  N   UNL     1      48.331   3.360  18.494  0.00  0.00    +0.000 N 
ATOM     13  C   UNL     1      47.451   3.541  17.464  0.00  0.00    +0.000 C 
ATOM     14  O   UNL     1      46.413   2.895  17.396  0.00  0.00    +0.000 OA
ATOM     15  H   UNL     1      48.048   2.715  19.220  0.00  0.00    +0.000 HD
ATOM     16  H   UNL     1      49.062   4.023  18.711  0.00  0.00    +0.000 HD
ENDBRANCH   4  13
ENDBRANCH   1   8
BRANCH   1  17
ATOM     17  C   UNL     1      47.128   7.653  12.144  0.00  0.00    +0.000 A 
ATOM     18  C   UNL     1      46.167   8.674  12.210  0.00  0.00    +0.000 A 
ATOM     19  C   UNL     1      44.870   8.483  11.735  0.00  0.00    +0.000 A 
ATOM     20  C   UNL     1      44.518   7.273  11.139  0.00  0.00    +0.000 A 
ATOM     21  C   UNL     1      45.444   6.224  11.029  0.00  0.00    +0.000 A 
ATOM     22  C   UNL     1      46.716   6.420  11.595  0.00  0.00    +0.000 A 
BRANCH  21  23
ATOM     23  C   UNL     1      45.150   4.999  10.258  0.00  0.00    +0.000 A 
ATOM     24  C   UNL     1      45.645   4.816   8.963  0.00  0.00    +0.000 A 
ATOM     25  C   UNL     1      45.404   3.618   8.294  0.00  0.00    +0.000 A 
ATOM     26  C   UNL     1      44.669   2.629   8.931  0.00  0.00    +0.000 A 
ATOM     27  C   UNL     1      44.212   2.879  10.213  0.00  0.00    +0.000 A 
ATOM     28  N   UNL     1      44.438   4.029  10.889  0.00  0.00    +0.000 NA
ENDBRANCH  21  23
ENDBRANCH   1  17
TORSDOF 4
ENDMDL
MODEL 5
REMARK VINA RESULT:    -6.755      3.301      7.258
REMARK INTER + INTRA:          -9.273
REMARK INTER:                  -8.487
REMARK INTRA:                  -0.787
REMARK UNBOUND:                -0.939
REMARK  Name = 
REMARK  4 active torsions:
REMARK  status: ('A' for Active; 'I' for Inactive)
REMARK    1  A    between atoms: C_2  and  C_4
REMARK    2  A    between atoms: N_8  and  C_9
REMARK    3  A    between atoms: C_9  and  C_10
REMARK    4  A    between atoms: C_14  and  C_15
REMARK                            x       y       z     vdW  Elec       q    Type
REMARK                         _______ _______ _______ _____ _____    ______ ____
ROOT
ATOM      1  C   UNL     1      44.066   5.518  11.535  0.00  0.00    +0.000 C 
ATOM      2  C   UNL     1      42.693   6.168  11.418  0.00  0.00    +0.000 C 
ATOM      3  C   UNL     1      43.174   5.687  12.747  0.00  0.00    +0.000 C 
ENDROOT
BRANCH   1   8
ATOM      4  C   UNL     1      48.678   7.011  13.462  0.00  0.00    +0.000 A 
ATOM      5  C   UNL     1      47.666   6.262  14.045  0.00  0.00    +0.000 A 
ATOM      6  C   UNL     1      46.483   6.045  13.334  0.00  0.00    +0.000 A 
ATOM      7  C   UNL     1      46.348   6.549  12.045  0.00  0.00    +0.000 A 
ATOM      8  N   UNL     1      45.190   6.424  11.285  0.00  0.00    +0.000 N 
ATOM      9  N   UNL     1      47.335   7.266  11.464  0.00  0.00    +0.000 NA
ATOM     10  C   UNL     1      48.463   7.500  12.182  0.00  0.00    +0.000 A 
ATOM     11  H   UNL     1      45.384   6.735  10.339  0.00  0.00    +0.000 HD
BRANCH   4  13
ATOM     12  N   UNL     1      50.987   7.760  13.380  0.00  0.00    +0.000 N 
ATOM     13  C   UNL     1      49.937   7.353  14.155  0.00  0.00    +0.000 C 
ATOM     14  O   UNL     1      50.035   7.294  15.374  0.00  0.00    +0.000 OA
ATOM     15  H   UNL     1      51.818   8.066  13.870  0.00  0.00    +0.000 HD
ATOM     16  H   UNL     1      50.877   8.045  12.417  0.00  0.00    +0.000 HD
ENDBRANCH   4  13
ENDBRANCH   1   8
BRANCH   1  17
ATOM     17  C   UNL     1      44.271   4.123  10.954  0.00  0.00    +0.000 A 
ATOM     18  C   UNL     1      43.479   3.035  11.351  0.00  0.00    +0.000 A 
ATOM     19  C   UNL     1      43.577   1.796  10.721  0.00  0.00    +0.000 A 
ATOM     20  C   UNL     1      44.444   1.629   9.642  0.00  0.00    +0.000 A 
ATOM     21  C   UNL     1      45.247   2.688   9.190  0.00  0.00    +0.000 A 
ATOM     22  C   UNL     1      45.186   3.899   9.903  0.00  0.00    +0.000 A 
BRANCH  21  23
ATOM     23  C   UNL     1      46.047   2.590   7.953  0.00  0.00    +0.000 A 
ATOM     24  C   UNL     1      46.097   3.640   7.030  0.00  0.00    +0.000 A 
ATOM     25  C   UNL     1      46.917   3.535   5.909  0.00  0.00    +0.000 A 
ATOM     26  C   UNL     1      47.668   2.383   5.730  0.00  0.00    +0.000 A 
ATOM     27  C   UNL     1      47.570   1.385   6.684  0.00  0.00    +0.000 A 
ATOM     28  N   UNL     1      46.787   1.463   7.786  0.00  0.00    +0.000 NA
ENDBRANCH  21  23
ENDBRANCH   1  17
TORSDOF 4
ENDMDL
MODEL 6
REMARK VINA RESULT:    -6.622      4.100      8.567
REMARK INTER + INTRA:          -9.110
REMARK INTER:                  -8.188
REMARK INTRA:                  -0.922
REMARK UNBOUND:                -0.939
REMARK  Name = 
REMARK  4 active torsions:
REMARK  status: ('A' for Active; 'I' for Inactive)
REMARK    1  A    between atoms: C_2  and  C_4
REMARK    2  A    between atoms: N_8  and  C_9
REMARK    3  A    between atoms: C_9  and  C_10
REMARK    4  A    between atoms: C_14  and  C_15
REMARK                            x       y       z     vdW  Elec       q    Type
REMARK                         _______ _______ _______ _____ _____    ______ ____
ROOT
ATOM      1  C   UNL     1      49.013   7.805  12.564  0.00  0.00    +0.000 C 
ATOM      2  C   UNL     1      49.963   7.870  11.374  0.00  0.00    +0.000 C 
ATOM      3  C   UNL     1      49.690   9.102  12.172  0.00  0.00    +0.000 C 
ENDROOT
BRANCH   1   8
ATOM      4  C   UNL     1      48.874   7.460  17.767  0.00  0.00    +0.000 A 
ATOM      5  C   UNL     1      48.493   8.499  16.929  0.00  0.00    +0.000 A 
ATOM      6  C   UNL     1      48.689   8.370  15.551  0.00  0.00    +0.000 A 
ATOM      7  C   UNL     1      49.227   7.196  15.036  0.00  0.00    +0.000 A 
ATOM      8  N   UNL     1      49.501   7.000  13.687  0.00  0.00    +0.000 N 
ATOM      9  N   UNL     1      49.586   6.174  15.843  0.00  0.00    +0.000 NA
ATOM     10  C   UNL     1      49.425   6.329  17.182  0.00  0.00    +0.000 A 
ATOM     11  H   UNL     1      49.744   6.026  13.539  0.00  0.00    +0.000 HD
BRANCH   4  13
ATOM     12  N   UNL     1      47.540   7.786  19.769  0.00  0.00    +0.000 N 
ATOM     13  C   UNL     1      48.772   7.525  19.239  0.00  0.00    +0.000 C 
ATOM     14  O   UNL     1      49.745   7.337  19.958  0.00  0.00    +0.000 OA
ATOM     15  H   UNL     1      47.467   7.751  20.778  0.00  0.00    +0.000 HD
ATOM     16  H   UNL     1      46.688   7.712  19.233  0.00  0.00    +0.000 HD
ENDBRANCH   4  13
ENDBRANCH   1   8
BRANCH   1  17
ATOM     17  C   UNL     1      47.519   7.638  12.303  0.00  0.00    +0.000 A 
ATOM     18  C   UNL     1      46.613   8.690  12.510  0.00  0.00    +0.000 A 
ATOM     19  C   UNL     1      45.274   8.578  12.142  0.00  0.00    +0.000 A 
ATOM     20  C   UNL     1      44.818   7.420  11.514  0.00  0.00    +0.000 A 
ATOM     21  C   UNL     1      45.684   6.343  11.266  0.00  0.00    +0.000 A 
ATOM     22  C   UNL     1      47.008   6.457  11.727  0.00  0.00    +0.000 A 
BRANCH  21  23
ATOM     23  C   UNL     1      45.271   5.178  10.458  0.00  0.00    +0.000 A 
ATOM     24  C   UNL     1      45.656   5.045   9.120  0.00  0.00    +0.000 A 
ATOM     25  C   UNL     1      45.303   3.898   8.412  0.00  0.00    +0.000 A 
ATOM     26  C   UNL     1      44.571   2.910   9.053  0.00  0.00    +0.000 A 
ATOM     27  C   UNL     1      44.226   3.109  10.378  0.00  0.00    +0.000 A 
ATOM     28  N   UNL     1      44.562   4.209  11.092  0.00  0.00    +0.000 NA
ENDBRANCH  21  23
ENDBRANCH   1  17
TORSDOF 4
ENDMDL
MODEL 7
REMARK VINA RESULT:    -6.617      3.589      5.194
REMARK INTER + INTRA:          -9.104
REMARK INTER:                  -8.163
REMARK INTRA:                  -0.941
REMARK UNBOUND:                -0.939
REMARK  Name = 
REMARK  4 active torsions:
REMARK  status: ('A' for Active; 'I' for Inactive)
REMARK    1  A    between atoms: C_2  and  C_4
REMARK    2  A    between atoms: N_8  and  C_9
REMARK    3  A    between atoms: C_9  and  C_10
REMARK    4  A    between atoms: C_14  and  C_15
REMARK                            x       y       z     vdW  Elec       q    Type
REMARK                         _______ _______ _______ _____ _____    ______ ____
ROOT
ATOM      1  C   UNL     1      48.495   8.364  12.704  0.00  0.00    +0.000 C 
ATOM      2  C   UNL     1      49.297   9.433  11.971  0.00  0.00    +0.000 C 
ATOM      3  C   UNL     1      49.653   7.993  11.800  0.00  0.00    +0.000 C 
ENDROOT
BRANCH   1   8
ATOM      4  C   UNL     1      44.652   4.885  12.123  0.00  0.00    +0.000 A 
ATOM      5  C   UNL     1      46.004   4.691  12.369  0.00  0.00    +0.000 A 
ATOM      6  C   UNL     1      46.853   5.800  12.423  0.00  0.00    +0.000 A 
ATOM      7  C   UNL     1      46.331   7.079  12.265  0.00  0.00    +0.000 A 
ATOM      8  N   UNL     1      47.107   8.233  12.255  0.00  0.00    +0.000 N 
ATOM      9  N   UNL     1      45.014   7.277  12.041  0.00  0.00    +0.000 NA
ATOM     10  C   UNL     1      44.208   6.188  11.953  0.00  0.00    +0.000 A 
ATOM     11  H   UNL     1      46.493   9.041  12.277  0.00  0.00    +0.000 HD
BRANCH   4  13
ATOM     12  N   UNL     1      43.984   2.602  12.611  0.00  0.00    +0.000 N 
ATOM     13  C   UNL     1      43.686   3.777  11.979  0.00  0.00    +0.000 C 
ATOM     14  O   UNL     1      42.651   3.907  11.338  0.00  0.00    +0.000 OA
ATOM     15  H   UNL     1      43.279   1.877  12.570  0.00  0.00    +0.000 HD
ATOM     16  H   UNL     1      44.691   2.532  13.328  0.00  0.00    +0.000 HD
ENDBRANCH   4  13
ENDBRANCH   1   8
BRANCH   1  17
ATOM     17  C   UNL     1      48.660   8.228  14.214  0.00  0.00    +0.000 A 
ATOM     18  C   UNL     1      48.351   9.283  15.087  0.00  0.00    +0.000 A 
ATOM     19  C   UNL     1      48.372   9.111  16.470  0.00  0.00    +0.000 A 
ATOM     20  C   UNL     1      48.661   7.859  17.013  0.00  0.00    +0.000 A 
ATOM     21  C   UNL     1      48.958   6.764  16.186  0.00  0.00    +0.000 A 
ATOM     22  C   UNL     1      49.012   6.994  14.800  0.00  0.00    +0.000 A 
BRANCH  21  23
ATOM     23  C   UNL     1      49.102   5.396  16.723  0.00  0.00    +0.000 A 
ATOM     24  C   UNL     1      48.020   4.511  16.767  0.00  0.00    +0.000 A 
ATOM     25  C   UNL     1      48.213   3.207  17.217  0.00  0.00    +0.000 A 
ATOM     26  C   UNL     1      49.481   2.814  17.618  0.00  0.00    +0.000 A 
ATOM     27  C   UNL     1      50.505   3.742  17.547  0.00  0.00    +0.000 A 
ATOM     28  N   UNL     1      50.348   5.013  17.107  0.00  0.00    +0.000 NA
ENDBRANCH  21  23
ENDBRANCH   1  17
TORSDOF 4
ENDMDL
MODEL 8
REMARK VINA RESULT:    -6.562      3.918      8.455
REMARK INTER + INTRA:          -9.035
REMARK INTER:                  -8.469
REMARK INTRA:                  -0.566
REMARK UNBOUND:                -0.939
REMARK  Name = 
REMARK  4 active torsions:
REMARK  status: ('A' for Active; 'I' for Inactive)
REMARK    1  A    between atoms: C_2  and  C_4
REMARK    2  A    between atoms: N_8  and  C_9
REMARK    3  A    between atoms: C_9  and  C_10
REMARK    4  A    between atoms: C_14  and  C_15
REMARK                            x       y       z     vdW  Elec       q    Type
REMARK                         _______ _______ _______ _____ _____    ______ ____
ROOT
ATOM      1  C   UNL     1      48.235   4.781  17.125  0.00  0.00    +0.000 C 
ATOM      2  C   UNL     1      47.159   4.975  18.186  0.00  0.00    +0.000 C 
ATOM      3  C   UNL     1      47.252   3.676  17.457  0.00  0.00    +0.000 C 
ENDROOT
BRANCH   1   8
ATOM      4  C   UNL     1      52.401   1.693  17.685  0.00  0.00    +0.000 A 
ATOM      5  C   UNL     1      51.093   1.377  17.345  0.00  0.00    +0.000 A 
ATOM      6  C   UNL     1      50.132   2.390  17.320  0.00  0.00    +0.000 A 
ATOM      7  C   UNL     1      50.502   3.701  17.600  0.00  0.00    +0.000 A 
ATOM      8  N   UNL     1      49.604   4.762  17.645  0.00  0.00    +0.000 N 
ATOM      9  N   UNL     1      51.775   4.020  17.916  0.00  0.00    +0.000 NA
ATOM     10  C   UNL     1      52.690   3.018  17.974  0.00  0.00    +0.000 A 
ATOM     11  H   UNL     1      50.126   5.630  17.718  0.00  0.00    +0.000 HD
BRANCH   4  13
ATOM     12  N   UNL     1      53.152  -0.503  18.400  0.00  0.00    +0.000 N 
ATOM     13  C   UNL     1      53.475   0.685  17.807  0.00  0.00    +0.000 C 
ATOM     14  O   UNL     1      54.603   0.894  17.379  0.00  0.00    +0.000 OA
ATOM     15  H   UNL     1      53.873  -1.214  18.408  0.00  0.00    +0.000 HD
ATOM     16  H   UNL     1      52.198  -0.799  18.547  0.00  0.00    +0.000 HD
ENDBRANCH   4  13
ENDBRANCH   1   8
BRANCH   1  17
ATOM     17  C   UNL     1      48.100   5.520  15.797  0.00  0.00    +0.000 A 
ATOM     18  C   UNL     1      49.032   6.491  15.397  0.00  0.00    +0.000 A 
ATOM     19  C   UNL     1      48.983   7.065  14.128  0.00  0.00    +0.000 A 
ATOM     20  C   UNL     1      48.022   6.644  13.210  0.00  0.00    +0.000 A 
ATOM     21  C   UNL     1      47.077   5.663  13.549  0.00  0.00    +0.000 A 
ATOM     22  C   UNL     1      47.102   5.168  14.866  0.00  0.00    +0.000 A 
BRANCH  21  23
ATOM     23  C   UNL     1      46.160   5.082  12.549  0.00  0.00    +0.000 A 
ATOM     24  C   UNL     1      45.905   5.723  11.333  0.00  0.00    +0.000 A 
ATOM     25  C   UNL     1      45.087   5.109  10.387  0.00  0.00    +0.000 A 
ATOM     26  C   UNL     1      44.537   3.869  10.677  0.00  0.00    +0.000 A 
ATOM     27  C   UNL     1      44.833   3.293  11.900  0.00  0.00    +0.000 A 
ATOM     28  N   UNL     1      45.631   3.863  12.833  0.00  0.00    +0.000 NA
ENDBRANCH  21  23
ENDBRANCH   1  17
TORSDOF 4
ENDMDL
