MODEL 1
REMARK VINA RESULT:    -9.226      0.000      0.000
REMARK INTER + INTRA:         -12.245
REMARK INTER:                 -11.383
REMARK INTRA:                  -0.861
REMARK UNBOUND:                -0.861
REMARK  Name = 
REMARK  4 active torsions:
REMARK  status: ('A' for Active; 'I' for Inactive)
REMARK    1  A    between atoms: C_2  and  C_4
REMARK    2  A    between atoms: N_8  and  C_9
REMARK    3  A    between atoms: C_9  and  C_10
REMARK    4  A    between atoms: C_15  and  C_16
REMARK                            x       y       z     vdW  Elec       q    Type
REMARK                         _______ _______ _______ _____ _____    ______ ____
ROOT
ATOM      1  C   UNL     1      43.570   4.843  11.105  0.00  0.00    +0.000 C 
ENDROOT
BRANCH   1   6
ATOM      2  C   UNL     1      46.371   2.279   7.640  0.00  0.00    +0.000 A 
ATOM      3  C   UNL     1      45.746   1.799   8.785  0.00  0.00    +0.000 A 
ATOM      4  C   UNL     1      44.907   2.646   9.511  0.00  0.00    +0.000 A 
ATOM      5  C   UNL     1      44.714   3.956   9.087  0.00  0.00    +0.000 A 
ATOM      6  N   UNL     1      43.820   4.819   9.679  0.00  0.00    +0.000 N 
ATOM      7  N   UNL     1      45.335   4.439   7.993  0.00  0.00    +0.000 NA
ATOM      8  C   UNL     1      46.159   3.605   7.300  0.00  0.00    +0.000 A 
ATOM      9  H   UNL     1      43.894   5.721   9.220  0.00  0.00    +0.000 HD
BRANCH   2  11
ATOM     10  N   UNL     1      48.309   2.048   6.199  0.00  0.00    +0.000 N 
ATOM     11  C   UNL     1      47.238   1.436   6.792  0.00  0.00    +0.000 C 
ATOM     12  O   UNL     1      47.033   0.239   6.654  0.00  0.00    +0.000 OA
ATOM     13  H   UNL     1      48.957   1.445   5.707  0.00  0.00    +0.000 HD
ATOM     14  H   UNL     1      48.650   2.953   6.490  0.00  0.00    +0.000 HD
ENDBRANCH   2  11
ENDBRANCH   1   6
BRANCH   1  15
ATOM     15  C   UNL     1      44.774   5.212  11.946  0.00  0.00    +0.000 A 
ATOM     16  C   UNL     1      45.099   4.431  13.062  0.00  0.00    +0.000 A 
ATOM     17  C   UNL     1      46.140   4.813  13.898  0.00  0.00    +0.000 A 
ATOM     18  F   UNL     1      46.435   4.057  14.965  0.00  0.00    +0.000 F 
ATOM     19  C   UNL     1      46.877   5.968  13.657  0.00  0.00    +0.000 A 
ATOM     20  C   UNL     1      46.593   6.776  12.547  0.00  0.00    +0.000 A 
ATOM     21  C   UNL     1      45.526   6.377  11.711  0.00  0.00    +0.000 A 
BRANCH  20  22
ATOM     22  C   UNL     1      47.392   7.985  12.235  0.00  0.00    +0.000 A 
ATOM     23  C   UNL     1      46.823   9.275  12.259  0.00  0.00    +0.000 A 
ATOM     24  C   UNL     1      47.556  10.410  11.895  0.00  0.00    +0.000 A 
ATOM     25  C   UNL     1      48.887  10.281  11.516  0.00  0.00    +0.000 A 
ATOM     26  C   UNL     1      49.471   9.023  11.511  0.00  0.00    +0.000 A 
ATOM     27  F   UNL     1      50.755   8.893  11.151  0.00  0.00    +0.000 F 
ATOM     28  C   UNL     1      48.743   7.887  11.861  0.00  0.00    +0.000 A 
ENDBRANCH  20  22
ENDBRANCH   1  15
TORSDOF 4
ENDMDL
MODEL 2
REMARK VINA RESULT:    -9.191      0.879      1.300
REMARK INTER + INTRA:         -12.202
REMARK INTER:                 -11.362
REMARK INTRA:                  -0.840
REMARK UNBOUND:                -0.861
REMARK  Name = 
REMARK  4 active torsions:
REMARK  status: ('A' for Active; 'I' for Inactive)
REMARK    1  A    between atoms: C_2  and  C_4
REMARK    2  A    between atoms: N_8  and  C_9
REMARK    3  A    between atoms: C_9  and  C_10
REMARK    4  A    between atoms: C_15  and  C_16
REMARK                            x       y       z     vdW  Elec       q    Type
REMARK                         _______ _______ _______ _____ _____    ______ ____
ROOT
ATOM      1  C   UNL     1      43.647   4.835  11.148  0.00  0.00    +0.000 C 
ENDROOT
BRANCH   1   6
ATOM      2  C   UNL     1      46.381   2.252   7.644  0.00  0.00    +0.000 A 
ATOM      3  C   UNL     1      45.768   1.776   8.797  0.00  0.00    +0.000 A 
ATOM      4  C   UNL     1      44.946   2.629   9.534  0.00  0.00    +0.000 A 
ATOM      5  C   UNL     1      44.757   3.941   9.114  0.00  0.00    +0.000 A 
ATOM      6  N   UNL     1      43.877   4.809   9.718  0.00  0.00    +0.000 N 
ATOM      7  N   UNL     1      45.366   4.419   8.011  0.00  0.00    +0.000 NA
ATOM      8  C   UNL     1      46.174   3.580   7.307  0.00  0.00    +0.000 A 
ATOM      9  H   UNL     1      43.952   5.711   9.258  0.00  0.00    +0.000 HD
BRANCH   2  11
ATOM     10  N   UNL     1      48.283   2.012   6.157  0.00  0.00    +0.000 N 
ATOM     11  C   UNL     1      47.230   1.403   6.783  0.00  0.00    +0.000 C 
ATOM     12  O   UNL     1      47.027   0.203   6.664  0.00  0.00    +0.000 OA
ATOM     13  H   UNL     1      48.921   1.406   5.655  0.00  0.00    +0.000 HD
ATOM     14  H   UNL     1      48.627   2.922   6.429  0.00  0.00    +0.000 HD
ENDBRANCH   2  11
ENDBRANCH   1   6
BRANCH   1  15
ATOM     15  C   UNL     1      44.869   5.182  11.973  0.00  0.00    +0.000 A 
ATOM     16  C   UNL     1      45.158   4.436  13.122  0.00  0.00    +0.000 A 
ATOM     17  C   UNL     1      46.217   4.804  13.942  0.00  0.00    +0.000 A 
ATOM     18  F   UNL     1      46.476   4.082  15.041  0.00  0.00    +0.000 F 
ATOM     19  C   UNL     1      47.008   5.911  13.651  0.00  0.00    +0.000 A 
ATOM     20  C   UNL     1      46.761   6.682  12.506  0.00  0.00    +0.000 A 
ATOM     21  C   UNL     1      45.675   6.299  11.688  0.00  0.00    +0.000 A 
BRANCH  20  22
ATOM     22  C   UNL     1      47.616   7.837  12.143  0.00  0.00    +0.000 A 
ATOM     23  C   UNL     1      48.960   7.668  11.750  0.00  0.00    +0.000 A 
ATOM     24  C   UNL     1      49.789   8.762  11.478  0.00  0.00    +0.000 A 
ATOM     25  C   UNL     1      49.285  10.053  11.573  0.00  0.00    +0.000 A 
ATOM     26  C   UNL     1      47.959  10.237  11.933  0.00  0.00    +0.000 A 
ATOM     27  F   UNL     1      47.466  11.480  12.023  0.00  0.00    +0.000 F 
ATOM     28  C   UNL     1      47.130   9.154  12.218  0.00  0.00    +0.000 A 
ENDBRANCH  20  22
ENDBRANCH   1  15
TORSDOF 4
ENDMDL
MODEL 3
REMARK VINA RESULT:    -8.828      2.036      4.317
REMARK INTER + INTRA:         -11.754
REMARK INTER:                 -11.008
REMARK INTRA:                  -0.746
REMARK UNBOUND:                -0.861
REMARK  Name = 
REMARK  4 active torsions:
REMARK  status: ('A' for Active; 'I' for Inactive)
REMARK    1  A    between atoms: C_2  and  C_4
REMARK    2  A    between atoms: N_8  and  C_9
REMARK    3  A    between atoms: C_9  and  C_10
REMARK    4  A    between atoms: C_15  and  C_16
REMARK                            x       y       z     vdW  Elec       q    Type
REMARK                         _______ _______ _______ _____ _____    ______ ____
ROOT
ATOM      1  C   UNL     1      44.477   5.008  11.461  0.00  0.00    +0.000 C 
ENDROOT
BRANCH   1   6
ATOM      2  C   UNL     1      46.560   2.540   7.462  0.00  0.00    +0.000 A 
ATOM      3  C   UNL     1      46.013   2.011   8.625  0.00  0.00    +0.000 A 
ATOM      4  C   UNL     1      45.364   2.861   9.521  0.00  0.00    +0.000 A 
ATOM      5  C   UNL     1      45.280   4.222   9.246  0.00  0.00    +0.000 A 
ATOM      6  N   UNL     1      44.564   5.107  10.018  0.00  0.00    +0.000 N 
ATOM      7  N   UNL     1      45.829   4.748   8.133  0.00  0.00    +0.000 NA
ATOM      8  C   UNL     1      46.468   3.909   7.272  0.00  0.00    +0.000 A 
ATOM      9  H   UNL     1      44.692   6.039   9.638  0.00  0.00    +0.000 HD
BRANCH   2  11
ATOM     10  N   UNL     1      48.054   2.342   5.560  0.00  0.00    +0.000 N 
ATOM     11  C   UNL     1      47.224   1.703   6.441  0.00  0.00    +0.000 C 
ATOM     12  O   UNL     1      47.070   0.491   6.405  0.00  0.00    +0.000 OA
ATOM     13  H   UNL     1      48.586   1.751   4.933  0.00  0.00    +0.000 HD
ATOM     14  H   UNL     1      48.398   3.279   5.717  0.00  0.00    +0.000 HD
ENDBRANCH   2  11
ENDBRANCH   1   6
BRANCH   1  15
ATOM     15  C   UNL     1      45.676   5.565  12.200  0.00  0.00    +0.000 A 
ATOM     16  C   UNL     1      46.488   6.518  11.574  0.00  0.00    +0.000 A 
ATOM     17  C   UNL     1      47.646   6.964  12.199  0.00  0.00    +0.000 A 
ATOM     18  F   UNL     1      48.414   7.873  11.584  0.00  0.00    +0.000 F 
ATOM     19  C   UNL     1      48.027   6.480  13.447  0.00  0.00    +0.000 A 
ATOM     20  C   UNL     1      47.240   5.531  14.115  0.00  0.00    +0.000 A 
ATOM     21  C   UNL     1      46.071   5.083  13.461  0.00  0.00    +0.000 A 
BRANCH  20  22
ATOM     22  C   UNL     1      47.595   5.034  15.466  0.00  0.00    +0.000 A 
ATOM     23  C   UNL     1      48.578   5.668  16.253  0.00  0.00    +0.000 A 
ATOM     24  C   UNL     1      48.965   5.157  17.497  0.00  0.00    +0.000 A 
ATOM     25  C   UNL     1      48.360   4.008  17.992  0.00  0.00    +0.000 A 
ATOM     26  C   UNL     1      47.373   3.387  17.243  0.00  0.00    +0.000 A 
ATOM     27  F   UNL     1      46.782   2.281  17.717  0.00  0.00    +0.000 F 
ATOM     28  C   UNL     1      46.991   3.882  15.998  0.00  0.00    +0.000 A 
ENDBRANCH  20  22
ENDBRANCH   1  15
TORSDOF 4
ENDMDL
MODEL 4
REMARK VINA RESULT:    -8.476      4.142      7.257
REMARK INTER + INTRA:         -11.319
REMARK INTER:                 -10.921
REMARK INTRA:                  -0.398
REMARK UNBOUND:                -0.861
REMARK  Name = 
REMARK  4 active torsions:
REMARK  status: ('A' for Active; 'I' for Inactive)
REMARK    1  A    between atoms: C_2  and  C_4
REMARK    2  A    between atoms: N_8  and  C_9
REMARK    3  A    between atoms: C_9  and  C_10
REMARK    4  A    between atoms: C_15  and  C_16
REMARK                            x       y       z     vdW  Elec       q    Type
REMARK                         _______ _______ _______ _____ _____    ______ ____
ROOT
ATOM      1  C   UNL     1      46.220   7.459  11.748  0.00  0.00    +0.000 C 
ENDROOT
BRANCH   1   6
ATOM      2  C   UNL     1      47.445   4.440  15.725  0.00  0.00    +0.000 A 
ATOM      3  C   UNL     1      46.416   4.294  14.803  0.00  0.00    +0.000 A 
ATOM      4  C   UNL     1      46.354   5.157  13.707  0.00  0.00    +0.000 A 
ATOM      5  C   UNL     1      47.312   6.152  13.556  0.00  0.00    +0.000 A 
ATOM      6  N   UNL     1      47.388   6.968  12.450  0.00  0.00    +0.000 N 
ATOM      7  N   UNL     1      48.301   6.318  14.457  0.00  0.00    +0.000 NA
ATOM      8  C   UNL     1      48.344   5.477  15.527  0.00  0.00    +0.000 A 
ATOM      9  H   UNL     1      48.139   7.634  12.595  0.00  0.00    +0.000 HD
BRANCH   2  11
ATOM     10  N   UNL     1      48.874   3.407  17.392  0.00  0.00    +0.000 N 
ATOM     11  C   UNL     1      47.609   3.543  16.887  0.00  0.00    +0.000 C 
ATOM     12  O   UNL     1      46.654   2.976  17.400  0.00  0.00    +0.000 OA
ATOM     13  H   UNL     1      48.961   2.876  18.250  0.00  0.00    +0.000 HD
ATOM     14  H   UNL     1      49.624   4.043  17.163  0.00  0.00    +0.000 HD
ENDBRANCH   2  11
ENDBRANCH   1   6
BRANCH   1  15
ATOM     15  C   UNL     1      45.395   6.383  11.076  0.00  0.00    +0.000 A 
ATOM     16  C   UNL     1      44.064   6.191  11.466  0.00  0.00    +0.000 A 
ATOM     17  C   UNL     1      43.325   5.145  10.929  0.00  0.00    +0.000 A 
ATOM     18  F   UNL     1      42.054   4.972  11.319  0.00  0.00    +0.000 F 
ATOM     19  C   UNL     1      43.880   4.266  10.004  0.00  0.00    +0.000 A 
ATOM     20  C   UNL     1      45.206   4.425   9.577  0.00  0.00    +0.000 A 
ATOM     21  C   UNL     1      45.945   5.489  10.139  0.00  0.00    +0.000 A 
BRANCH  20  22
ATOM     22  C   UNL     1      45.809   3.536   8.555  0.00  0.00    +0.000 A 
ATOM     23  C   UNL     1      46.310   4.041   7.338  0.00  0.00    +0.000 A 
ATOM     24  C   UNL     1      46.814   3.196   6.342  0.00  0.00    +0.000 A 
ATOM     25  C   UNL     1      46.844   1.822   6.552  0.00  0.00    +0.000 A 
ATOM     26  C   UNL     1      46.378   1.310   7.753  0.00  0.00    +0.000 A 
ATOM     27  F   UNL     1      46.410  -0.013   7.962  0.00  0.00    +0.000 F 
ATOM     28  C   UNL     1      45.865   2.144   8.744  0.00  0.00    +0.000 A 
ENDBRANCH  20  22
ENDBRANCH   1  15
TORSDOF 4
ENDMDL
MODEL 5
REMARK VINA RESULT:    -8.236      3.776      6.924
REMARK INTER + INTRA:         -11.023
REMARK INTER:                 -10.450
REMARK INTRA:                  -0.573
REMARK UNBOUND:                -0.861
REMARK  Name = 
REMARK  4 active torsions:
REMARK  status: ('A' for Active; 'I' for Inactive)
REMARK    1  A    between atoms: C_2  and  C_4
REMARK    2  A    between atoms: N_8  and  C_9
REMARK    3  A    between atoms: C_9  and  C_10
REMARK    4  A    between atoms: C_15  and  C_16
REMARK                            x       y       z     vdW  Elec       q    Type
REMARK                         _______ _______ _______ _____ _____    ______ ____
ROOT
ATOM      1  C   UNL     1      43.732   6.533  11.176  0.00  0.00    +0.000 C 
ENDROOT
BRANCH   1   6
ATOM      2  C   UNL     1      48.223   6.982  13.637  0.00  0.00    +0.000 A 
ATOM      3  C   UNL     1      47.461   5.842  13.413  0.00  0.00    +0.000 A 
ATOM      4  C   UNL     1      46.338   5.923  12.588  0.00  0.00    +0.000 A 
ATOM      5  C   UNL     1      45.992   7.139  12.009  0.00  0.00    +0.000 A 
ATOM      6  N   UNL     1      44.971   7.279  11.097  0.00  0.00    +0.000 N 
ATOM      7  N   UNL     1      46.711   8.256  12.239  0.00  0.00    +0.000 NA
ATOM      8  C   UNL     1      47.797   8.165  13.055  0.00  0.00    +0.000 A 
ATOM      9  H   UNL     1      44.890   8.262  10.857  0.00  0.00    +0.000 HD
BRANCH   2  11
ATOM     10  N   UNL     1      50.504   7.720  14.011  0.00  0.00    +0.000 N 
ATOM     11  C   UNL     1      49.449   6.972  14.461  0.00  0.00    +0.000 C 
ATOM     12  O   UNL     1      49.510   6.356  15.515  0.00  0.00    +0.000 OA
ATOM     13  H   UNL     1      51.301   7.794  14.632  0.00  0.00    +0.000 HD
ATOM     14  H   UNL     1      50.405   8.429  13.299  0.00  0.00    +0.000 HD
ENDBRANCH   2  11
ENDBRANCH   1   6
BRANCH   1  15
ATOM     15  C   UNL     1      43.869   5.057  10.870  0.00  0.00    +0.000 A 
ATOM     16  C   UNL     1      43.308   4.117  11.743  0.00  0.00    +0.000 A 
ATOM     17  C   UNL     1      43.511   2.760  11.528  0.00  0.00    +0.000 A 
ATOM     18  F   UNL     1      42.971   1.875  12.378  0.00  0.00    +0.000 F 
ATOM     19  C   UNL     1      44.269   2.302  10.456  0.00  0.00    +0.000 A 
ATOM     20  C   UNL     1      44.843   3.205   9.551  0.00  0.00    +0.000 A 
ATOM     21  C   UNL     1      44.634   4.582   9.789  0.00  0.00    +0.000 A 
BRANCH  20  22
ATOM     22  C   UNL     1      45.615   2.746   8.371  0.00  0.00    +0.000 A 
ATOM     23  C   UNL     1      46.146   1.442   8.297  0.00  0.00    +0.000 A 
ATOM     24  C   UNL     1      46.936   1.030   7.217  0.00  0.00    +0.000 A 
ATOM     25  C   UNL     1      47.196   1.911   6.174  0.00  0.00    +0.000 A 
ATOM     26  C   UNL     1      46.660   3.189   6.219  0.00  0.00    +0.000 A 
ATOM     27  F   UNL     1      46.903   4.042   5.214  0.00  0.00    +0.000 F 
ATOM     28  C   UNL     1      45.883   3.610   7.296  0.00  0.00    +0.000 A 
ENDBRANCH  20  22
ENDBRANCH   1  15
TORSDOF 4
ENDMDL
MODEL 6
REMARK VINA RESULT:    -8.157      2.087      2.725
REMARK INTER + INTRA:         -10.926
REMARK INTER:                 -10.512
REMARK INTRA:                  -0.413
REMARK UNBOUND:                -0.861
REMARK  Name = 
REMARK  4 active torsions:
REMARK  status: ('A' for Active; 'I' for Inactive)
REMARK    1  A    between atoms: C_2  and  C_4
REMARK    2  A    between atoms: N_8  and  C_9
REMARK    3  A    between atoms: C_9  and  C_10
REMARK    4  A    between atoms: C_15  and  C_16
REMARK                            x       y       z     vdW  Elec       q    Type
REMARK                         _______ _______ _______ _____ _____    ______ ____
ROOT
ATOM      1  C   UNL     1      43.498   3.476  11.058  0.00  0.00    +0.000 C 
ENDROOT
BRANCH   1   6
ATOM      2  C   UNL     1      46.681   2.500   7.142  0.00  0.00    +0.000 A 
ATOM      3  C   UNL     1      46.216   3.725   7.603  0.00  0.00    +0.000 A 
ATOM      4  C   UNL     1      45.470   3.772   8.783  0.00  0.00    +0.000 A 
ATOM      5  C   UNL     1      45.196   2.597   9.473  0.00  0.00    +0.000 A 
ATOM      6  N   UNL     1      44.566   2.567  10.697  0.00  0.00    +0.000 N 
ATOM      7  N   UNL     1      45.621   1.400   9.021  0.00  0.00    +0.000 NA
ATOM      8  C   UNL     1      46.339   1.368   7.864  0.00  0.00    +0.000 A 
ATOM      9  H   UNL     1      44.445   1.598  10.971  0.00  0.00    +0.000 HD
BRANCH   2  11
ATOM     10  N   UNL     1      47.307   3.285   4.933  0.00  0.00    +0.000 N 
ATOM     11  C   UNL     1      47.513   2.369   5.929  0.00  0.00    +0.000 C 
ATOM     12  O   UNL     1      48.373   1.505   5.830  0.00  0.00    +0.000 OA
ATOM     13  H   UNL     1      47.951   3.254   4.152  0.00  0.00    +0.000 HD
ATOM     14  H   UNL     1      46.800   4.146   5.081  0.00  0.00    +0.000 HD
ENDBRANCH   2  11
ENDBRANCH   1   6
BRANCH   1  15
ATOM     15  C   UNL     1      43.948   4.895  11.333  0.00  0.00    +0.000 A 
ATOM     16  C   UNL     1      43.083   5.959  11.050  0.00  0.00    +0.000 A 
ATOM     17  C   UNL     1      43.518   7.269  11.203  0.00  0.00    +0.000 A 
ATOM     18  F   UNL     1      42.678   8.275  10.923  0.00  0.00    +0.000 F 
ATOM     19  C   UNL     1      44.809   7.558  11.633  0.00  0.00    +0.000 A 
ATOM     20  C   UNL     1      45.708   6.525  11.936  0.00  0.00    +0.000 A 
ATOM     21  C   UNL     1      45.251   5.199  11.767  0.00  0.00    +0.000 A 
BRANCH  20  22
ATOM     22  C   UNL     1      47.073   6.802  12.444  0.00  0.00    +0.000 A 
ATOM     23  C   UNL     1      47.450   6.480  13.763  0.00  0.00    +0.000 A 
ATOM     24  C   UNL     1      48.715   6.806  14.266  0.00  0.00    +0.000 A 
ATOM     25  C   UNL     1      49.641   7.446  13.450  0.00  0.00    +0.000 A 
ATOM     26  C   UNL     1      49.295   7.746  12.141  0.00  0.00    +0.000 A 
ATOM     27  F   UNL     1      50.184   8.359  11.348  0.00  0.00    +0.000 F 
ATOM     28  C   UNL     1      48.033   7.436  11.637  0.00  0.00    +0.000 A 
ENDBRANCH  20  22
ENDBRANCH   1  15
TORSDOF 4
ENDMDL
MODEL 7
REMARK VINA RESULT:    -8.063      3.939      7.002
REMARK INTER + INTRA:         -10.809
REMARK INTER:                 -10.438
REMARK INTRA:                  -0.371
REMARK UNBOUND:                -0.861
REMARK  Name = 
REMARK  4 active torsions:
REMARK  status: ('A' for Active; 'I' for Inactive)
REMARK    1  A    between atoms: C_2  and  C_4
REMARK    2  A    between atoms: N_8  and  C_9
REMARK    3  A    between atoms: C_9  and  C_10
REMARK    4  A    between atoms: C_15  and  C_16
REMARK                            x       y       z     vdW  Elec       q    Type
REMARK                         _______ _______ _______ _____ _____    ______ ____
ROOT
ATOM      1  C   UNL     1      43.125   6.560  11.175  0.00  0.00    +0.000 C 
ENDROOT
BRANCH   1   6
ATOM      2  C   UNL     1      47.537   7.549  13.621  0.00  0.00    +0.000 A 
ATOM      3  C   UNL     1      46.939   6.321  13.361  0.00  0.00    +0.000 A 
ATOM      4  C   UNL     1      45.807   6.273  12.547  0.00  0.00    +0.000 A 
ATOM      5  C   UNL     1      45.287   7.447  12.014  0.00  0.00    +0.000 A 
ATOM      6  N   UNL     1      44.246   7.475  11.115  0.00  0.00    +0.000 N 
ATOM      7  N   UNL     1      45.845   8.645  12.280  0.00  0.00    +0.000 NA
ATOM      8  C   UNL     1      46.942   8.680  13.085  0.00  0.00    +0.000 A 
ATOM      9  H   UNL     1      44.026   8.444  10.911  0.00  0.00    +0.000 HD
BRANCH   2  11
ATOM     10  N   UNL     1      49.110   8.948  14.827  0.00  0.00    +0.000 N 
ATOM     11  C   UNL     1      48.761   7.683  14.436  0.00  0.00    +0.000 C 
ATOM     12  O   UNL     1      49.415   6.708  14.778  0.00  0.00    +0.000 OA
ATOM     13  H   UNL     1      49.889   9.021  15.471  0.00  0.00    +0.000 HD
ATOM     14  H   UNL     1      48.471   9.728  14.783  0.00  0.00    +0.000 HD
ENDBRANCH   2  11
ENDBRANCH   1   6
BRANCH   1  15
ATOM     15  C   UNL     1      43.492   5.105  10.967  0.00  0.00    +0.000 A 
ATOM     16  C   UNL     1      43.096   4.154  11.916  0.00  0.00    +0.000 A 
ATOM     17  C   UNL     1      43.510   2.834  11.790  0.00  0.00    +0.000 A 
ATOM     18  F   UNL     1      43.126   1.937  12.709  0.00  0.00    +0.000 F 
ATOM     19  C   UNL     1      44.319   2.425  10.735  0.00  0.00    +0.000 A 
ATOM     20  C   UNL     1      44.733   3.341   9.757  0.00  0.00    +0.000 A 
ATOM     21  C   UNL     1      44.310   4.681   9.905  0.00  0.00    +0.000 A 
BRANCH  20  22
ATOM     22  C   UNL     1      45.554   2.926   8.595  0.00  0.00    +0.000 A 
ATOM     23  C   UNL     1      45.920   3.839   7.585  0.00  0.00    +0.000 A 
ATOM     24  C   UNL     1      46.634   3.433   6.451  0.00  0.00    +0.000 A 
ATOM     25  C   UNL     1      47.015   2.104   6.312  0.00  0.00    +0.000 A 
ATOM     26  C   UNL     1      46.685   1.198   7.309  0.00  0.00    +0.000 A 
ATOM     27  F   UNL     1      47.054  -0.084   7.183  0.00  0.00    +0.000 F 
ATOM     28  C   UNL     1      45.964   1.592   8.435  0.00  0.00    +0.000 A 
ENDBRANCH  20  22
ENDBRANCH   1  15
TORSDOF 4
ENDMDL
MODEL 8
REMARK VINA RESULT:    -8.062      2.507      3.517
REMARK INTER + INTRA:         -10.809
REMARK INTER:                 -10.100
REMARK INTRA:                  -0.708
REMARK UNBOUND:                -0.861
REMARK  Name = 
REMARK  4 active torsions:
REMARK  status: ('A' for Active; 'I' for Inactive)
REMARK    1  A    between atoms: C_2  and  C_4
REMARK    2  A    between atoms: N_8  and  C_9
REMARK    3  A    between atoms: C_9  and  C_10
REMARK    4  A    between atoms: C_15  and  C_16
REMARK                            x       y       z     vdW  Elec       q    Type
REMARK                         _______ _______ _______ _____ _____    ______ ____
ROOT
ATOM      1  C   UNL     1      43.617   3.584  11.139  0.00  0.00    +0.000 C 
ENDROOT
BRANCH   1   6
ATOM      2  C   UNL     1      46.678   2.496   7.155  0.00  0.00    +0.000 A 
ATOM      3  C   UNL     1      46.409   3.729   7.737  0.00  0.00    +0.000 A 
ATOM      4  C   UNL     1      45.657   3.779   8.912  0.00  0.00    +0.000 A 
ATOM      5  C   UNL     1      45.181   2.601   9.479  0.00  0.00    +0.000 A 
ATOM      6  N   UNL     1      44.531   2.554  10.691  0.00  0.00    +0.000 N 
ATOM      7  N   UNL     1      45.416   1.403   8.908  0.00  0.00    +0.000 NA
ATOM      8  C   UNL     1      46.141   1.370   7.757  0.00  0.00    +0.000 A 
ATOM      9  H   UNL     1      44.248   1.595  10.864  0.00  0.00    +0.000 HD
BRANCH   2  11
ATOM     10  N   UNL     1      47.308   3.274   4.945  0.00  0.00    +0.000 N 
ATOM     11  C   UNL     1      47.502   2.352   5.938  0.00  0.00    +0.000 C 
ATOM     12  O   UNL     1      48.346   1.474   5.834  0.00  0.00    +0.000 OA
ATOM     13  H   UNL     1      47.947   3.233   4.160  0.00  0.00    +0.000 HD
ATOM     14  H   UNL     1      46.817   4.144   5.096  0.00  0.00    +0.000 HD
ENDBRANCH   2  11
ENDBRANCH   1   6
BRANCH   1  15
ATOM     15  C   UNL     1      44.290   4.796  11.748  0.00  0.00    +0.000 A 
ATOM     16  C   UNL     1      43.995   6.071  11.248  0.00  0.00    +0.000 A 
ATOM     17  C   UNL     1      44.677   7.181  11.729  0.00  0.00    +0.000 A 
ATOM     18  F   UNL     1      44.385   8.393  11.236  0.00  0.00    +0.000 F 
ATOM     19  C   UNL     1      45.662   7.060  12.704  0.00  0.00    +0.000 A 
ATOM     20  C   UNL     1      45.986   5.805  13.239  0.00  0.00    +0.000 A 
ATOM     21  C   UNL     1      45.288   4.686  12.733  0.00  0.00    +0.000 A 
BRANCH  20  22
ATOM     22  C   UNL     1      46.995   5.651  14.314  0.00  0.00    +0.000 A 
ATOM     23  C   UNL     1      46.964   4.560  15.206  0.00  0.00    +0.000 A 
ATOM     24  C   UNL     1      47.872   4.451  16.265  0.00  0.00    +0.000 A 
ATOM     25  C   UNL     1      48.847   5.425  16.444  0.00  0.00    +0.000 A 
ATOM     26  C   UNL     1      48.907   6.492  15.561  0.00  0.00    +0.000 A 
ATOM     27  F   UNL     1      49.848   7.432  15.726  0.00  0.00    +0.000 F 
ATOM     28  C   UNL     1      47.999   6.614  14.511  0.00  0.00    +0.000 A 
ENDBRANCH  20  22
ENDBRANCH   1  15
TORSDOF 4
ENDMDL
MODEL 9
REMARK VINA RESULT:    -7.934      4.965      7.912
REMARK INTER + INTRA:         -10.650
REMARK INTER:                 -10.102
REMARK INTRA:                  -0.548
REMARK UNBOUND:                -0.861
REMARK  Name = 
REMARK  4 active torsions:
REMARK  status: ('A' for Active; 'I' for Inactive)
REMARK    1  A    between atoms: C_2  and  C_4
REMARK    2  A    between atoms: N_8  and  C_9
REMARK    3  A    between atoms: C_9  and  C_10
REMARK    4  A    between atoms: C_15  and  C_16
REMARK                            x       y       z     vdW  Elec       q    Type
REMARK                         _______ _______ _______ _____ _____    ______ ____
ROOT
ATOM      1  C   UNL     1      46.124   5.661  13.688  0.00  0.00    +0.000 C 
ENDROOT
BRANCH   1   6
ATOM      2  C   UNL     1      49.449   3.943  17.211  0.00  0.00    +0.000 A 
ATOM      3  C   UNL     1      49.185   5.252  16.826  0.00  0.00    +0.000 A 
ATOM      4  C   UNL     1      48.129   5.505  15.949  0.00  0.00    +0.000 A 
ATOM      5  C   UNL     1      47.364   4.449  15.466  0.00  0.00    +0.000 A 
ATOM      6  N   UNL     1      46.241   4.622  14.689  0.00  0.00    +0.000 N 
ATOM      7  N   UNL     1      47.628   3.174  15.813  0.00  0.00    +0.000 NA
ATOM      8  C   UNL     1      48.667   2.940  16.661  0.00  0.00    +0.000 A 
ATOM      9  H   UNL     1      45.887   3.706  14.431  0.00  0.00    +0.000 HD
BRANCH   2  11
ATOM     10  N   UNL     1      51.209   2.436  17.933  0.00  0.00    +0.000 N 
ATOM     11  C   UNL     1      50.518   3.594  18.169  0.00  0.00    +0.000 C 
ATOM     12  O   UNL     1      50.801   4.323  19.109  0.00  0.00    +0.000 OA
ATOM     13  H   UNL     1      52.007   2.258  18.531  0.00  0.00    +0.000 HD
ATOM     14  H   UNL     1      51.177   1.954  17.047  0.00  0.00    +0.000 HD
ENDBRANCH   2  11
ENDBRANCH   1   6
BRANCH   1  15
ATOM     15  C   UNL     1      45.251   5.297  12.505  0.00  0.00    +0.000 A 
ATOM     16  C   UNL     1      43.877   5.562  12.557  0.00  0.00    +0.000 A 
ATOM     17  C   UNL     1      43.049   5.145  11.523  0.00  0.00    +0.000 A 
ATOM     18  F   UNL     1      41.735   5.402  11.590  0.00  0.00    +0.000 F 
ATOM     19  C   UNL     1      43.554   4.457  10.423  0.00  0.00    +0.000 A 
ATOM     20  C   UNL     1      44.924   4.176  10.325  0.00  0.00    +0.000 A 
ATOM     21  C   UNL     1      45.750   4.601  11.390  0.00  0.00    +0.000 A 
BRANCH  20  22
ATOM     22  C   UNL     1      45.498   3.489   9.144  0.00  0.00    +0.000 A 
ATOM     23  C   UNL     1      45.859   4.198   7.980  0.00  0.00    +0.000 A 
ATOM     24  C   UNL     1      46.333   3.542   6.837  0.00  0.00    +0.000 A 
ATOM     25  C   UNL     1      46.475   2.160   6.842  0.00  0.00    +0.000 A 
ATOM     26  C   UNL     1      46.148   1.450   7.987  0.00  0.00    +0.000 A 
ATOM     27  F   UNL     1      46.288   0.117   7.999  0.00  0.00    +0.000 F 
ATOM     28  C   UNL     1      45.664   2.094   9.124  0.00  0.00    +0.000 A 
ENDBRANCH  20  22
ENDBRANCH   1  15
TORSDOF 4
ENDMDL
