MODEL 1
REMARK VINA RESULT:    -9.450      0.000      0.000
REMARK INTER + INTRA:         -13.124
REMARK INTER:                 -12.212
REMARK INTRA:                  -0.912
REMARK UNBOUND:                -0.912
REMARK  Name = 
REMARK  5 active torsions:
REMARK  status: ('A' for Active; 'I' for Inactive)
REMARK    1  A    between atoms: C_2  and  C_4
REMARK    2  A    between atoms: C_7  and  N_8
REMARK    3  A    between atoms: N_8  and  C_9
REMARK    4  A    between atoms: C_9  and  C_10
REMARK    5  A    between atoms: C_14  and  C_15
REMARK                            x       y       z     vdW  Elec       q    Type
REMARK                         _______ _______ _______ _____ _____    ______ ____
ROOT
ATOM      1  C   UNL     1      43.923   4.981  11.433  0.00  0.00    +0.000 C 
ATOM      2  C   UNL     1      43.058   4.032  12.248  0.00  0.00    +0.000 C 
ATOM      3  C   UNL     1      42.679   5.469  12.165  0.00  0.00    +0.000 C 
ENDROOT
BRANCH   1   4
ATOM      4  C   UNL     1      45.244   5.492  11.997  0.00  0.00    +0.000 A 
ATOM      5  C   UNL     1      45.964   6.515  11.371  0.00  0.00    +0.000 A 
ATOM      6  C   UNL     1      47.135   6.976  11.948  0.00  0.00    +0.000 A 
ATOM      7  N   UNL     1      47.652   6.487  13.094  0.00  0.00    +0.000 NA
ATOM      8  C   UNL     1      46.984   5.471  13.700  0.00  0.00    +0.000 A 
ATOM      9  C   UNL     1      45.793   4.968  13.173  0.00  0.00    +0.000 A 
BRANCH   8  10
ATOM     10  C   UNL     1      47.568   4.923  14.948  0.00  0.00    +0.000 A 
ATOM     11  C   UNL     1      48.276   5.715  15.851  0.00  0.00    +0.000 A 
ATOM     12  C   UNL     1      48.809   5.136  17.001  0.00  0.00    +0.000 A 
ATOM     13  C   UNL     1      48.627   3.779  17.229  0.00  0.00    +0.000 A 
ATOM     14  C   UNL     1      47.913   3.054  16.294  0.00  0.00    +0.000 A 
ATOM     15  N   UNL     1      47.380   3.589  15.176  0.00  0.00    +0.000 NA
ENDBRANCH   8  10
ENDBRANCH   1   4
BRANCH   1  16
ATOM     16  N   UNL     1      43.904   4.882   9.964  0.00  0.00    +0.000 N 
ATOM     17  H   UNL     1      43.081   5.204   9.467  0.00  0.00    +0.000 HD
BRANCH  16  21
ATOM     18  C   UNL     1      46.442   2.338   7.717  0.00  0.00    +0.000 A 
ATOM     19  C   UNL     1      45.557   1.789   8.644  0.00  0.00    +0.000 A 
ATOM     20  C   UNL     1      44.725   2.624   9.396  0.00  0.00    +0.000 A 
ATOM     21  C   UNL     1      44.726   4.011   9.219  0.00  0.00    +0.000 A 
ATOM     22  C   UNL     1      45.665   4.553   8.330  0.00  0.00    +0.000 A 
ATOM     23  C   UNL     1      46.518   3.728   7.585  0.00  0.00    +0.000 A 
BRANCH  18  25
ATOM     24  N   UNL     1      48.354   2.098   6.232  0.00  0.00    +0.000 N 
ATOM     25  C   UNL     1      47.321   1.479   6.883  0.00  0.00    +0.000 C 
ATOM     26  O   UNL     1      47.164   0.269   6.813  0.00  0.00    +0.000 OA
ATOM     27  H   UNL     1      49.012   1.494   5.757  0.00  0.00    +0.000 HD
ATOM     28  H   UNL     1      48.660   3.030   6.469  0.00  0.00    +0.000 HD
ENDBRANCH  18  25
ENDBRANCH  16  21
ENDBRANCH   1  16
TORSDOF 5
ENDMDL
MODEL 2
REMARK VINA RESULT:    -9.057      1.523      3.343
REMARK INTER + INTRA:         -12.616
REMARK INTER:                 -11.534
REMARK INTRA:                  -1.082
REMARK UNBOUND:                -0.912
REMARK  Name = 
REMARK  5 active torsions:
REMARK  status: ('A' for Active; 'I' for Inactive)
REMARK    1  A    between atoms: C_2  and  C_4
REMARK    2  A    between atoms: C_7  and  N_8
REMARK    3  A    between atoms: N_8  and  C_9
REMARK    4  A    between atoms: C_9  and  C_10
REMARK    5  A    between atoms: C_14  and  C_15
REMARK                            x       y       z     vdW  Elec       q    Type
REMARK                         _______ _______ _______ _____ _____    ______ ____
ROOT
ATOM      1  C   UNL     1      44.016   4.943  11.492  0.00  0.00    +0.000 C 
ATOM      2  C   UNL     1      42.995   4.011  12.123  0.00  0.00    +0.000 C 
ATOM      3  C   UNL     1      42.779   5.481  12.200  0.00  0.00    +0.000 C 
ENDROOT
BRANCH   1   4
ATOM      4  C   UNL     1      45.337   5.227  12.197  0.00  0.00    +0.000 A 
ATOM      5  C   UNL     1      45.820   4.397  13.215  0.00  0.00    +0.000 A 
ATOM      6  C   UNL     1      47.048   4.672  13.793  0.00  0.00    +0.000 A 
ATOM      7  N   UNL     1      47.827   5.717  13.445  0.00  0.00    +0.000 NA
ATOM      8  C   UNL     1      47.360   6.553  12.480  0.00  0.00    +0.000 A 
ATOM      9  C   UNL     1      46.134   6.326  11.853  0.00  0.00    +0.000 A 
BRANCH   8  10
ATOM     10  C   UNL     1      48.210   7.712  12.116  0.00  0.00    +0.000 A 
ATOM     11  C   UNL     1      47.725   9.020  12.109  0.00  0.00    +0.000 A 
ATOM     12  C   UNL     1      48.572  10.064  11.747  0.00  0.00    +0.000 A 
ATOM     13  C   UNL     1      49.887   9.787  11.398  0.00  0.00    +0.000 A 
ATOM     14  C   UNL     1      50.302   8.469  11.429  0.00  0.00    +0.000 A 
ATOM     15  N   UNL     1      49.506   7.438  11.782  0.00  0.00    +0.000 NA
ENDBRANCH   8  10
ENDBRANCH   1   4
BRANCH   1  16
ATOM     16  N   UNL     1      44.099   5.023  10.023  0.00  0.00    +0.000 N 
ATOM     17  H   UNL     1      43.344   5.476   9.520  0.00  0.00    +0.000 HD
BRANCH  16  21
ATOM     18  C   UNL     1      46.576   2.553   7.632  0.00  0.00    +0.000 A 
ATOM     19  C   UNL     1      45.691   1.973   8.540  0.00  0.00    +0.000 A 
ATOM     20  C   UNL     1      44.880   2.783   9.339  0.00  0.00    +0.000 A 
ATOM     21  C   UNL     1      44.900   4.177   9.229  0.00  0.00    +0.000 A 
ATOM     22  C   UNL     1      45.839   4.747   8.358  0.00  0.00    +0.000 A 
ATOM     23  C   UNL     1      46.673   3.946   7.566  0.00  0.00    +0.000 A 
BRANCH  18  25
ATOM     24  N   UNL     1      48.540   2.326   6.214  0.00  0.00    +0.000 N 
ATOM     25  C   UNL     1      47.434   1.722   6.748  0.00  0.00    +0.000 C 
ATOM     26  O   UNL     1      47.196   0.541   6.541  0.00  0.00    +0.000 OA
ATOM     27  H   UNL     1      49.177   1.727   5.704  0.00  0.00    +0.000 HD
ATOM     28  H   UNL     1      48.899   3.202   6.563  0.00  0.00    +0.000 HD
ENDBRANCH  18  25
ENDBRANCH  16  21
ENDBRANCH   1  16
TORSDOF 5
ENDMDL
MODEL 3
REMARK VINA RESULT:    -8.384      2.002      2.635
REMARK INTER + INTRA:         -11.747
REMARK INTER:                 -10.858
REMARK INTRA:                  -0.889
REMARK UNBOUND:                -0.912
REMARK  Name = 
REMARK  5 active torsions:
REMARK  status: ('A' for Active; 'I' for Inactive)
REMARK    1  A    between atoms: C_2  and  C_4
REMARK    2  A    between atoms: C_7  and  N_8
REMARK    3  A    between atoms: N_8  and  C_9
REMARK    4  A    between atoms: C_9  and  C_10
REMARK    5  A    between atoms: C_14  and  C_15
REMARK                            x       y       z     vdW  Elec       q    Type
REMARK                         _______ _______ _______ _____ _____    ______ ____
ROOT
ATOM      1  C   UNL     1      44.028   5.047  11.551  0.00  0.00    +0.000 C 
ATOM      2  C   UNL     1      44.221   3.958  12.595  0.00  0.00    +0.000 C 
ATOM      3  C   UNL     1      42.978   4.776  12.622  0.00  0.00    +0.000 C 
ENDROOT
BRANCH   1   4
ATOM      4  C   UNL     1      44.757   6.379  11.686  0.00  0.00    +0.000 A 
ATOM      5  C   UNL     1      44.148   7.589  11.339  0.00  0.00    +0.000 A 
ATOM      6  C   UNL     1      44.836   8.777  11.523  0.00  0.00    +0.000 A 
ATOM      7  N   UNL     1      46.089   8.850  12.016  0.00  0.00    +0.000 NA
ATOM      8  C   UNL     1      46.710   7.683  12.329  0.00  0.00    +0.000 A 
ATOM      9  C   UNL     1      46.067   6.453  12.174  0.00  0.00    +0.000 A 
BRANCH   8  10
ATOM     10  C   UNL     1      48.096   7.768  12.850  0.00  0.00    +0.000 A 
ATOM     11  C   UNL     1      49.135   8.338  12.115  0.00  0.00    +0.000 A 
ATOM     12  C   UNL     1      50.418   8.377  12.657  0.00  0.00    +0.000 A 
ATOM     13  C   UNL     1      50.641   7.849  13.921  0.00  0.00    +0.000 A 
ATOM     14  C   UNL     1      49.565   7.303  14.595  0.00  0.00    +0.000 A 
ATOM     15  N   UNL     1      48.312   7.257  14.098  0.00  0.00    +0.000 NA
ENDBRANCH   8  10
ENDBRANCH   1   4
BRANCH   1  16
ATOM     16  N   UNL     1      43.753   4.659  10.157  0.00  0.00    +0.000 N 
ATOM     17  H   UNL     1      42.791   4.654   9.837  0.00  0.00    +0.000 HD
BRANCH  16  21
ATOM     18  C   UNL     1      46.466   2.462   7.756  0.00  0.00    +0.000 A 
ATOM     19  C   UNL     1      45.602   1.787   8.618  0.00  0.00    +0.000 A 
ATOM     20  C   UNL     1      44.713   2.507   9.421  0.00  0.00    +0.000 A 
ATOM     21  C   UNL     1      44.634   3.903   9.358  0.00  0.00    +0.000 A 
ATOM     22  C   UNL     1      45.552   4.570   8.534  0.00  0.00    +0.000 A 
ATOM     23  C   UNL     1      46.462   3.860   7.740  0.00  0.00    +0.000 A 
BRANCH  18  25
ATOM     24  N   UNL     1      48.515   2.405   6.446  0.00  0.00    +0.000 N 
ATOM     25  C   UNL     1      47.404   1.727   6.870  0.00  0.00    +0.000 C 
ATOM     26  O   UNL     1      47.225   0.557   6.566  0.00  0.00    +0.000 OA
ATOM     27  H   UNL     1      49.204   1.867   5.936  0.00  0.00    +0.000 HD
ATOM     28  H   UNL     1      48.819   3.266   6.877  0.00  0.00    +0.000 HD
ENDBRANCH  18  25
ENDBRANCH  16  21
ENDBRANCH   1  16
TORSDOF 5
ENDMDL
MODEL 4
REMARK VINA RESULT:    -7.313      2.618      7.347
REMARK INTER + INTRA:         -10.362
REMARK INTER:                 -10.239
REMARK INTRA:                  -0.123
REMARK UNBOUND:                -0.912
REMARK  Name = 
REMARK  5 active torsions:
REMARK  status: ('A' for Active; 'I' for Inactive)
REMARK    1  A    between atoms: C_2  and  C_4
REMARK    2  A    between atoms: C_7  and  N_8
REMARK    3  A    between atoms: N_8  and  C_9
REMARK    4  A    between atoms: C_9  and  C_10
REMARK    5  A    between atoms: C_14  and  C_15
REMARK                            x       y       z     vdW  Elec       q    Type
REMARK                         _______ _______ _______ _____ _____    ______ ____
ROOT
ATOM      1  C   UNL     1      46.193   7.494  12.130  0.00  0.00    +0.000 C 
ATOM      2  C   UNL     1      46.134   8.951  11.697  0.00  0.00    +0.000 C 
ATOM      3  C   UNL     1      45.400   8.527  12.921  0.00  0.00    +0.000 C 
ENDROOT
BRANCH   1   4
ATOM      4  C   UNL     1      45.351   6.445  11.414  0.00  0.00    +0.000 A 
ATOM      5  C   UNL     1      43.988   6.287  11.686  0.00  0.00    +0.000 A 
ATOM      6  C   UNL     1      43.255   5.350  10.976  0.00  0.00    +0.000 A 
ATOM      7  N   UNL     1      43.779   4.551  10.024  0.00  0.00    +0.000 NA
ATOM      8  C   UNL     1      45.108   4.667   9.768  0.00  0.00    +0.000 A 
ATOM      9  C   UNL     1      45.899   5.598  10.444  0.00  0.00    +0.000 A 
BRANCH   8  10
ATOM     10  C   UNL     1      45.683   3.771   8.736  0.00  0.00    +0.000 A 
ATOM     11  C   UNL     1      45.705   2.384   8.882  0.00  0.00    +0.000 A 
ATOM     12  C   UNL     1      46.270   1.598   7.880  0.00  0.00    +0.000 A 
ATOM     13  C   UNL     1      46.802   2.207   6.751  0.00  0.00    +0.000 A 
ATOM     14  C   UNL     1      46.744   3.586   6.671  0.00  0.00    +0.000 A 
ATOM     15  N   UNL     1      46.198   4.372   7.623  0.00  0.00    +0.000 NA
ENDBRANCH   8  10
ENDBRANCH   1   4
BRANCH   1  16
ATOM     16  N   UNL     1      47.450   6.966  12.689  0.00  0.00    +0.000 N 
ATOM     17  H   UNL     1      48.267   6.925  12.090  0.00  0.00    +0.000 HD
BRANCH  16  21
ATOM     18  C   UNL     1      47.653   4.388  16.046  0.00  0.00    +0.000 A 
ATOM     19  C   UNL     1      48.322   5.612  16.071  0.00  0.00    +0.000 A 
ATOM     20  C   UNL     1      48.268   6.461  14.963  0.00  0.00    +0.000 A 
ATOM     21  C   UNL     1      47.522   6.135  13.825  0.00  0.00    +0.000 A 
ATOM     22  C   UNL     1      46.907   4.875  13.789  0.00  0.00    +0.000 A 
ATOM     23  C   UNL     1      46.972   4.006  14.887  0.00  0.00    +0.000 A 
BRANCH  18  25
ATOM     24  N   UNL     1      48.831   3.406  17.934  0.00  0.00    +0.000 N 
ATOM     25  C   UNL     1      47.668   3.474  17.216  0.00  0.00    +0.000 C 
ATOM     26  O   UNL     1      46.677   2.843  17.556  0.00  0.00    +0.000 OA
ATOM     27  H   UNL     1      48.800   2.868  18.791  0.00  0.00    +0.000 HD
ATOM     28  H   UNL     1      49.566   4.091  17.838  0.00  0.00    +0.000 HD
ENDBRANCH  18  25
ENDBRANCH  16  21
ENDBRANCH   1  16
TORSDOF 5
ENDMDL
MODEL 5
REMARK VINA RESULT:    -7.204      1.373      2.057
REMARK INTER + INTRA:         -10.222
REMARK INTER:                 -10.322
REMARK INTRA:                   0.100
REMARK UNBOUND:                -0.912
REMARK  Name = 
REMARK  5 active torsions:
REMARK  status: ('A' for Active; 'I' for Inactive)
REMARK    1  A    between atoms: C_2  and  C_4
REMARK    2  A    between atoms: C_7  and  N_8
REMARK    3  A    between atoms: N_8  and  C_9
REMARK    4  A    between atoms: C_9  and  C_10
REMARK    5  A    between atoms: C_14  and  C_15
REMARK                            x       y       z     vdW  Elec       q    Type
REMARK                         _______ _______ _______ _____ _____    ______ ____
ROOT
ATOM      1  C   UNL     1      44.929   5.916  11.234  0.00  0.00    +0.000 C 
ATOM      2  C   UNL     1      44.271   7.250  11.551  0.00  0.00    +0.000 C 
ATOM      3  C   UNL     1      45.556   7.235  10.801  0.00  0.00    +0.000 C 
ENDROOT
BRANCH   1   4
ATOM      4  C   UNL     1      45.696   5.161  12.313  0.00  0.00    +0.000 A 
ATOM      5  C   UNL     1      45.588   3.774  12.458  0.00  0.00    +0.000 A 
ATOM      6  C   UNL     1      46.341   3.129  13.424  0.00  0.00    +0.000 A 
ATOM      7  N   UNL     1      47.185   3.760  14.266  0.00  0.00    +0.000 NA
ATOM      8  C   UNL     1      47.280   5.112  14.162  0.00  0.00    +0.000 A 
ATOM      9  C   UNL     1      46.553   5.820  13.202  0.00  0.00    +0.000 A 
BRANCH   8  10
ATOM     10  C   UNL     1      48.193   5.804  15.103  0.00  0.00    +0.000 A 
ATOM     11  C   UNL     1      48.602   7.123  14.912  0.00  0.00    +0.000 A 
ATOM     12  C   UNL     1      49.470   7.712  15.829  0.00  0.00    +0.000 A 
ATOM     13  C   UNL     1      49.914   6.977  16.919  0.00  0.00    +0.000 A 
ATOM     14  C   UNL     1      49.466   5.675  17.049  0.00  0.00    +0.000 A 
ATOM     15  N   UNL     1      48.621   5.081  16.180  0.00  0.00    +0.000 NA
ENDBRANCH   8  10
ENDBRANCH   1   4
BRANCH   1  16
ATOM     16  N   UNL     1      44.316   5.041  10.219  0.00  0.00    +0.000 N 
ATOM     17  H   UNL     1      43.341   4.784  10.327  0.00  0.00    +0.000 HD
BRANCH  16  21
ATOM     18  C   UNL     1      46.582   2.582   7.617  0.00  0.00    +0.000 A 
ATOM     19  C   UNL     1      45.740   1.997   8.562  0.00  0.00    +0.000 A 
ATOM     20  C   UNL     1      44.998   2.804   9.431  0.00  0.00    +0.000 A 
ATOM     21  C   UNL     1      45.046   4.200   9.356  0.00  0.00    +0.000 A 
ATOM     22  C   UNL     1      45.944   4.772   8.443  0.00  0.00    +0.000 A 
ATOM     23  C   UNL     1      46.708   3.973   7.581  0.00  0.00    +0.000 A 
BRANCH  18  25
ATOM     24  N   UNL     1      48.299   2.406   5.902  0.00  0.00    +0.000 N 
ATOM     25  C   UNL     1      47.363   1.756   6.661  0.00  0.00    +0.000 C 
ATOM     26  O   UNL     1      47.217   0.545   6.583  0.00  0.00    +0.000 OA
ATOM     27  H   UNL     1      48.902   1.823   5.335  0.00  0.00    +0.000 HD
ATOM     28  H   UNL     1      48.619   3.338   6.121  0.00  0.00    +0.000 HD
ENDBRANCH  18  25
ENDBRANCH  16  21
ENDBRANCH   1  16
TORSDOF 5
ENDMDL
MODEL 6
REMARK VINA RESULT:    -7.042      3.201      6.964
REMARK INTER + INTRA:         -10.013
REMARK INTER:                  -9.090
REMARK INTRA:                  -0.923
REMARK UNBOUND:                -0.912
REMARK  Name = 
REMARK  5 active torsions:
REMARK  status: ('A' for Active; 'I' for Inactive)
REMARK    1  A    between atoms: C_2  and  C_4
REMARK    2  A    between atoms: C_7  and  N_8
REMARK    3  A    between atoms: N_8  and  C_9
REMARK    4  A    between atoms: C_9  and  C_10
REMARK    5  A    between atoms: C_14  and  C_15
REMARK                            x       y       z     vdW  Elec       q    Type
REMARK                         _______ _______ _______ _____ _____    ______ ____
ROOT
ATOM      1  C   UNL     1      43.717   5.969  11.813  0.00  0.00    +0.000 C 
ATOM      2  C   UNL     1      43.334   7.103  10.875  0.00  0.00    +0.000 C 
ATOM      3  C   UNL     1      42.295   6.514  11.762  0.00  0.00    +0.000 C 
ENDROOT
BRANCH   1   4
ATOM      4  C   UNL     1      43.883   4.551  11.278  0.00  0.00    +0.000 A 
ATOM      5  C   UNL     1      43.238   3.461  11.872  0.00  0.00    +0.000 A 
ATOM      6  C   UNL     1      43.385   2.199  11.321  0.00  0.00    +0.000 A 
ATOM      7  N   UNL     1      44.134   1.938  10.230  0.00  0.00    +0.000 NA
ATOM      8  C   UNL     1      44.794   2.979   9.658  0.00  0.00    +0.000 A 
ATOM      9  C   UNL     1      44.681   4.276  10.161  0.00  0.00    +0.000 A 
BRANCH   8  10
ATOM     10  C   UNL     1      45.634   2.682   8.472  0.00  0.00    +0.000 A 
ATOM     11  C   UNL     1      45.881   3.628   7.477  0.00  0.00    +0.000 A 
ATOM     12  C   UNL     1      46.670   3.282   6.383  0.00  0.00    +0.000 A 
ATOM     13  C   UNL     1      47.200   2.001   6.300  0.00  0.00    +0.000 A 
ATOM     14  C   UNL     1      46.917   1.115   7.323  0.00  0.00    +0.000 A 
ATOM     15  N   UNL     1      46.162   1.424   8.397  0.00  0.00    +0.000 NA
ENDBRANCH   8  10
ENDBRANCH   1   4
BRANCH   1  16
ATOM     16  N   UNL     1      44.561   6.265  12.983  0.00  0.00    +0.000 N 
ATOM     17  H   UNL     1      44.111   6.414  13.880  0.00  0.00    +0.000 HD
BRANCH  16  21
ATOM     18  C   UNL     1      48.540   7.693  12.703  0.00  0.00    +0.000 A 
ATOM     19  C   UNL     1      47.477   8.593  12.645  0.00  0.00    +0.000 A 
ATOM     20  C   UNL     1      46.162   8.127  12.726  0.00  0.00    +0.000 A 
ATOM     21  C   UNL     1      45.875   6.769  12.903  0.00  0.00    +0.000 A 
ATOM     22  C   UNL     1      46.951   5.870  12.895  0.00  0.00    +0.000 A 
ATOM     23  C   UNL     1      48.274   6.324  12.794  0.00  0.00    +0.000 A 
BRANCH  18  25
ATOM     24  N   UNL     1      50.793   7.696  13.621  0.00  0.00    +0.000 N 
ATOM     25  C   UNL     1      49.950   8.157  12.646  0.00  0.00    +0.000 C 
ATOM     26  O   UNL     1      50.359   8.878  11.748  0.00  0.00    +0.000 OA
ATOM     27  H   UNL     1      51.773   7.925  13.515  0.00  0.00    +0.000 HD
ATOM     28  H   UNL     1      50.558   6.913  14.213  0.00  0.00    +0.000 HD
ENDBRANCH  18  25
ENDBRANCH  16  21
ENDBRANCH   1  16
TORSDOF 5
ENDMDL
MODEL 7
REMARK VINA RESULT:    -6.995      2.765      7.544
REMARK INTER + INTRA:          -9.951
REMARK INTER:                  -9.745
REMARK INTRA:                  -0.206
REMARK UNBOUND:                -0.912
REMARK  Name = 
REMARK  5 active torsions:
REMARK  status: ('A' for Active; 'I' for Inactive)
REMARK    1  A    between atoms: C_2  and  C_4
REMARK    2  A    between atoms: C_7  and  N_8
REMARK    3  A    between atoms: N_8  and  C_9
REMARK    4  A    between atoms: C_9  and  C_10
REMARK    5  A    between atoms: C_14  and  C_15
REMARK                            x       y       z     vdW  Elec       q    Type
REMARK                         _______ _______ _______ _____ _____    ______ ____
ROOT
ATOM      1  C   UNL     1      45.483   6.365  11.862  0.00  0.00    +0.000 C 
ATOM      2  C   UNL     1      44.917   7.701  11.407  0.00  0.00    +0.000 C 
ATOM      3  C   UNL     1      44.433   7.104  12.682  0.00  0.00    +0.000 C 
ENDROOT
BRANCH   1   4
ATOM      4  C   UNL     1      45.003   5.068  11.221  0.00  0.00    +0.000 A 
ATOM      5  C   UNL     1      43.890   4.374  11.708  0.00  0.00    +0.000 A 
ATOM      6  C   UNL     1      43.466   3.225  11.062  0.00  0.00    +0.000 A 
ATOM      7  N   UNL     1      44.072   2.707   9.975  0.00  0.00    +0.000 NA
ATOM      8  C   UNL     1      45.174   3.348   9.505  0.00  0.00    +0.000 A 
ATOM      9  C   UNL     1      45.647   4.516  10.107  0.00  0.00    +0.000 A 
BRANCH   8  10
ATOM     10  C   UNL     1      45.849   2.762   8.322  0.00  0.00    +0.000 A 
ATOM     11  C   UNL     1      46.106   3.501   7.167  0.00  0.00    +0.000 A 
ATOM     12  C   UNL     1      46.735   2.888   6.086  0.00  0.00    +0.000 A 
ATOM     13  C   UNL     1      47.097   1.550   6.175  0.00  0.00    +0.000 A 
ATOM     14  C   UNL     1      46.814   0.879   7.350  0.00  0.00    +0.000 A 
ATOM     15  N   UNL     1      46.212   1.449   8.415  0.00  0.00    +0.000 NA
ENDBRANCH   8  10
ENDBRANCH   1   4
BRANCH   1  16
ATOM     16  N   UNL     1      46.872   6.306  12.351  0.00  0.00    +0.000 N 
ATOM     17  H   UNL     1      47.625   6.326  11.672  0.00  0.00    +0.000 HD
BRANCH  16  21
ATOM     18  C   UNL     1      48.006   4.909  16.186  0.00  0.00    +0.000 A 
ATOM     19  C   UNL     1      47.125   4.158  15.409  0.00  0.00    +0.000 A 
ATOM     20  C   UNL     1      46.738   4.619  14.148  0.00  0.00    +0.000 A 
ATOM     21  C   UNL     1      47.244   5.810  13.616  0.00  0.00    +0.000 A 
ATOM     22  C   UNL     1      48.079   6.585  14.434  0.00  0.00    +0.000 A 
ATOM     23  C   UNL     1      48.457   6.143  15.710  0.00  0.00    +0.000 A 
BRANCH  18  25
ATOM     24  N   UNL     1      47.540   4.471  18.534  0.00  0.00    +0.000 N 
ATOM     25  C   UNL     1      48.458   4.436  17.520  0.00  0.00    +0.000 C 
ATOM     26  O   UNL     1      49.582   3.990  17.701  0.00  0.00    +0.000 OA
ATOM     27  H   UNL     1      47.819   4.046  19.409  0.00  0.00    +0.000 HD
ATOM     28  H   UNL     1      46.551   4.586  18.364  0.00  0.00    +0.000 HD
ENDBRANCH  18  25
ENDBRANCH  16  21
ENDBRANCH   1  16
TORSDOF 5
ENDMDL
MODEL 8
REMARK VINA RESULT:    -6.825      3.078      7.507
REMARK INTER + INTRA:          -9.732
REMARK INTER:                  -9.369
REMARK INTRA:                  -0.363
REMARK UNBOUND:                -0.912
REMARK  Name = 
REMARK  5 active torsions:
REMARK  status: ('A' for Active; 'I' for Inactive)
REMARK    1  A    between atoms: C_2  and  C_4
REMARK    2  A    between atoms: C_7  and  N_8
REMARK    3  A    between atoms: N_8  and  C_9
REMARK    4  A    between atoms: C_9  and  C_10
REMARK    5  A    between atoms: C_14  and  C_15
REMARK                            x       y       z     vdW  Elec       q    Type
REMARK                         _______ _______ _______ _____ _____    ______ ____
ROOT
ATOM      1  C   UNL     1      48.648   7.863  12.718  0.00  0.00    +0.000 C 
ATOM      2  C   UNL     1      49.831   7.475  11.845  0.00  0.00    +0.000 C 
ATOM      3  C   UNL     1      49.402   8.899  11.894  0.00  0.00    +0.000 C 
ENDROOT
BRANCH   1   4
ATOM      4  C   UNL     1      47.224   7.581  12.252  0.00  0.00    +0.000 A 
ATOM      5  C   UNL     1      46.170   8.453  12.543  0.00  0.00    +0.000 A 
ATOM      6  C   UNL     1      44.903   8.176  12.058  0.00  0.00    +0.000 A 
ATOM      7  N   UNL     1      44.603   7.091  11.315  0.00  0.00    +0.000 NA
ATOM      8  C   UNL     1      45.607   6.216  11.048  0.00  0.00    +0.000 A 
ATOM      9  C   UNL     1      46.908   6.442  11.502  0.00  0.00    +0.000 A 
BRANCH   8  10
ATOM     10  C   UNL     1      45.267   5.014  10.249  0.00  0.00    +0.000 A 
ATOM     11  C   UNL     1      45.670   4.862   8.922  0.00  0.00    +0.000 A 
ATOM     12  C   UNL     1      45.308   3.712   8.223  0.00  0.00    +0.000 A 
ATOM     13  C   UNL     1      44.553   2.736   8.858  0.00  0.00    +0.000 A 
ATOM     14  C   UNL     1      44.191   2.950  10.175  0.00  0.00    +0.000 A 
ATOM     15  N   UNL     1      44.532   4.050  10.878  0.00  0.00    +0.000 NA
ENDBRANCH   8  10
ENDBRANCH   1   4
BRANCH   1  16
ATOM     16  N   UNL     1      48.807   7.850  14.182  0.00  0.00    +0.000 N 
ATOM     17  H   UNL     1      49.445   8.514  14.606  0.00  0.00    +0.000 HD
BRANCH  16  21
ATOM     18  C   UNL     1      47.848   4.602  16.729  0.00  0.00    +0.000 A 
ATOM     19  C   UNL     1      47.391   4.606  15.411  0.00  0.00    +0.000 A 
ATOM     20  C   UNL     1      47.695   5.680  14.570  0.00  0.00    +0.000 A 
ATOM     21  C   UNL     1      48.486   6.749  15.003  0.00  0.00    +0.000 A 
ATOM     22  C   UNL     1      48.885   6.761  16.347  0.00  0.00    +0.000 A 
ATOM     23  C   UNL     1      48.569   5.700  17.206  0.00  0.00    +0.000 A 
BRANCH  18  25
ATOM     24  N   UNL     1      48.431   3.280  18.686  0.00  0.00    +0.000 N 
ATOM     25  C   UNL     1      47.567   3.464  17.642  0.00  0.00    +0.000 C 
ATOM     26  O   UNL     1      46.585   2.750  17.501  0.00  0.00    +0.000 OA
ATOM     27  H   UNL     1      48.174   2.576  19.365  0.00  0.00    +0.000 HD
ATOM     28  H   UNL     1      49.089   3.990  18.975  0.00  0.00    +0.000 HD
ENDBRANCH  18  25
ENDBRANCH  16  21
ENDBRANCH   1  16
TORSDOF 5
ENDMDL
MODEL 9
REMARK VINA RESULT:    -6.626      2.810      4.514
REMARK INTER + INTRA:          -9.475
REMARK INTER:                  -8.866
REMARK INTRA:                  -0.610
REMARK UNBOUND:                -0.912
REMARK  Name = 
REMARK  5 active torsions:
REMARK  status: ('A' for Active; 'I' for Inactive)
REMARK    1  A    between atoms: C_2  and  C_4
REMARK    2  A    between atoms: C_7  and  N_8
REMARK    3  A    between atoms: N_8  and  C_9
REMARK    4  A    between atoms: C_9  and  C_10
REMARK    5  A    between atoms: C_14  and  C_15
REMARK                            x       y       z     vdW  Elec       q    Type
REMARK                         _______ _______ _______ _____ _____    ______ ____
ROOT
ATOM      1  C   UNL     1      47.837   8.111  12.613  0.00  0.00    +0.000 C 
ATOM      2  C   UNL     1      48.666   9.059  11.760  0.00  0.00    +0.000 C 
ATOM      3  C   UNL     1      48.879   7.591  11.631  0.00  0.00    +0.000 C 
ENDROOT
BRANCH   1   4
ATOM      4  C   UNL     1      48.178   7.904  14.084  0.00  0.00    +0.000 A 
ATOM      5  C   UNL     1      48.406   8.982  14.945  0.00  0.00    +0.000 A 
ATOM      6  C   UNL     1      48.667   8.742  16.284  0.00  0.00    +0.000 A 
ATOM      7  N   UNL     1      48.732   7.510  16.828  0.00  0.00    +0.000 NA
ATOM      8  C   UNL     1      48.545   6.448  16.002  0.00  0.00    +0.000 A 
ATOM      9  C   UNL     1      48.269   6.624  14.644  0.00  0.00    +0.000 A 
BRANCH   8  10
ATOM     10  C   UNL     1      48.638   5.095  16.601  0.00  0.00    +0.000 A 
ATOM     11  C   UNL     1      47.524   4.271  16.760  0.00  0.00    +0.000 A 
ATOM     12  C   UNL     1      47.677   3.014  17.340  0.00  0.00    +0.000 A 
ATOM     13  C   UNL     1      48.937   2.601  17.752  0.00  0.00    +0.000 A 
ATOM     14  C   UNL     1      49.998   3.467  17.561  0.00  0.00    +0.000 A 
ATOM     15  N   UNL     1      49.880   4.687  16.997  0.00  0.00    +0.000 NA
ENDBRANCH   8  10
ENDBRANCH   1   4
BRANCH   1  16
ATOM     16  N   UNL     1      46.406   7.940  12.306  0.00  0.00    +0.000 N 
ATOM     17  H   UNL     1      45.752   8.637  12.643  0.00  0.00    +0.000 HD
BRANCH  16  21
ATOM     18  C   UNL     1      44.563   4.250  11.339  0.00  0.00    +0.000 A 
ATOM     19  C   UNL     1      45.179   4.999  10.337  0.00  0.00    +0.000 A 
ATOM     20  C   UNL     1      45.779   6.222  10.648  0.00  0.00    +0.000 A 
ATOM     21  C   UNL     1      45.814   6.709  11.959  0.00  0.00    +0.000 A 
ATOM     22  C   UNL     1      45.136   5.976  12.943  0.00  0.00    +0.000 A 
ATOM     23  C   UNL     1      44.513   4.758  12.640  0.00  0.00    +0.000 A 
BRANCH  18  25
ATOM     24  N   UNL     1      44.506   2.186  10.052  0.00  0.00    +0.000 N 
ATOM     25  C   UNL     1      43.939   2.933  11.048  0.00  0.00    +0.000 C 
ATOM     26  O   UNL     1      42.992   2.509  11.696  0.00  0.00    +0.000 OA
ATOM     27  H   UNL     1      44.147   1.247   9.934  0.00  0.00    +0.000 HD
ATOM     28  H   UNL     1      45.424   2.386   9.682  0.00  0.00    +0.000 HD
ENDBRANCH  18  25
ENDBRANCH  16  21
ENDBRANCH   1  16
TORSDOF 5
ENDMDL
