MODEL 1
REMARK VINA RESULT:    -9.296      0.000      0.000
REMARK INTER + INTRA:         -14.611
REMARK INTER:                 -13.100
REMARK INTRA:                  -1.511
REMARK UNBOUND:                -1.511
REMARK  Name = 
REMARK  7 active torsions:
REMARK  status: ('A' for Active; 'I' for Inactive)
REMARK    1  A    between atoms: C_2  and  C_4
REMARK    2  A    between atoms: C_7  and  N_8
REMARK    3  A    between atoms: N_8  and  C_9
REMARK    4  A    between atoms: C_9  and  C_10
REMARK    5  A    between atoms: C_10  and  C_13
REMARK    6  A    between atoms: C_17  and  C_18
REMARK    7  A    between atoms: C_22  and  C_23
REMARK                            x       y       z     vdW  Elec       q    Type
REMARK                         _______ _______ _______ _____ _____    ______ ____
ROOT
ATOM      1  C   UNL     1      43.340   5.478  12.254  0.00  0.00    +0.000 C 
ATOM      2  F   UNL     1      42.899   6.698  11.831  0.00  0.00    +0.000 F 
ATOM      3  F   UNL     1      42.523   5.142  13.301  0.00  0.00    +0.000 F 
ENDROOT
BRANCH   1   4
ATOM      4  C   UNL     1      44.802   5.521  12.656  0.00  0.00    +0.000 A 
ATOM      5  C   UNL     1      45.400   4.427  13.303  0.00  0.00    +0.000 A 
ATOM      6  C   UNL     1      46.756   4.455  13.622  0.00  0.00    +0.000 A 
ATOM      7  C   UNL     1      47.534   5.561  13.269  0.00  0.00    +0.000 A 
ATOM      8  C   UNL     1      46.979   6.664  12.597  0.00  0.00    +0.000 A 
ATOM      9  C   UNL     1      45.596   6.627  12.330  0.00  0.00    +0.000 A 
BRANCH   8  10
ATOM     10  C   UNL     1      47.817   7.808  12.167  0.00  0.00    +0.000 A 
ATOM     11  C   UNL     1      47.321   9.123  12.167  0.00  0.00    +0.000 A 
ATOM     12  C   UNL     1      48.110  10.203  11.767  0.00  0.00    +0.000 A 
ATOM     13  C   UNL     1      49.430   9.996  11.385  0.00  0.00    +0.000 A 
ATOM     14  C   UNL     1      49.971   8.708  11.385  0.00  0.00    +0.000 A 
ATOM     15  C   UNL     1      49.147   7.624  11.742  0.00  0.00    +0.000 A 
BRANCH  14  16
ATOM     16  C   UNL     1      51.423   8.468  11.059  0.00  0.00    +0.000 C 
ATOM     17  F   UNL     1      51.641   7.323  10.352  0.00  0.00    +0.000 F 
ATOM     18  F   UNL     1      51.952   9.474  10.306  0.00  0.00    +0.000 F 
ATOM     19  F   UNL     1      52.209   8.380  12.167  0.00  0.00    +0.000 F 
ENDBRANCH  14  16
ENDBRANCH   8  10
ENDBRANCH   1   4
BRANCH   1  20
ATOM     20  C   UNL     1      43.126   4.440  11.120  0.00  0.00    +0.000 C 
BRANCH  20  21
ATOM     21  N   UNL     1      43.713   4.845   9.829  0.00  0.00    +0.000 N 
ATOM     22  H   UNL     1      43.055   5.290   9.189  0.00  0.00    +0.000 HD
BRANCH  21  26
ATOM     23  C   UNL     1      46.429   2.311   7.827  0.00  0.00    +0.000 A 
ATOM     24  C   UNL     1      46.461   3.685   7.581  0.00  0.00    +0.000 A 
ATOM     25  C   UNL     1      45.574   4.537   8.249  0.00  0.00    +0.000 A 
ATOM     26  C   UNL     1      44.664   4.050   9.194  0.00  0.00    +0.000 A 
ATOM     27  C   UNL     1      44.627   2.664   9.407  0.00  0.00    +0.000 A 
ATOM     28  C   UNL     1      45.494   1.799   8.728  0.00  0.00    +0.000 A 
BRANCH  23  30
ATOM     29  N   UNL     1      48.347   1.926   6.380  0.00  0.00    +0.000 N 
ATOM     30  C   UNL     1      47.343   1.373   7.128  0.00  0.00    +0.000 C 
ATOM     31  O   UNL     1      47.238   0.159   7.244  0.00  0.00    +0.000 OA
ATOM     32  H   UNL     1      49.029   1.279   6.006  0.00  0.00    +0.000 HD
ATOM     33  H   UNL     1      48.622   2.892   6.481  0.00  0.00    +0.000 HD
ENDBRANCH  23  30
ENDBRANCH  21  26
ENDBRANCH  20  21
ENDBRANCH   1  20
TORSDOF 7
ENDMDL
MODEL 2
REMARK VINA RESULT:    -9.215      3.512      4.654
REMARK INTER + INTRA:         -14.498
REMARK INTER:                 -13.048
REMARK INTRA:                  -1.449
REMARK UNBOUND:                -1.511
REMARK  Name = 
REMARK  7 active torsions:
REMARK  status: ('A' for Active; 'I' for Inactive)
REMARK    1  A    between atoms: C_2  and  C_4
REMARK    2  A    between atoms: C_7  and  N_8
REMARK    3  A    between atoms: N_8  and  C_9
REMARK    4  A    between atoms: C_9  and  C_10
REMARK    5  A    between atoms: C_10  and  C_13
REMARK    6  A    between atoms: C_17  and  C_18
REMARK    7  A    between atoms: C_22  and  C_23
REMARK                            x       y       z     vdW  Elec       q    Type
REMARK                         _______ _______ _______ _____ _____    ______ ____
ROOT
ATOM      1  C   UNL     1      43.721   4.713  12.380  0.00  0.00    +0.000 C 
ATOM      2  F   UNL     1      42.777   5.523  12.941  0.00  0.00    +0.000 F 
ATOM      3  F   UNL     1      43.632   3.529  13.063  0.00  0.00    +0.000 F 
ENDROOT
BRANCH   1   4
ATOM      4  C   UNL     1      45.106   5.325  12.466  0.00  0.00    +0.000 A 
ATOM      5  C   UNL     1      45.590   6.152  11.439  0.00  0.00    +0.000 A 
ATOM      6  C   UNL     1      46.842   6.751  11.552  0.00  0.00    +0.000 A 
ATOM      7  C   UNL     1      47.609   6.556  12.703  0.00  0.00    +0.000 A 
ATOM      8  C   UNL     1      47.150   5.758  13.765  0.00  0.00    +0.000 A 
ATOM      9  C   UNL     1      45.900   5.127  13.603  0.00  0.00    +0.000 A 
BRANCH   8  10
ATOM     10  C   UNL     1      47.934   5.604  15.012  0.00  0.00    +0.000 A 
ATOM     11  C   UNL     1      48.821   6.602  15.450  0.00  0.00    +0.000 A 
ATOM     12  C   UNL     1      49.559   6.461  16.628  0.00  0.00    +0.000 A 
ATOM     13  C   UNL     1      49.401   5.327  17.415  0.00  0.00    +0.000 A 
ATOM     14  C   UNL     1      48.518   4.316  17.028  0.00  0.00    +0.000 A 
ATOM     15  C   UNL     1      47.821   4.450  15.812  0.00  0.00    +0.000 A 
BRANCH  14  16
ATOM     16  C   UNL     1      48.265   3.117  17.906  0.00  0.00    +0.000 C 
ATOM     17  F   UNL     1      47.067   2.512  17.671  0.00  0.00    +0.000 F 
ATOM     18  F   UNL     1      49.209   2.149  17.736  0.00  0.00    +0.000 F 
ATOM     19  F   UNL     1      48.279   3.420  19.234  0.00  0.00    +0.000 F 
ENDBRANCH  14  16
ENDBRANCH   8  10
ENDBRANCH   1   4
BRANCH   1  20
ATOM     20  C   UNL     1      43.345   4.446  10.898  0.00  0.00    +0.000 C 
BRANCH  20  21
ATOM     21  N   UNL     1      43.765   3.118  10.412  0.00  0.00    +0.000 N 
ATOM     22  H   UNL     1      43.831   2.405  11.139  0.00  0.00    +0.000 HD
BRANCH  21  26
ATOM     23  C   UNL     1      46.564   2.580   7.300  0.00  0.00    +0.000 A 
ATOM     24  C   UNL     1      46.020   3.846   7.524  0.00  0.00    +0.000 A 
ATOM     25  C   UNL     1      45.100   4.040   8.561  0.00  0.00    +0.000 A 
ATOM     26  C   UNL     1      44.729   2.993   9.414  0.00  0.00    +0.000 A 
ATOM     27  C   UNL     1      45.265   1.723   9.156  0.00  0.00    +0.000 A 
ATOM     28  C   UNL     1      46.168   1.512   8.106  0.00  0.00    +0.000 A 
BRANCH  23  30
ATOM     29  N   UNL     1      47.542   3.230   5.168  0.00  0.00    +0.000 N 
ATOM     30  C   UNL     1      47.531   2.332   6.201  0.00  0.00    +0.000 C 
ATOM     31  O   UNL     1      48.315   1.393   6.228  0.00  0.00    +0.000 OA
ATOM     32  H   UNL     1      48.281   3.115   4.488  0.00  0.00    +0.000 HD
ATOM     33  H   UNL     1      47.112   4.141   5.245  0.00  0.00    +0.000 HD
ENDBRANCH  23  30
ENDBRANCH  21  26
ENDBRANCH  20  21
ENDBRANCH   1  20
TORSDOF 7
ENDMDL
MODEL 3
REMARK VINA RESULT:    -8.846      3.250      4.705
REMARK INTER + INTRA:         -13.977
REMARK INTER:                 -12.597
REMARK INTRA:                  -1.380
REMARK UNBOUND:                -1.511
REMARK  Name = 
REMARK  7 active torsions:
REMARK  status: ('A' for Active; 'I' for Inactive)
REMARK    1  A    between atoms: C_2  and  C_4
REMARK    2  A    between atoms: C_7  and  N_8
REMARK    3  A    between atoms: N_8  and  C_9
REMARK    4  A    between atoms: C_9  and  C_10
REMARK    5  A    between atoms: C_10  and  C_13
REMARK    6  A    between atoms: C_17  and  C_18
REMARK    7  A    between atoms: C_22  and  C_23
REMARK                            x       y       z     vdW  Elec       q    Type
REMARK                         _______ _______ _______ _____ _____    ______ ____
ROOT
ATOM      1  C   UNL     1      44.150   4.974  12.427  0.00  0.00    +0.000 C 
ATOM      2  F   UNL     1      43.196   5.431  13.290  0.00  0.00    +0.000 F 
ATOM      3  F   UNL     1      43.971   3.617  12.377  0.00  0.00    +0.000 F 
ENDROOT
BRANCH   1   4
ATOM      4  C   UNL     1      45.546   5.355  12.884  0.00  0.00    +0.000 A 
ATOM      5  C   UNL     1      46.310   6.282  12.158  0.00  0.00    +0.000 A 
ATOM      6  C   UNL     1      47.569   6.665  12.614  0.00  0.00    +0.000 A 
ATOM      7  C   UNL     1      48.064   6.149  13.814  0.00  0.00    +0.000 A 
ATOM      8  C   UNL     1      47.319   5.239  14.585  0.00  0.00    +0.000 A 
ATOM      9  C   UNL     1      46.069   4.835  14.075  0.00  0.00    +0.000 A 
BRANCH   8  10
ATOM     10  C   UNL     1      47.816   4.742  15.889  0.00  0.00    +0.000 A 
ATOM     11  C   UNL     1      47.464   3.470  16.372  0.00  0.00    +0.000 A 
ATOM     12  C   UNL     1      47.935   2.997  17.599  0.00  0.00    +0.000 A 
ATOM     13  C   UNL     1      48.799   3.777  18.360  0.00  0.00    +0.000 A 
ATOM     14  C   UNL     1      49.189   5.041  17.911  0.00  0.00    +0.000 A 
ATOM     15  C   UNL     1      48.664   5.523  16.697  0.00  0.00    +0.000 A 
BRANCH  14  16
ATOM     16  C   UNL     1      50.190   5.870  18.675  0.00  0.00    +0.000 C 
ATOM     17  F   UNL     1      50.287   7.154  18.230  0.00  0.00    +0.000 F 
ATOM     18  F   UNL     1      49.878   5.958  19.999  0.00  0.00    +0.000 F 
ATOM     19  F   UNL     1      51.451   5.358  18.623  0.00  0.00    +0.000 F 
ENDBRANCH  14  16
ENDBRANCH   8  10
ENDBRANCH   1   4
BRANCH   1  20
ATOM     20  C   UNL     1      43.874   5.552  11.013  0.00  0.00    +0.000 C 
BRANCH  20  21
ATOM     21  N   UNL     1      43.567   4.521  10.003  0.00  0.00    +0.000 N 
ATOM     22  H   UNL     1      42.807   3.892  10.262  0.00  0.00    +0.000 HD
BRANCH  21  26
ATOM     23  C   UNL     1      46.497   2.521   7.718  0.00  0.00    +0.000 A 
ATOM     24  C   UNL     1      46.381   3.909   7.625  0.00  0.00    +0.000 A 
ATOM     25  C   UNL     1      45.422   4.585   8.387  0.00  0.00    +0.000 A 
ATOM     26  C   UNL     1      44.584   3.904   9.279  0.00  0.00    +0.000 A 
ATOM     27  C   UNL     1      44.696   2.507   9.338  0.00  0.00    +0.000 A 
ATOM     28  C   UNL     1      45.636   1.818   8.562  0.00  0.00    +0.000 A 
BRANCH  23  30
ATOM     29  N   UNL     1      48.566   2.468   6.439  0.00  0.00    +0.000 N 
ATOM     30  C   UNL     1      47.492   1.767   6.914  0.00  0.00    +0.000 C 
ATOM     31  O   UNL     1      47.385   0.564   6.716  0.00  0.00    +0.000 OA
ATOM     32  H   UNL     1      49.292   1.921   5.995  0.00  0.00    +0.000 HD
ATOM     33  H   UNL     1      48.819   3.374   6.804  0.00  0.00    +0.000 HD
ENDBRANCH  23  30
ENDBRANCH  21  26
ENDBRANCH  20  21
ENDBRANCH   1  20
TORSDOF 7
ENDMDL
MODEL 4
REMARK VINA RESULT:    -8.302      2.984      3.815
REMARK INTER + INTRA:         -13.211
REMARK INTER:                 -11.781
REMARK INTRA:                  -1.430
REMARK UNBOUND:                -1.511
REMARK  Name = 
REMARK  7 active torsions:
REMARK  status: ('A' for Active; 'I' for Inactive)
REMARK    1  A    between atoms: C_2  and  C_4
REMARK    2  A    between atoms: C_7  and  N_8
REMARK    3  A    between atoms: N_8  and  C_9
REMARK    4  A    between atoms: C_9  and  C_10
REMARK    5  A    between atoms: C_10  and  C_13
REMARK    6  A    between atoms: C_17  and  C_18
REMARK    7  A    between atoms: C_22  and  C_23
REMARK                            x       y       z     vdW  Elec       q    Type
REMARK                         _______ _______ _______ _____ _____    ______ ____
ROOT
ATOM      1  C   UNL     1      44.025   4.487  12.503  0.00  0.00    +0.000 C 
ATOM      2  F   UNL     1      43.058   4.617  13.459  0.00  0.00    +0.000 F 
ATOM      3  F   UNL     1      44.716   3.354  12.841  0.00  0.00    +0.000 F 
ENDROOT
BRANCH   1   4
ATOM      4  C   UNL     1      44.921   5.711  12.445  0.00  0.00    +0.000 A 
ATOM      5  C   UNL     1      44.531   6.850  11.723  0.00  0.00    +0.000 A 
ATOM      6  C   UNL     1      45.335   7.987  11.718  0.00  0.00    +0.000 A 
ATOM      7  C   UNL     1      46.520   8.008  12.457  0.00  0.00    +0.000 A 
ATOM      8  C   UNL     1      46.933   6.898  13.214  0.00  0.00    +0.000 A 
ATOM      9  C   UNL     1      46.122   5.746  13.163  0.00  0.00    +0.000 A 
BRANCH   8  10
ATOM     10  C   UNL     1      48.156   6.942  14.049  0.00  0.00    +0.000 A 
ATOM     11  C   UNL     1      49.267   7.720  13.682  0.00  0.00    +0.000 A 
ATOM     12  C   UNL     1      50.420   7.768  14.470  0.00  0.00    +0.000 A 
ATOM     13  C   UNL     1      50.475   7.061  15.665  0.00  0.00    +0.000 A 
ATOM     14  C   UNL     1      49.387   6.287  16.078  0.00  0.00    +0.000 A 
ATOM     15  C   UNL     1      48.253   6.209  15.247  0.00  0.00    +0.000 A 
BRANCH  14  16
ATOM     16  C   UNL     1      49.388   5.580  17.410  0.00  0.00    +0.000 C 
ATOM     17  F   UNL     1      48.480   6.080  18.293  0.00  0.00    +0.000 F 
ATOM     18  F   UNL     1      49.094   4.255  17.286  0.00  0.00    +0.000 F 
ATOM     19  F   UNL     1      50.595   5.636  18.039  0.00  0.00    +0.000 F 
ENDBRANCH  14  16
ENDBRANCH   8  10
ENDBRANCH   1   4
BRANCH   1  20
ATOM     20  C   UNL     1      43.350   4.251  11.126  0.00  0.00    +0.000 C 
BRANCH  20  21
ATOM     21  N   UNL     1      43.754   2.989  10.478  0.00  0.00    +0.000 N 
ATOM     22  H   UNL     1      43.822   2.193  11.113  0.00  0.00    +0.000 HD
BRANCH  21  26
ATOM     23  C   UNL     1      46.518   2.818   7.293  0.00  0.00    +0.000 A 
ATOM     24  C   UNL     1      46.000   4.053   7.689  0.00  0.00    +0.000 A 
ATOM     25  C   UNL     1      45.093   4.124   8.752  0.00  0.00    +0.000 A 
ATOM     26  C   UNL     1      44.708   2.980   9.463  0.00  0.00    +0.000 A 
ATOM     27  C   UNL     1      45.217   1.746   9.033  0.00  0.00    +0.000 A 
ATOM     28  C   UNL     1      46.107   1.660   7.955  0.00  0.00    +0.000 A 
BRANCH  23  30
ATOM     29  N   UNL     1      48.775   2.429   6.472  0.00  0.00    +0.000 N 
ATOM     30  C   UNL     1      47.470   2.700   6.161  0.00  0.00    +0.000 C 
ATOM     31  O   UNL     1      47.107   2.799   4.996  0.00  0.00    +0.000 OA
ATOM     32  H   UNL     1      49.387   2.236   5.690  0.00  0.00    +0.000 HD
ATOM     33  H   UNL     1      49.048   2.080   7.379  0.00  0.00    +0.000 HD
ENDBRANCH  23  30
ENDBRANCH  21  26
ENDBRANCH  20  21
ENDBRANCH   1  20
TORSDOF 7
ENDMDL
MODEL 5
REMARK VINA RESULT:    -8.202      1.480      2.069
REMARK INTER + INTRA:         -13.070
REMARK INTER:                 -11.596
REMARK INTRA:                  -1.473
REMARK UNBOUND:                -1.511
REMARK  Name = 
REMARK  7 active torsions:
REMARK  status: ('A' for Active; 'I' for Inactive)
REMARK    1  A    between atoms: C_2  and  C_4
REMARK    2  A    between atoms: C_7  and  N_8
REMARK    3  A    between atoms: N_8  and  C_9
REMARK    4  A    between atoms: C_9  and  C_10
REMARK    5  A    between atoms: C_10  and  C_13
REMARK    6  A    between atoms: C_17  and  C_18
REMARK    7  A    between atoms: C_22  and  C_23
REMARK                            x       y       z     vdW  Elec       q    Type
REMARK                         _______ _______ _______ _____ _____    ______ ____
ROOT
ATOM      1  C   UNL     1      44.252   4.290  12.358  0.00  0.00    +0.000 C 
ATOM      2  F   UNL     1      43.481   4.268  13.485  0.00  0.00    +0.000 F 
ATOM      3  F   UNL     1      45.236   3.362  12.577  0.00  0.00    +0.000 F 
ENDROOT
BRANCH   1   4
ATOM      4  C   UNL     1      44.814   5.673  12.093  0.00  0.00    +0.000 A 
ATOM      5  C   UNL     1      43.989   6.701  11.608  0.00  0.00    +0.000 A 
ATOM      6  C   UNL     1      44.502   7.982  11.417  0.00  0.00    +0.000 A 
ATOM      7  C   UNL     1      45.834   8.256  11.736  0.00  0.00    +0.000 A 
ATOM      8  C   UNL     1      46.686   7.261  12.248  0.00  0.00    +0.000 A 
ATOM      9  C   UNL     1      46.152   5.965  12.387  0.00  0.00    +0.000 A 
BRANCH   8  10
ATOM     10  C   UNL     1      48.079   7.567  12.647  0.00  0.00    +0.000 A 
ATOM     11  C   UNL     1      48.449   7.679  13.998  0.00  0.00    +0.000 A 
ATOM     12  C   UNL     1      49.764   7.962  14.377  0.00  0.00    +0.000 A 
ATOM     13  C   UNL     1      50.750   8.110  13.408  0.00  0.00    +0.000 A 
ATOM     14  C   UNL     1      50.431   7.991  12.053  0.00  0.00    +0.000 A 
ATOM     15  C   UNL     1      49.093   7.756  11.687  0.00  0.00    +0.000 A 
BRANCH  14  16
ATOM     16  C   UNL     1      51.497   8.061  10.989  0.00  0.00    +0.000 C 
ATOM     17  F   UNL     1      51.330   7.149   9.990  0.00  0.00    +0.000 F 
ATOM     18  F   UNL     1      51.530   9.279  10.377  0.00  0.00    +0.000 F 
ATOM     19  F   UNL     1      52.751   7.857  11.479  0.00  0.00    +0.000 F 
ENDBRANCH  14  16
ENDBRANCH   8  10
ENDBRANCH   1   4
BRANCH   1  20
ATOM     20  C   UNL     1      43.399   3.817  11.151  0.00  0.00    +0.000 C 
BRANCH  20  21
ATOM     21  N   UNL     1      43.891   2.571  10.532  0.00  0.00    +0.000 N 
ATOM     22  H   UNL     1      44.023   1.800  11.186  0.00  0.00    +0.000 HD
BRANCH  21  26
ATOM     23  C   UNL     1      46.616   2.542   7.310  0.00  0.00    +0.000 A 
ATOM     24  C   UNL     1      46.137   3.760   7.794  0.00  0.00    +0.000 A 
ATOM     25  C   UNL     1      45.243   3.783   8.870  0.00  0.00    +0.000 A 
ATOM     26  C   UNL     1      44.834   2.605   9.507  0.00  0.00    +0.000 A 
ATOM     27  C   UNL     1      45.304   1.389   8.989  0.00  0.00    +0.000 A 
ATOM     28  C   UNL     1      46.181   1.353   7.897  0.00  0.00    +0.000 A 
BRANCH  23  30
ATOM     29  N   UNL     1      47.321   3.331   5.118  0.00  0.00    +0.000 N 
ATOM     30  C   UNL     1      47.554   2.475   6.161  0.00  0.00    +0.000 C 
ATOM     31  O   UNL     1      48.519   1.722   6.155  0.00  0.00    +0.000 OA
ATOM     32  H   UNL     1      48.031   3.356   4.398  0.00  0.00    +0.000 HD
ATOM     33  H   UNL     1      46.714   4.132   5.208  0.00  0.00    +0.000 HD
ENDBRANCH  23  30
ENDBRANCH  21  26
ENDBRANCH  20  21
ENDBRANCH   1  20
TORSDOF 7
ENDMDL
MODEL 6
REMARK VINA RESULT:    -8.128      3.558      4.928
REMARK INTER + INTRA:         -12.965
REMARK INTER:                 -11.823
REMARK INTRA:                  -1.142
REMARK UNBOUND:                -1.511
REMARK  Name = 
REMARK  7 active torsions:
REMARK  status: ('A' for Active; 'I' for Inactive)
REMARK    1  A    between atoms: C_2  and  C_4
REMARK    2  A    between atoms: C_7  and  N_8
REMARK    3  A    between atoms: N_8  and  C_9
REMARK    4  A    between atoms: C_9  and  C_10
REMARK    5  A    between atoms: C_10  and  C_13
REMARK    6  A    between atoms: C_17  and  C_18
REMARK    7  A    between atoms: C_22  and  C_23
REMARK                            x       y       z     vdW  Elec       q    Type
REMARK                         _______ _______ _______ _____ _____    ______ ____
ROOT
ATOM      1  C   UNL     1      45.412   5.654  12.145  0.00  0.00    +0.000 C 
ATOM      2  F   UNL     1      44.402   5.875  13.037  0.00  0.00    +0.000 F 
ATOM      3  F   UNL     1      45.591   4.296  12.133  0.00  0.00    +0.000 F 
ENDROOT
BRANCH   1   4
ATOM      4  C   UNL     1      46.675   6.399  12.534  0.00  0.00    +0.000 A 
ATOM      5  C   UNL     1      47.137   7.478  11.764  0.00  0.00    +0.000 A 
ATOM      6  C   UNL     1      48.268   8.189  12.159  0.00  0.00    +0.000 A 
ATOM      7  C   UNL     1      48.930   7.848  13.341  0.00  0.00    +0.000 A 
ATOM      8  C   UNL     1      48.484   6.791  14.154  0.00  0.00    +0.000 A 
ATOM      9  C   UNL     1      47.365   6.062  13.705  0.00  0.00    +0.000 A 
BRANCH   8  10
ATOM     10  C   UNL     1      49.147   6.471  15.439  0.00  0.00    +0.000 A 
ATOM     11  C   UNL     1      50.427   6.963  15.748  0.00  0.00    +0.000 A 
ATOM     12  C   UNL     1      51.053   6.667  16.961  0.00  0.00    +0.000 A 
ATOM     13  C   UNL     1      50.395   5.895  17.912  0.00  0.00    +0.000 A 
ATOM     14  C   UNL     1      49.115   5.398  17.655  0.00  0.00    +0.000 A 
ATOM     15  C   UNL     1      48.520   5.663  16.408  0.00  0.00    +0.000 A 
BRANCH  14  16
ATOM     16  C   UNL     1      48.347   4.632  18.703  0.00  0.00    +0.000 C 
ATOM     17  F   UNL     1      49.109   4.247  19.764  0.00  0.00    +0.000 F 
ATOM     18  F   UNL     1      47.325   5.366  19.227  0.00  0.00    +0.000 F 
ATOM     19  F   UNL     1      47.778   3.494  18.217  0.00  0.00    +0.000 F 
ENDBRANCH  14  16
ENDBRANCH   8  10
ENDBRANCH   1   4
BRANCH   1  20
ATOM     20  C   UNL     1      44.945   6.094  10.731  0.00  0.00    +0.000 C 
BRANCH  20  21
ATOM     21  N   UNL     1      44.148   5.071  10.028  0.00  0.00    +0.000 N 
ATOM     22  H   UNL     1      43.295   4.795  10.514  0.00  0.00    +0.000 HD
BRANCH  21  26
ATOM     23  C   UNL     1      46.216   1.991   8.017  0.00  0.00    +0.000 A 
ATOM     24  C   UNL     1      45.236   1.663   8.955  0.00  0.00    +0.000 A 
ATOM     25  C   UNL     1      44.534   2.675   9.619  0.00  0.00    +0.000 A 
ATOM     26  C   UNL     1      44.766   4.028   9.343  0.00  0.00    +0.000 A 
ATOM     27  C   UNL     1      45.774   4.339   8.418  0.00  0.00    +0.000 A 
ATOM     28  C   UNL     1      46.499   3.334   7.764  0.00  0.00    +0.000 A 
BRANCH  23  30
ATOM     29  N   UNL     1      46.714  -0.357   7.616  0.00  0.00    +0.000 N 
ATOM     30  C   UNL     1      46.992   0.946   7.303  0.00  0.00    +0.000 C 
ATOM     31  O   UNL     1      47.816   1.226   6.442  0.00  0.00    +0.000 OA
ATOM     32  H   UNL     1      47.164  -1.057   7.041  0.00  0.00    +0.000 HD
ATOM     33  H   UNL     1      45.873  -0.622   8.107  0.00  0.00    +0.000 HD
ENDBRANCH  23  30
ENDBRANCH  21  26
ENDBRANCH  20  21
ENDBRANCH   1  20
TORSDOF 7
ENDMDL
MODEL 7
REMARK VINA RESULT:    -8.085      1.507      2.717
REMARK INTER + INTRA:         -12.904
REMARK INTER:                 -11.586
REMARK INTRA:                  -1.318
REMARK UNBOUND:                -1.511
REMARK  Name = 
REMARK  7 active torsions:
REMARK  status: ('A' for Active; 'I' for Inactive)
REMARK    1  A    between atoms: C_2  and  C_4
REMARK    2  A    between atoms: C_7  and  N_8
REMARK    3  A    between atoms: N_8  and  C_9
REMARK    4  A    between atoms: C_9  and  C_10
REMARK    5  A    between atoms: C_10  and  C_13
REMARK    6  A    between atoms: C_17  and  C_18
REMARK    7  A    between atoms: C_22  and  C_23
REMARK                            x       y       z     vdW  Elec       q    Type
REMARK                         _______ _______ _______ _____ _____    ______ ____
ROOT
ATOM      1  C   UNL     1      45.424   5.966  12.101  0.00  0.00    +0.000 C 
ATOM      2  F   UNL     1      44.733   5.824  13.270  0.00  0.00    +0.000 F 
ATOM      3  F   UNL     1      46.245   4.872  12.032  0.00  0.00    +0.000 F 
ENDROOT
BRANCH   1   4
ATOM      4  C   UNL     1      46.198   7.270  12.064  0.00  0.00    +0.000 A 
ATOM      5  C   UNL     1      45.536   8.500  12.206  0.00  0.00    +0.000 A 
ATOM      6  C   UNL     1      46.261   9.690  12.222  0.00  0.00    +0.000 A 
ATOM      7  C   UNL     1      47.654   9.660  12.128  0.00  0.00    +0.000 A 
ATOM      8  C   UNL     1      48.357   8.448  12.012  0.00  0.00    +0.000 A 
ATOM      9  C   UNL     1      47.594   7.265  11.951  0.00  0.00    +0.000 A 
BRANCH   8  10
ATOM     10  C   UNL     1      49.837   8.412  11.977  0.00  0.00    +0.000 A 
ATOM     11  C   UNL     1      50.610   8.987  13.000  0.00  0.00    +0.000 A 
ATOM     12  C   UNL     1      52.006   8.951  12.972  0.00  0.00    +0.000 A 
ATOM     13  C   UNL     1      52.664   8.307  11.931  0.00  0.00    +0.000 A 
ATOM     14  C   UNL     1      51.936   7.707  10.900  0.00  0.00    +0.000 A 
ATOM     15  C   UNL     1      50.532   7.797  10.917  0.00  0.00    +0.000 A 
BRANCH  14  16
ATOM     16  C   UNL     1      52.623   6.929   9.806  0.00  0.00    +0.000 C 
ATOM     17  F   UNL     1      51.926   6.905   8.635  0.00  0.00    +0.000 F 
ATOM     18  F   UNL     1      53.846   7.447   9.499  0.00  0.00    +0.000 F 
ATOM     19  F   UNL     1      52.843   5.627  10.138  0.00  0.00    +0.000 F 
ENDBRANCH  14  16
ENDBRANCH   8  10
ENDBRANCH   1   4
BRANCH   1  20
ATOM     20  C   UNL     1      44.428   5.899  10.912  0.00  0.00    +0.000 C 
BRANCH  20  21
ATOM     21  N   UNL     1      44.055   4.524  10.530  0.00  0.00    +0.000 N 
ATOM     22  H   UNL     1      43.715   3.951  11.303  0.00  0.00    +0.000 HD
BRANCH  21  26
ATOM     23  C   UNL     1      46.491   2.482   7.755  0.00  0.00    +0.000 A 
ATOM     24  C   UNL     1      45.694   1.752   8.638  0.00  0.00    +0.000 A 
ATOM     25  C   UNL     1      44.872   2.417   9.555  0.00  0.00    +0.000 A 
ATOM     26  C   UNL     1      44.800   3.815   9.591  0.00  0.00    +0.000 A 
ATOM     27  C   UNL     1      45.629   4.532   8.715  0.00  0.00    +0.000 A 
ATOM     28  C   UNL     1      46.472   3.876   7.809  0.00  0.00    +0.000 A 
BRANCH  23  30
ATOM     29  N   UNL     1      48.420   2.553   6.274  0.00  0.00    +0.000 N 
ATOM     30  C   UNL     1      47.387   1.812   6.779  0.00  0.00    +0.000 C 
ATOM     31  O   UNL     1      47.241   0.637   6.467  0.00  0.00    +0.000 OA
ATOM     32  H   UNL     1      49.088   2.051   5.702  0.00  0.00    +0.000 HD
ATOM     33  H   UNL     1      48.724   3.413   6.705  0.00  0.00    +0.000 HD
ENDBRANCH  23  30
ENDBRANCH  21  26
ENDBRANCH  20  21
ENDBRANCH   1  20
TORSDOF 7
ENDMDL
MODEL 8
REMARK VINA RESULT:    -7.845      4.077      7.840
REMARK INTER + INTRA:         -12.566
REMARK INTER:                 -11.014
REMARK INTRA:                  -1.552
REMARK UNBOUND:                -1.511
REMARK  Name = 
REMARK  7 active torsions:
REMARK  status: ('A' for Active; 'I' for Inactive)
REMARK    1  A    between atoms: C_2  and  C_4
REMARK    2  A    between atoms: C_7  and  N_8
REMARK    3  A    between atoms: N_8  and  C_9
REMARK    4  A    between atoms: C_9  and  C_10
REMARK    5  A    between atoms: C_10  and  C_13
REMARK    6  A    between atoms: C_17  and  C_18
REMARK    7  A    between atoms: C_22  and  C_23
REMARK                            x       y       z     vdW  Elec       q    Type
REMARK                         _______ _______ _______ _____ _____    ______ ____
ROOT
ATOM      1  C   UNL     1      49.092   8.151  11.914  0.00  0.00    +0.000 C 
ATOM      2  F   UNL     1      49.488   9.457  11.970  0.00  0.00    +0.000 F 
ATOM      3  F   UNL     1      49.592   7.674  10.731  0.00  0.00    +0.000 F 
ENDROOT
BRANCH   1   4
ATOM      4  C   UNL     1      47.583   8.020  11.995  0.00  0.00    +0.000 A 
ATOM      5  C   UNL     1      46.771   9.158  12.132  0.00  0.00    +0.000 A 
ATOM      6  C   UNL     1      45.385   9.032  12.155  0.00  0.00    +0.000 A 
ATOM      7  C   UNL     1      44.795   7.774  12.009  0.00  0.00    +0.000 A 
ATOM      8  C   UNL     1      45.571   6.614  11.843  0.00  0.00    +0.000 A 
ATOM      9  C   UNL     1      46.971   6.767  11.871  0.00  0.00    +0.000 A 
BRANCH   8  10
ATOM     10  C   UNL     1      44.945   5.290  11.625  0.00  0.00    +0.000 A 
ATOM     11  C   UNL     1      44.016   4.757  12.535  0.00  0.00    +0.000 A 
ATOM     12  C   UNL     1      43.421   3.510  12.329  0.00  0.00    +0.000 A 
ATOM     13  C   UNL     1      43.717   2.779  11.185  0.00  0.00    +0.000 A 
ATOM     14  C   UNL     1      44.622   3.277  10.244  0.00  0.00    +0.000 A 
ATOM     15  C   UNL     1      45.252   4.510  10.492  0.00  0.00    +0.000 A 
BRANCH  14  16
ATOM     16  C   UNL     1      44.895   2.543   8.955  0.00  0.00    +0.000 C 
ATOM     17  F   UNL     1      44.345   3.141   7.861  0.00  0.00    +0.000 F 
ATOM     18  F   UNL     1      46.230   2.447   8.693  0.00  0.00    +0.000 F 
ATOM     19  F   UNL     1      44.424   1.266   8.961  0.00  0.00    +0.000 F 
ENDBRANCH  14  16
ENDBRANCH   8  10
ENDBRANCH   1   4
BRANCH   1  20
ATOM     20  C   UNL     1      49.762   7.368  13.074  0.00  0.00    +0.000 C 
BRANCH  20  21
ATOM     21  N   UNL     1      49.230   7.714  14.405  0.00  0.00    +0.000 N 
ATOM     22  H   UNL     1      49.710   8.491  14.861  0.00  0.00    +0.000 HD
BRANCH  21  26
ATOM     23  C   UNL     1      48.003   4.560  16.926  0.00  0.00    +0.000 A 
ATOM     24  C   UNL     1      48.924   5.498  17.396  0.00  0.00    +0.000 A 
ATOM     25  C   UNL     1      49.329   6.556  16.575  0.00  0.00    +0.000 A 
ATOM     26  C   UNL     1      48.806   6.723  15.287  0.00  0.00    +0.000 A 
ATOM     27  C   UNL     1      47.904   5.755  14.821  0.00  0.00    +0.000 A 
ATOM     28  C   UNL     1      47.509   4.679  15.626  0.00  0.00    +0.000 A 
BRANCH  23  30
ATOM     29  N   UNL     1      48.311   3.129  18.870  0.00  0.00    +0.000 N 
ATOM     30  C   UNL     1      47.561   3.416  17.762  0.00  0.00    +0.000 C 
ATOM     31  O   UNL     1      46.549   2.778  17.503  0.00  0.00    +0.000 OA
ATOM     32  H   UNL     1      47.934   2.426  19.491  0.00  0.00    +0.000 HD
ATOM     33  H   UNL     1      48.974   3.787  19.253  0.00  0.00    +0.000 HD
ENDBRANCH  23  30
ENDBRANCH  21  26
ENDBRANCH  20  21
ENDBRANCH   1  20
TORSDOF 7
ENDMDL
MODEL 9
REMARK VINA RESULT:    -7.504      5.379      8.438
REMARK INTER + INTRA:         -12.085
REMARK INTER:                 -10.896
REMARK INTRA:                  -1.189
REMARK UNBOUND:                -1.511
REMARK  Name = 
REMARK  7 active torsions:
REMARK  status: ('A' for Active; 'I' for Inactive)
REMARK    1  A    between atoms: C_2  and  C_4
REMARK    2  A    between atoms: C_7  and  N_8
REMARK    3  A    between atoms: N_8  and  C_9
REMARK    4  A    between atoms: C_9  and  C_10
REMARK    5  A    between atoms: C_10  and  C_13
REMARK    6  A    between atoms: C_17  and  C_18
REMARK    7  A    between atoms: C_22  and  C_23
REMARK                            x       y       z     vdW  Elec       q    Type
REMARK                         _______ _______ _______ _____ _____    ______ ____
ROOT
ATOM      1  C   UNL     1      48.812   6.632  15.547  0.00  0.00    +0.000 C 
ATOM      2  F   UNL     1      48.535   7.733  16.306  0.00  0.00    +0.000 F 
ATOM      3  F   UNL     1      50.178   6.582  15.469  0.00  0.00    +0.000 F 
ENDROOT
BRANCH   1   4
ATOM      4  C   UNL     1      48.160   6.718  14.180  0.00  0.00    +0.000 A 
ATOM      5  C   UNL     1      48.619   7.639  13.224  0.00  0.00    +0.000 A 
ATOM      6  C   UNL     1      48.048   7.675  11.954  0.00  0.00    +0.000 A 
ATOM      7  C   UNL     1      47.037   6.772  11.617  0.00  0.00    +0.000 A 
ATOM      8  C   UNL     1      46.568   5.817  12.536  0.00  0.00    +0.000 A 
ATOM      9  C   UNL     1      47.131   5.836  13.827  0.00  0.00    +0.000 A 
BRANCH   8  10
ATOM     10  C   UNL     1      45.541   4.819  12.157  0.00  0.00    +0.000 A 
ATOM     11  C   UNL     1      44.412   4.586  12.961  0.00  0.00    +0.000 A 
ATOM     12  C   UNL     1      43.440   3.649  12.603  0.00  0.00    +0.000 A 
ATOM     13  C   UNL     1      43.559   2.942  11.412  0.00  0.00    +0.000 A 
ATOM     14  C   UNL     1      44.657   3.153  10.574  0.00  0.00    +0.000 A 
ATOM     15  C   UNL     1      45.653   4.064  10.974  0.00  0.00    +0.000 A 
BRANCH  14  16
ATOM     16  C   UNL     1      44.766   2.464   9.237  0.00  0.00    +0.000 C 
ATOM     17  F   UNL     1      44.130   1.261   9.192  0.00  0.00    +0.000 F 
ATOM     18  F   UNL     1      44.225   3.208   8.232  0.00  0.00    +0.000 F 
ATOM     19  F   UNL     1      46.055   2.222   8.869  0.00  0.00    +0.000 F 
ENDBRANCH  14  16
ENDBRANCH   8  10
ENDBRANCH   1   4
BRANCH   1  20
ATOM     20  C   UNL     1      48.322   5.364  16.296  0.00  0.00    +0.000 C 
BRANCH  20  21
ATOM     21  N   UNL     1      49.039   5.110  17.560  0.00  0.00    +0.000 N 
ATOM     22  H   UNL     1      49.291   5.952  18.077  0.00  0.00    +0.000 HD
BRANCH  21  26
ATOM     23  C   UNL     1      51.868   1.979  17.632  0.00  0.00    +0.000 A 
ATOM     24  C   UNL     1      52.244   3.255  18.055  0.00  0.00    +0.000 A 
ATOM     25  C   UNL     1      51.311   4.298  18.048  0.00  0.00    +0.000 A 
ATOM     26  C   UNL     1      49.984   4.090  17.654  0.00  0.00    +0.000 A 
ATOM     27  C   UNL     1      49.632   2.808  17.205  0.00  0.00    +0.000 A 
ATOM     28  C   UNL     1      50.563   1.762  17.186  0.00  0.00    +0.000 A 
BRANCH  23  30
ATOM     29  N   UNL     1      52.523  -0.246  18.369  0.00  0.00    +0.000 N 
ATOM     30  C   UNL     1      52.832   0.851  17.611  0.00  0.00    +0.000 C 
ATOM     31  O   UNL     1      53.841   0.873  16.917  0.00  0.00    +0.000 OA
ATOM     32  H   UNL     1      53.127  -1.049  18.254  0.00  0.00    +0.000 HD
ATOM     33  H   UNL     1      51.592  -0.405  18.726  0.00  0.00    +0.000 HD
ENDBRANCH  23  30
ENDBRANCH  21  26
ENDBRANCH  20  21
ENDBRANCH   1  20
TORSDOF 7
ENDMDL
