MODEL 1
REMARK VINA RESULT:    -9.278      0.000      0.000
REMARK INTER + INTRA:         -12.583
REMARK INTER:                 -11.990
REMARK INTRA:                  -0.593
REMARK UNBOUND:                -0.593
REMARK  Name = 
REMARK  5 active torsions:
REMARK  status: ('A' for Active; 'I' for Inactive)
REMARK    1  A    between atoms: C_2  and  C_4
REMARK    2  A    between atoms: C_7  and  N_8
REMARK    3  A    between atoms: N_8  and  C_9
REMARK    4  A    between atoms: C_9  and  C_10
REMARK    5  A    between atoms: C_14  and  C_15
REMARK                            x       y       z     vdW  Elec       q    Type
REMARK                         _______ _______ _______ _____ _____    ______ ____
ROOT
ATOM      1  C   UNL     1      43.427   4.888  11.093  0.00  0.00    +0.000 C 
ENDROOT
BRANCH   1   2
ATOM      2  C   UNL     1      44.684   4.999  11.915  0.00  0.00    +0.000 A 
ATOM      3  C   UNL     1      44.994   4.079  12.903  0.00  0.00    +0.000 A 
ATOM      4  N   UNL     1      46.084   4.167  13.694  0.00  0.00    +0.000 NA
ATOM      5  C   UNL     1      46.913   5.223  13.481  0.00  0.00    +0.000 A 
ATOM      6  C   UNL     1      46.727   6.215  12.516  0.00  0.00    +0.000 A 
ATOM      7  C   UNL     1      45.567   6.078  11.740  0.00  0.00    +0.000 A 
BRANCH   6   8
ATOM      8  C   UNL     1      47.690   7.317  12.297  0.00  0.00    +0.000 A 
ATOM      9  C   UNL     1      47.271   8.647  12.168  0.00  0.00    +0.000 A 
ATOM     10  C   UNL     1      48.221   9.645  12.017  0.00  0.00    +0.000 A 
ATOM     11  N   UNL     1      49.551   9.424  11.992  0.00  0.00    +0.000 NA
ATOM     12  C   UNL     1      49.957   8.153  12.113  0.00  0.00    +0.000 A 
ATOM     13  N   UNL     1      51.333   7.941  12.156  0.00  0.00    +0.000 N 
ATOM     14  C   UNL     1      49.076   7.089  12.256  0.00  0.00    +0.000 A 
ATOM     15  H   UNL     1      51.776   8.841  11.991  0.00  0.00    +0.000 HD
ATOM     16  H   UNL     1      51.631   7.239  11.492  0.00  0.00    +0.000 HD
ENDBRANCH   6   8
ENDBRANCH   1   2
BRANCH   1  17
ATOM     17  N   UNL     1      43.776   4.965   9.685  0.00  0.00    +0.000 N 
ATOM     18  H   UNL     1      43.992   5.902   9.362  0.00  0.00    +0.000 HD
BRANCH  17  22
ATOM     19  C   UNL     1      46.472   2.506   7.725  0.00  0.00    +0.000 A 
ATOM     20  C   UNL     1      46.432   3.886   7.597  0.00  0.00    +0.000 A 
ATOM     21  N   UNL     1      45.564   4.686   8.274  0.00  0.00    +0.000 NA
ATOM     22  C   UNL     1      44.700   4.101   9.132  0.00  0.00    +0.000 A 
ATOM     23  C   UNL     1      44.710   2.714   9.331  0.00  0.00    +0.000 A 
ATOM     24  F   UNL     1      43.844   2.113  10.158  0.00  0.00    +0.000 F 
ATOM     25  C   UNL     1      45.602   1.910   8.631  0.00  0.00    +0.000 A 
BRANCH  19  27
ATOM     26  N   UNL     1      48.523   2.394   6.433  0.00  0.00    +0.000 N 
ATOM     27  C   UNL     1      47.425   1.730   6.909  0.00  0.00    +0.000 C 
ATOM     28  O   UNL     1      47.258   0.539   6.695  0.00  0.00    +0.000 OA
ATOM     29  H   UNL     1      49.221   1.832   5.961  0.00  0.00    +0.000 HD
ATOM     30  H   UNL     1      48.820   3.293   6.789  0.00  0.00    +0.000 HD
ENDBRANCH  19  27
ENDBRANCH  17  22
ENDBRANCH   1  17
TORSDOF 5
ENDMDL
MODEL 2
REMARK VINA RESULT:    -9.266      0.786      1.491
REMARK INTER + INTRA:         -12.567
REMARK INTER:                 -11.891
REMARK INTRA:                  -0.677
REMARK UNBOUND:                -0.593
REMARK  Name = 
REMARK  5 active torsions:
REMARK  status: ('A' for Active; 'I' for Inactive)
REMARK    1  A    between atoms: C_2  and  C_4
REMARK    2  A    between atoms: C_7  and  N_8
REMARK    3  A    between atoms: N_8  and  C_9
REMARK    4  A    between atoms: C_9  and  C_10
REMARK    5  A    between atoms: C_14  and  C_15
REMARK                            x       y       z     vdW  Elec       q    Type
REMARK                         _______ _______ _______ _____ _____    ______ ____
ROOT
ATOM      1  C   UNL     1      43.442   4.716  11.107  0.00  0.00    +0.000 C 
ENDROOT
BRANCH   1   2
ATOM      2  C   UNL     1      44.696   4.968  11.901  0.00  0.00    +0.000 A 
ATOM      3  C   UNL     1      45.164   4.058  12.836  0.00  0.00    +0.000 A 
ATOM      4  N   UNL     1      46.257   4.265  13.601  0.00  0.00    +0.000 NA
ATOM      5  C   UNL     1      46.921   5.436  13.419  0.00  0.00    +0.000 A 
ATOM      6  C   UNL     1      46.567   6.433  12.508  0.00  0.00    +0.000 A 
ATOM      7  C   UNL     1      45.413   6.167  11.756  0.00  0.00    +0.000 A 
BRANCH   6   8
ATOM      8  C   UNL     1      47.358   7.669  12.317  0.00  0.00    +0.000 A 
ATOM      9  C   UNL     1      48.672   7.636  11.835  0.00  0.00    +0.000 A 
ATOM     10  C   UNL     1      49.346   8.829  11.625  0.00  0.00    +0.000 A 
ATOM     11  N   UNL     1      48.815  10.048  11.851  0.00  0.00    +0.000 NA
ATOM     12  C   UNL     1      47.558  10.084  12.315  0.00  0.00    +0.000 A 
ATOM     13  N   UNL     1      46.991  11.347  12.479  0.00  0.00    +0.000 N 
ATOM     14  C   UNL     1      46.812   8.940  12.565  0.00  0.00    +0.000 A 
ATOM     15  H   UNL     1      47.722  12.026  12.282  0.00  0.00    +0.000 HD
ATOM     16  H   UNL     1      46.593  11.468  13.401  0.00  0.00    +0.000 HD
ENDBRANCH   6   8
ENDBRANCH   1   2
BRANCH   1  17
ATOM     17  N   UNL     1      43.750   4.822   9.691  0.00  0.00    +0.000 N 
ATOM     18  H   UNL     1      43.912   5.772   9.373  0.00  0.00    +0.000 HD
BRANCH  17  22
ATOM     19  C   UNL     1      46.519   2.524   7.640  0.00  0.00    +0.000 A 
ATOM     20  C   UNL     1      46.433   3.905   7.561  0.00  0.00    +0.000 A 
ATOM     21  N   UNL     1      45.542   4.652   8.267  0.00  0.00    +0.000 NA
ATOM     22  C   UNL     1      44.700   4.009   9.107  0.00  0.00    +0.000 A 
ATOM     23  C   UNL     1      44.757   2.617   9.256  0.00  0.00    +0.000 A 
ATOM     24  F   UNL     1      43.914   1.959  10.064  0.00  0.00    +0.000 F 
ATOM     25  C   UNL     1      45.672   1.868   8.527  0.00  0.00    +0.000 A 
BRANCH  19  27
ATOM     26  N   UNL     1      48.581   2.518   6.361  0.00  0.00    +0.000 N 
ATOM     27  C   UNL     1      47.494   1.809   6.795  0.00  0.00    +0.000 C 
ATOM     28  O   UNL     1      47.354   0.627   6.522  0.00  0.00    +0.000 OA
ATOM     29  H   UNL     1      49.293   1.994   5.868  0.00  0.00    +0.000 HD
ATOM     30  H   UNL     1      48.856   3.405   6.762  0.00  0.00    +0.000 HD
ENDBRANCH  19  27
ENDBRANCH  17  22
ENDBRANCH   1  17
TORSDOF 5
ENDMDL
MODEL 3
REMARK VINA RESULT:    -9.136      1.928      3.241
REMARK INTER + INTRA:         -12.400
REMARK INTER:                 -11.662
REMARK INTRA:                  -0.737
REMARK UNBOUND:                -0.593
REMARK  Name = 
REMARK  5 active torsions:
REMARK  status: ('A' for Active; 'I' for Inactive)
REMARK    1  A    between atoms: C_2  and  C_4
REMARK    2  A    between atoms: C_7  and  N_8
REMARK    3  A    between atoms: N_8  and  C_9
REMARK    4  A    between atoms: C_9  and  C_10
REMARK    5  A    between atoms: C_14  and  C_15
REMARK                            x       y       z     vdW  Elec       q    Type
REMARK                         _______ _______ _______ _____ _____    ______ ____
ROOT
ATOM      1  C   UNL     1      43.634   4.896  11.252  0.00  0.00    +0.000 C 
ENDROOT
BRANCH   1   2
ATOM      2  C   UNL     1      44.724   5.754  11.837  0.00  0.00    +0.000 A 
ATOM      3  C   UNL     1      45.014   7.011  11.332  0.00  0.00    +0.000 A 
ATOM      4  N   UNL     1      46.012   7.793  11.794  0.00  0.00    +0.000 NA
ATOM      5  C   UNL     1      46.754   7.298  12.819  0.00  0.00    +0.000 A 
ATOM      6  C   UNL     1      46.566   6.056  13.428  0.00  0.00    +0.000 A 
ATOM      7  C   UNL     1      45.526   5.283  12.890  0.00  0.00    +0.000 A 
BRANCH   6   8
ATOM      8  C   UNL     1      47.375   5.588  14.575  0.00  0.00    +0.000 A 
ATOM      9  C   UNL     1      48.433   6.348  15.089  0.00  0.00    +0.000 A 
ATOM     10  C   UNL     1      49.122   5.886  16.200  0.00  0.00    +0.000 A 
ATOM     11  N   UNL     1      48.837   4.734  16.840  0.00  0.00    +0.000 NA
ATOM     12  C   UNL     1      47.827   4.002  16.351  0.00  0.00    +0.000 A 
ATOM     13  N   UNL     1      47.493   2.850  17.059  0.00  0.00    +0.000 N 
ATOM     14  C   UNL     1      47.090   4.382  15.237  0.00  0.00    +0.000 A 
ATOM     15  H   UNL     1      48.183   2.748  17.799  0.00  0.00    +0.000 HD
ATOM     16  H   UNL     1      47.450   2.035  16.461  0.00  0.00    +0.000 HD
ENDBRANCH   6   8
ENDBRANCH   1   2
BRANCH   1  17
ATOM     17  N   UNL     1      43.785   4.859   9.808  0.00  0.00    +0.000 N 
ATOM     18  H   UNL     1      43.858   5.774   9.375  0.00  0.00    +0.000 HD
BRANCH  17  22
ATOM     19  C   UNL     1      46.485   2.514   7.718  0.00  0.00    +0.000 A 
ATOM     20  C   UNL     1      46.417   3.896   7.634  0.00  0.00    +0.000 A 
ATOM     21  N   UNL     1      45.548   4.658   8.353  0.00  0.00    +0.000 NA
ATOM     22  C   UNL     1      44.713   4.030   9.210  0.00  0.00    +0.000 A 
ATOM     23  C   UNL     1      44.753   2.639   9.365  0.00  0.00    +0.000 A 
ATOM     24  F   UNL     1      43.916   1.996  10.191  0.00  0.00    +0.000 F 
ATOM     25  C   UNL     1      45.645   1.874   8.623  0.00  0.00    +0.000 A 
BRANCH  19  27
ATOM     26  N   UNL     1      48.521   2.476   6.398  0.00  0.00    +0.000 N 
ATOM     27  C   UNL     1      47.435   1.782   6.859  0.00  0.00    +0.000 C 
ATOM     28  O   UNL     1      47.277   0.599   6.599  0.00  0.00    +0.000 OA
ATOM     29  H   UNL     1      49.217   1.941   5.895  0.00  0.00    +0.000 HD
ATOM     30  H   UNL     1      48.812   3.363   6.786  0.00  0.00    +0.000 HD
ENDBRANCH  19  27
ENDBRANCH  17  22
ENDBRANCH   1  17
TORSDOF 5
ENDMDL
MODEL 4
REMARK VINA RESULT:    -8.896      1.936      2.612
REMARK INTER + INTRA:         -12.089
REMARK INTER:                 -11.162
REMARK INTRA:                  -0.927
REMARK UNBOUND:                -0.593
REMARK  Name = 
REMARK  5 active torsions:
REMARK  status: ('A' for Active; 'I' for Inactive)
REMARK    1  A    between atoms: C_2  and  C_4
REMARK    2  A    between atoms: C_7  and  N_8
REMARK    3  A    between atoms: N_8  and  C_9
REMARK    4  A    between atoms: C_9  and  C_10
REMARK    5  A    between atoms: C_14  and  C_15
REMARK                            x       y       z     vdW  Elec       q    Type
REMARK                         _______ _______ _______ _____ _____    ______ ____
ROOT
ATOM      1  C   UNL     1      44.253   2.986  11.918  0.00  0.00    +0.000 C 
ENDROOT
BRANCH   1   2
ATOM      2  C   UNL     1      45.355   3.837  12.490  0.00  0.00    +0.000 A 
ATOM      3  C   UNL     1      46.378   3.293  13.249  0.00  0.00    +0.000 A 
ATOM      4  N   UNL     1      47.359   4.024  13.819  0.00  0.00    +0.000 NA
ATOM      5  C   UNL     1      47.321   5.367  13.615  0.00  0.00    +0.000 A 
ATOM      6  C   UNL     1      46.357   6.044  12.865  0.00  0.00    +0.000 A 
ATOM      7  C   UNL     1      45.355   5.231  12.315  0.00  0.00    +0.000 A 
BRANCH   6   8
ATOM      8  C   UNL     1      46.393   7.505  12.635  0.00  0.00    +0.000 A 
ATOM      9  C   UNL     1      47.595   8.185  12.404  0.00  0.00    +0.000 A 
ATOM     10  C   UNL     1      47.564   9.546  12.141  0.00  0.00    +0.000 A 
ATOM     11  N   UNL     1      46.433  10.279  12.083  0.00  0.00    +0.000 NA
ATOM     12  C   UNL     1      45.280   9.633  12.305  0.00  0.00    +0.000 A 
ATOM     13  N   UNL     1      44.113  10.381  12.175  0.00  0.00    +0.000 N 
ATOM     14  C   UNL     1      45.218   8.274  12.588  0.00  0.00    +0.000 A 
ATOM     15  H   UNL     1      44.396  11.344  12.012  0.00  0.00    +0.000 HD
ATOM     16  H   UNL     1      43.510  10.290  12.983  0.00  0.00    +0.000 HD
ENDBRANCH   6   8
ENDBRANCH   1   2
BRANCH   1  17
ATOM     17  N   UNL     1      43.909   3.483  10.597  0.00  0.00    +0.000 N 
ATOM     18  H   UNL     1      43.615   4.455  10.584  0.00  0.00    +0.000 HD
BRANCH  17  22
ATOM     19  C   UNL     1      46.595   2.647   7.556  0.00  0.00    +0.000 A 
ATOM     20  C   UNL     1      45.888   1.688   8.265  0.00  0.00    +0.000 A 
ATOM     21  N   UNL     1      44.983   1.977   9.238  0.00  0.00    +0.000 NA
ATOM     22  C   UNL     1      44.747   3.278   9.519  0.00  0.00    +0.000 A 
ATOM     23  C   UNL     1      45.404   4.296   8.817  0.00  0.00    +0.000 A 
ATOM     24  F   UNL     1      45.203   5.590   9.099  0.00  0.00    +0.000 F 
ATOM     25  C   UNL     1      46.328   3.985   7.827  0.00  0.00    +0.000 A 
BRANCH  19  27
ATOM     26  N   UNL     1      47.719   3.002   5.435  0.00  0.00    +0.000 N 
ATOM     27  C   UNL     1      47.587   2.221   6.552  0.00  0.00    +0.000 C 
ATOM     28  O   UNL     1      48.285   1.234   6.725  0.00  0.00    +0.000 OA
ATOM     29  H   UNL     1      48.470   2.759   4.802  0.00  0.00    +0.000 HD
ATOM     30  H   UNL     1      47.349   3.940   5.373  0.00  0.00    +0.000 HD
ENDBRANCH  19  27
ENDBRANCH  17  22
ENDBRANCH   1  17
TORSDOF 5
ENDMDL
MODEL 5
REMARK VINA RESULT:    -8.556      2.871      6.673
REMARK INTER + INTRA:         -11.650
REMARK INTER:                 -10.700
REMARK INTRA:                  -0.949
REMARK UNBOUND:                -0.593
REMARK  Name = 
REMARK  5 active torsions:
REMARK  status: ('A' for Active; 'I' for Inactive)
REMARK    1  A    between atoms: C_2  and  C_4
REMARK    2  A    between atoms: C_7  and  N_8
REMARK    3  A    between atoms: N_8  and  C_9
REMARK    4  A    between atoms: C_9  and  C_10
REMARK    5  A    between atoms: C_14  and  C_15
REMARK                            x       y       z     vdW  Elec       q    Type
REMARK                         _______ _______ _______ _____ _____    ______ ____
ROOT
ATOM      1  C   UNL     1      43.657   6.349  11.119  0.00  0.00    +0.000 C 
ENDROOT
BRANCH   1   2
ATOM      2  C   UNL     1      43.763   4.876  10.827  0.00  0.00    +0.000 A 
ATOM      3  C   UNL     1      43.050   3.934  11.552  0.00  0.00    +0.000 A 
ATOM      4  N   UNL     1      43.151   2.603  11.354  0.00  0.00    +0.000 NA
ATOM      5  C   UNL     1      44.001   2.190  10.377  0.00  0.00    +0.000 A 
ATOM      6  C   UNL     1      44.769   3.028   9.566  0.00  0.00    +0.000 A 
ATOM      7  C   UNL     1      44.634   4.399   9.833  0.00  0.00    +0.000 A 
BRANCH   6   8
ATOM      8  C   UNL     1      45.642   2.524   8.483  0.00  0.00    +0.000 A 
ATOM      9  C   UNL     1      46.091   1.198   8.455  0.00  0.00    +0.000 A 
ATOM     10  C   UNL     1      46.862   0.767   7.387  0.00  0.00    +0.000 A 
ATOM     11  N   UNL     1      47.215   1.547   6.345  0.00  0.00    +0.000 NA
ATOM     12  C   UNL     1      46.789   2.818   6.369  0.00  0.00    +0.000 A 
ATOM     13  N   UNL     1      47.099   3.598   5.257  0.00  0.00    +0.000 N 
ATOM     14  C   UNL     1      46.023   3.338   7.403  0.00  0.00    +0.000 A 
ATOM     15  H   UNL     1      47.693   3.033   4.656  0.00  0.00    +0.000 HD
ATOM     16  H   UNL     1      47.535   4.474   5.515  0.00  0.00    +0.000 HD
ENDBRANCH   6   8
ENDBRANCH   1   2
BRANCH   1  17
ATOM     17  N   UNL     1      44.025   6.583  12.504  0.00  0.00    +0.000 N 
ATOM     18  H   UNL     1      43.560   5.970  13.166  0.00  0.00    +0.000 HD
BRANCH  17  22
ATOM     19  C   UNL     1      48.059   7.042  13.331  0.00  0.00    +0.000 A 
ATOM     20  C   UNL     1      47.225   8.062  12.898  0.00  0.00    +0.000 A 
ATOM     21  N   UNL     1      45.894   7.907  12.663  0.00  0.00    +0.000 NA
ATOM     22  C   UNL     1      45.350   6.689  12.881  0.00  0.00    +0.000 A 
ATOM     23  C   UNL     1      46.130   5.625  13.349  0.00  0.00    +0.000 A 
ATOM     24  F   UNL     1      45.614   4.404  13.545  0.00  0.00    +0.000 F 
ATOM     25  C   UNL     1      47.489   5.799  13.582  0.00  0.00    +0.000 A 
BRANCH  19  27
ATOM     26  N   UNL     1      50.278   7.307  12.386  0.00  0.00    +0.000 N 
ATOM     27  C   UNL     1      49.498   7.310  13.511  0.00  0.00    +0.000 C 
ATOM     28  O   UNL     1      49.967   7.556  14.611  0.00  0.00    +0.000 OA
ATOM     29  H   UNL     1      51.242   7.591  12.506  0.00  0.00    +0.000 HD
ATOM     30  H   UNL     1      49.895   7.356  11.451  0.00  0.00    +0.000 HD
ENDBRANCH  19  27
ENDBRANCH  17  22
ENDBRANCH   1  17
TORSDOF 5
ENDMDL
MODEL 6
REMARK VINA RESULT:    -8.536      1.722      2.125
REMARK INTER + INTRA:         -11.624
REMARK INTER:                 -10.721
REMARK INTRA:                  -0.903
REMARK UNBOUND:                -0.593
REMARK  Name = 
REMARK  5 active torsions:
REMARK  status: ('A' for Active; 'I' for Inactive)
REMARK    1  A    between atoms: C_2  and  C_4
REMARK    2  A    between atoms: C_7  and  N_8
REMARK    3  A    between atoms: N_8  and  C_9
REMARK    4  A    between atoms: C_9  and  C_10
REMARK    5  A    between atoms: C_14  and  C_15
REMARK                            x       y       z     vdW  Elec       q    Type
REMARK                         _______ _______ _______ _____ _____    ______ ____
ROOT
ATOM      1  C   UNL     1      44.465   2.810  11.612  0.00  0.00    +0.000 C 
ENDROOT
BRANCH   1   2
ATOM      2  C   UNL     1      44.304   4.306  11.645  0.00  0.00    +0.000 A 
ATOM      3  C   UNL     1      43.069   4.912  11.478  0.00  0.00    +0.000 A 
ATOM      4  N   UNL     1      42.886   6.249  11.454  0.00  0.00    +0.000 NA
ATOM      5  C   UNL     1      43.992   7.022  11.612  0.00  0.00    +0.000 A 
ATOM      6  C   UNL     1      45.292   6.546  11.799  0.00  0.00    +0.000 A 
ATOM      7  C   UNL     1      45.418   5.149  11.795  0.00  0.00    +0.000 A 
BRANCH   6   8
ATOM      8  C   UNL     1      46.454   7.436  12.015  0.00  0.00    +0.000 A 
ATOM      9  C   UNL     1      46.295   8.782  12.367  0.00  0.00    +0.000 A 
ATOM     10  C   UNL     1      47.420   9.556  12.610  0.00  0.00    +0.000 A 
ATOM     11  N   UNL     1      48.685   9.094  12.537  0.00  0.00    +0.000 NA
ATOM     12  C   UNL     1      48.842   7.807  12.198  0.00  0.00    +0.000 A 
ATOM     13  N   UNL     1      50.147   7.320  12.192  0.00  0.00    +0.000 N 
ATOM     14  C   UNL     1      47.773   6.963  11.926  0.00  0.00    +0.000 A 
ATOM     15  H   UNL     1      50.758   8.111  12.375  0.00  0.00    +0.000 HD
ATOM     16  H   UNL     1      50.374   6.851  11.325  0.00  0.00    +0.000 HD
ENDBRANCH   6   8
ENDBRANCH   1   2
BRANCH   1  17
ATOM     17  N   UNL     1      43.956   2.308  10.348  0.00  0.00    +0.000 N 
ATOM     18  H   UNL     1      43.029   2.647  10.111  0.00  0.00    +0.000 HD
BRANCH  17  22
ATOM     19  C   UNL     1      46.537   2.331   7.108  0.00  0.00    +0.000 A 
ATOM     20  C   UNL     1      46.396   1.272   7.992  0.00  0.00    +0.000 A 
ATOM     21  N   UNL     1      45.519   1.262   9.032  0.00  0.00    +0.000 NA
ATOM     22  C   UNL     1      44.728   2.344   9.204  0.00  0.00    +0.000 A 
ATOM     23  C   UNL     1      44.798   3.434   8.327  0.00  0.00    +0.000 A 
ATOM     24  F   UNL     1      44.041   4.527   8.497  0.00  0.00    +0.000 F 
ATOM     25  C   UNL     1      45.701   3.430   7.270  0.00  0.00    +0.000 A 
BRANCH  19  27
ATOM     26  N   UNL     1      47.470   3.177   5.034  0.00  0.00    +0.000 N 
ATOM     27  C   UNL     1      47.552   2.254   6.041  0.00  0.00    +0.000 C 
ATOM     28  O   UNL     1      48.447   1.423   6.073  0.00  0.00    +0.000 OA
ATOM     29  H   UNL     1      48.227   3.180   4.363  0.00  0.00    +0.000 HD
ATOM     30  H   UNL     1      46.910   4.016   5.102  0.00  0.00    +0.000 HD
ENDBRANCH  19  27
ENDBRANCH  17  22
ENDBRANCH   1  17
TORSDOF 5
ENDMDL
MODEL 7
REMARK VINA RESULT:    -8.351      1.345      1.935
REMARK INTER + INTRA:         -11.384
REMARK INTER:                 -10.654
REMARK INTRA:                  -0.730
REMARK UNBOUND:                -0.593
REMARK  Name = 
REMARK  5 active torsions:
REMARK  status: ('A' for Active; 'I' for Inactive)
REMARK    1  A    between atoms: C_2  and  C_4
REMARK    2  A    between atoms: C_7  and  N_8
REMARK    3  A    between atoms: N_8  and  C_9
REMARK    4  A    between atoms: C_9  and  C_10
REMARK    5  A    between atoms: C_14  and  C_15
REMARK                            x       y       z     vdW  Elec       q    Type
REMARK                         _______ _______ _______ _____ _____    ______ ____
ROOT
ATOM      1  C   UNL     1      44.016   5.246  11.300  0.00  0.00    +0.000 C 
ENDROOT
BRANCH   1   2
ATOM      2  C   UNL     1      44.651   6.593  11.524  0.00  0.00    +0.000 A 
ATOM      3  C   UNL     1      43.943   7.772  11.354  0.00  0.00    +0.000 A 
ATOM      4  N   UNL     1      44.486   8.999  11.500  0.00  0.00    +0.000 NA
ATOM      5  C   UNL     1      45.800   9.053  11.839  0.00  0.00    +0.000 A 
ATOM      6  C   UNL     1      46.627   7.948  12.051  0.00  0.00    +0.000 A 
ATOM      7  C   UNL     1      46.010   6.701  11.866  0.00  0.00    +0.000 A 
BRANCH   6   8
ATOM      8  C   UNL     1      48.041   8.066  12.468  0.00  0.00    +0.000 A 
ATOM      9  C   UNL     1      48.397   8.406  13.779  0.00  0.00    +0.000 A 
ATOM     10  C   UNL     1      49.738   8.450  14.127  0.00  0.00    +0.000 A 
ATOM     11  N   UNL     1      50.749   8.177  13.278  0.00  0.00    +0.000 NA
ATOM     12  C   UNL     1      50.414   7.853  12.021  0.00  0.00    +0.000 A 
ATOM     13  N   UNL     1      51.459   7.504  11.168  0.00  0.00    +0.000 N 
ATOM     14  C   UNL     1      49.098   7.796  11.582  0.00  0.00    +0.000 A 
ATOM     15  H   UNL     1      52.323   7.659  11.682  0.00  0.00    +0.000 HD
ATOM     16  H   UNL     1      51.431   8.022  10.300  0.00  0.00    +0.000 HD
ENDBRANCH   6   8
ENDBRANCH   1   2
BRANCH   1  17
ATOM     17  N   UNL     1      43.938   4.993   9.871  0.00  0.00    +0.000 N 
ATOM     18  H   UNL     1      43.876   5.833   9.304  0.00  0.00    +0.000 HD
BRANCH  17  22
ATOM     19  C   UNL     1      46.492   2.541   7.721  0.00  0.00    +0.000 A 
ATOM     20  C   UNL     1      46.493   3.926   7.655  0.00  0.00    +0.000 A 
ATOM     21  N   UNL     1      45.673   4.722   8.393  0.00  0.00    +0.000 NA
ATOM     22  C   UNL     1      44.816   4.126   9.252  0.00  0.00    +0.000 A 
ATOM     23  C   UNL     1      44.787   2.733   9.390  0.00  0.00    +0.000 A 
ATOM     24  F   UNL     1      43.927   2.123  10.216  0.00  0.00    +0.000 F 
ATOM     25  C   UNL     1      45.630   1.933   8.628  0.00  0.00    +0.000 A 
BRANCH  19  27
ATOM     26  N   UNL     1      48.447   2.447   6.288  0.00  0.00    +0.000 N 
ATOM     27  C   UNL     1      47.393   1.773   6.842  0.00  0.00    +0.000 C 
ATOM     28  O   UNL     1      47.226   0.579   6.646  0.00  0.00    +0.000 OA
ATOM     29  H   UNL     1      49.116   1.891   5.769  0.00  0.00    +0.000 HD
ATOM     30  H   UNL     1      48.757   3.351   6.618  0.00  0.00    +0.000 HD
ENDBRANCH  19  27
ENDBRANCH  17  22
ENDBRANCH   1  17
TORSDOF 5
ENDMDL
MODEL 8
REMARK VINA RESULT:    -8.178      3.611      7.547
REMARK INTER + INTRA:         -11.161
REMARK INTER:                 -10.348
REMARK INTRA:                  -0.813
REMARK UNBOUND:                -0.593
REMARK  Name = 
REMARK  5 active torsions:
REMARK  status: ('A' for Active; 'I' for Inactive)
REMARK    1  A    between atoms: C_2  and  C_4
REMARK    2  A    between atoms: C_7  and  N_8
REMARK    3  A    between atoms: N_8  and  C_9
REMARK    4  A    between atoms: C_9  and  C_10
REMARK    5  A    between atoms: C_14  and  C_15
REMARK                            x       y       z     vdW  Elec       q    Type
REMARK                         _______ _______ _______ _____ _____    ______ ____
ROOT
ATOM      1  C   UNL     1      44.640   3.821  12.989  0.00  0.00    +0.000 C 
ENDROOT
BRANCH   1   2
ATOM      2  C   UNL     1      44.532   3.993  11.498  0.00  0.00    +0.000 A 
ATOM      3  C   UNL     1      43.655   4.902  10.928  0.00  0.00    +0.000 A 
ATOM      4  N   UNL     1      43.493   5.055   9.597  0.00  0.00    +0.000 NA
ATOM      5  C   UNL     1      44.251   4.266   8.792  0.00  0.00    +0.000 A 
ATOM      6  C   UNL     1      45.179   3.319   9.230  0.00  0.00    +0.000 A 
ATOM      7  C   UNL     1      45.288   3.194  10.623  0.00  0.00    +0.000 A 
BRANCH   6   8
ATOM      8  C   UNL     1      46.015   2.521   8.306  0.00  0.00    +0.000 A 
ATOM      9  C   UNL     1      46.077   1.124   8.388  0.00  0.00    +0.000 A 
ATOM     10  C   UNL     1      46.835   0.424   7.462  0.00  0.00    +0.000 A 
ATOM     11  N   UNL     1      47.527   1.002   6.460  0.00  0.00    +0.000 NA
ATOM     12  C   UNL     1      47.472   2.339   6.377  0.00  0.00    +0.000 A 
ATOM     13  N   UNL     1      48.132   2.924   5.299  0.00  0.00    +0.000 N 
ATOM     14  C   UNL     1      46.749   3.121   7.269  0.00  0.00    +0.000 A 
ATOM     15  H   UNL     1      48.621   2.177   4.813  0.00  0.00    +0.000 HD
ATOM     16  H   UNL     1      48.755   3.665   5.591  0.00  0.00    +0.000 HD
ENDBRANCH   6   8
ENDBRANCH   1   2
BRANCH   1  17
ATOM     17  N   UNL     1      45.999   3.430  13.323  0.00  0.00    +0.000 N 
ATOM     18  H   UNL     1      46.525   3.052  12.541  0.00  0.00    +0.000 HD
BRANCH  17  22
ATOM     19  C   UNL     1      48.268   5.972  15.679  0.00  0.00    +0.000 A 
ATOM     20  C   UNL     1      47.759   4.754  16.103  0.00  0.00    +0.000 A 
ATOM     21  N   UNL     1      47.044   3.912  15.308  0.00  0.00    +0.000 NA
ATOM     22  C   UNL     1      46.832   4.278  14.025  0.00  0.00    +0.000 A 
ATOM     23  C   UNL     1      47.346   5.481  13.525  0.00  0.00    +0.000 A 
ATOM     24  F   UNL     1      47.123   5.874  12.264  0.00  0.00    +0.000 F 
ATOM     25  C   UNL     1      48.072   6.332  14.350  0.00  0.00    +0.000 A 
BRANCH  19  27
ATOM     26  N   UNL     1      48.256   7.394  17.645  0.00  0.00    +0.000 N 
ATOM     27  C   UNL     1      48.990   6.829  16.638  0.00  0.00    +0.000 C 
ATOM     28  O   UNL     1      50.197   6.999  16.555  0.00  0.00    +0.000 OA
ATOM     29  H   UNL     1      48.775   7.896  18.354  0.00  0.00    +0.000 HD
ATOM     30  H   UNL     1      47.325   7.083  17.888  0.00  0.00    +0.000 HD
ENDBRANCH  19  27
ENDBRANCH  17  22
ENDBRANCH   1  17
TORSDOF 5
ENDMDL
MODEL 9
REMARK VINA RESULT:    -8.099      2.632      6.635
REMARK INTER + INTRA:         -11.059
REMARK INTER:                 -10.100
REMARK INTRA:                  -0.959
REMARK UNBOUND:                -0.593
REMARK  Name = 
REMARK  5 active torsions:
REMARK  status: ('A' for Active; 'I' for Inactive)
REMARK    1  A    between atoms: C_2  and  C_4
REMARK    2  A    between atoms: C_7  and  N_8
REMARK    3  A    between atoms: N_8  and  C_9
REMARK    4  A    between atoms: C_9  and  C_10
REMARK    5  A    between atoms: C_14  and  C_15
REMARK                            x       y       z     vdW  Elec       q    Type
REMARK                         _______ _______ _______ _____ _____    ______ ____
ROOT
ATOM      1  C   UNL     1      44.155   6.925  11.457  0.00  0.00    +0.000 C 
ENDROOT
BRANCH   1   2
ATOM      2  C   UNL     1      44.014   5.469  11.102  0.00  0.00    +0.000 A 
ATOM      3  C   UNL     1      43.123   4.639  11.763  0.00  0.00    +0.000 A 
ATOM      4  N   UNL     1      42.998   3.319  11.508  0.00  0.00    +0.000 NA
ATOM      5  C   UNL     1      43.797   2.803  10.538  0.00  0.00    +0.000 A 
ATOM      6  C   UNL     1      44.728   3.525   9.788  0.00  0.00    +0.000 A 
ATOM      7  C   UNL     1      44.824   4.886  10.113  0.00  0.00    +0.000 A 
BRANCH   6   8
ATOM      8  C   UNL     1      45.538   2.919   8.708  0.00  0.00    +0.000 A 
ATOM      9  C   UNL     1      46.159   3.701   7.726  0.00  0.00    +0.000 A 
ATOM     10  C   UNL     1      46.950   3.084   6.769  0.00  0.00    +0.000 A 
ATOM     11  N   UNL     1      47.176   1.755   6.718  0.00  0.00    +0.000 NA
ATOM     12  C   UNL     1      46.582   1.002   7.655  0.00  0.00    +0.000 A 
ATOM     13  N   UNL     1      46.876  -0.359   7.638  0.00  0.00    +0.000 N 
ATOM     14  C   UNL     1      45.764   1.534   8.643  0.00  0.00    +0.000 A 
ATOM     15  H   UNL     1      47.449  -0.527   6.815  0.00  0.00    +0.000 HD
ATOM     16  H   UNL     1      46.040  -0.929   7.646  0.00  0.00    +0.000 HD
ENDBRANCH   6   8
ENDBRANCH   1   2
BRANCH   1  17
ATOM     17  N   UNL     1      44.892   7.038  12.704  0.00  0.00    +0.000 N 
ATOM     18  H   UNL     1      44.671   6.315  13.382  0.00  0.00    +0.000 HD
BRANCH  17  22
ATOM     19  C   UNL     1      48.967   7.720  12.404  0.00  0.00    +0.000 A 
ATOM     20  C   UNL     1      47.991   8.679  12.177  0.00  0.00    +0.000 A 
ATOM     21  N   UNL     1      46.657   8.452  12.313  0.00  0.00    +0.000 NA
ATOM     22  C   UNL     1      46.260   7.222  12.708  0.00  0.00    +0.000 A 
ATOM     23  C   UNL     1      47.196   6.217  12.984  0.00  0.00    +0.000 A 
ATOM     24  F   UNL     1      46.821   4.985  13.351  0.00  0.00    +0.000 F 
ATOM     25  C   UNL     1      48.556   6.465  12.839  0.00  0.00    +0.000 A 
BRANCH  19  27
ATOM     26  N   UNL     1      51.053   8.652  13.221  0.00  0.00    +0.000 N 
ATOM     27  C   UNL     1      50.384   8.062  12.183  0.00  0.00    +0.000 C 
ATOM     28  O   UNL     1      50.946   7.798  11.131  0.00  0.00    +0.000 OA
ATOM     29  H   UNL     1      52.048   8.790  13.096  0.00  0.00    +0.000 HD
ATOM     30  H   UNL     1      50.702   8.657  14.170  0.00  0.00    +0.000 HD
ENDBRANCH  19  27
ENDBRANCH  17  22
ENDBRANCH   1  17
TORSDOF 5
ENDMDL
