MODEL 1
REMARK VINA RESULT:    -9.366      0.000      0.000
REMARK INTER + INTRA:         -14.518
REMARK INTER:                 -13.198
REMARK INTRA:                  -1.320
REMARK UNBOUND:                -1.320
REMARK  Name = 
REMARK  7 active torsions:
REMARK  status: ('A' for Active; 'I' for Inactive)
REMARK    1  A    between atoms: C_2  and  C_4
REMARK    2  A    between atoms: C_7  and  N_8
REMARK    3  A    between atoms: N_8  and  C_9
REMARK    4  A    between atoms: C_9  and  C_10
REMARK    5  A    between atoms: C_10  and  C_13
REMARK    6  A    between atoms: C_17  and  O_18
REMARK    7  A    between atoms: O_18  and  C_19
REMARK                            x       y       z     vdW  Elec       q    Type
REMARK                         _______ _______ _______ _____ _____    ______ ____
ROOT
ATOM      1  C   UNL     1      43.867   4.839  12.381  0.00  0.00    +0.000 C 
ATOM      2  F   UNL     1      42.983   5.450  13.224  0.00  0.00    +0.000 F 
ATOM      3  F   UNL     1      43.767   3.503  12.666  0.00  0.00    +0.000 F 
ENDROOT
BRANCH   1   4
ATOM      4  C   UNL     1      45.280   5.354  12.567  0.00  0.00    +0.000 A 
ATOM      5  C   UNL     1      45.851   6.227  11.633  0.00  0.00    +0.000 A 
ATOM      6  C   UNL     1      47.135   6.735  11.834  0.00  0.00    +0.000 A 
ATOM      7  C   UNL     1      47.870   6.371  12.965  0.00  0.00    +0.000 A 
ATOM      8  C   UNL     1      47.322   5.488  13.892  0.00  0.00    +0.000 A 
ATOM      9  C   UNL     1      46.030   4.992  13.699  0.00  0.00    +0.000 A 
BRANCH   8  10
ATOM     10  O   UNL     1      47.942   5.079  15.046  0.00  0.00    +0.000 OA
BRANCH  10  11
ATOM     11  C   UNL     1      47.296   4.097  15.886  0.00  0.00    +0.000 C 
ATOM     12  C   UNL     1      47.170   4.428  17.386  0.00  0.00    +0.000 C 
ATOM     13  C   UNL     1      47.726   3.036  17.724  0.00  0.00    +0.000 C 
ATOM     14  F   UNL     1      48.703   3.011  18.659  0.00  0.00    +0.000 F 
ATOM     15  F   UNL     1      46.804   2.124  18.103  0.00  0.00    +0.000 F 
ATOM     16  C   UNL     1      48.205   2.910  16.269  0.00  0.00    +0.000 C 
ENDBRANCH  10  11
ENDBRANCH   8  10
ENDBRANCH   1   4
BRANCH   1  17
ATOM     17  C   UNL     1      43.400   5.051  10.916  0.00  0.00    +0.000 C 
BRANCH  17  18
ATOM     18  N   UNL     1      43.452   3.817  10.115  0.00  0.00    +0.000 N 
ATOM     19  H   UNL     1      42.979   3.016  10.531  0.00  0.00    +0.000 HD
BRANCH  18  23
ATOM     20  C   UNL     1      46.605   2.665   7.567  0.00  0.00    +0.000 A 
ATOM     21  C   UNL     1      46.235   4.010   7.635  0.00  0.00    +0.000 A 
ATOM     22  C   UNL     1      45.206   4.412   8.497  0.00  0.00    +0.000 A 
ATOM     23  C   UNL     1      44.552   3.496   9.327  0.00  0.00    +0.000 A 
ATOM     24  C   UNL     1      44.935   2.148   9.241  0.00  0.00    +0.000 A 
ATOM     25  C   UNL     1      45.945   1.733   8.368  0.00  0.00    +0.000 A 
BRANCH  20  27
ATOM     26  N   UNL     1      47.874   2.948   5.507  0.00  0.00    +0.000 N 
ATOM     27  C   UNL     1      47.643   2.186   6.618  0.00  0.00    +0.000 C 
ATOM     28  O   UNL     1      48.289   1.169   6.830  0.00  0.00    +0.000 OA
ATOM     29  H   UNL     1      48.647   2.660   4.922  0.00  0.00    +0.000 HD
ATOM     30  H   UNL     1      47.553   3.902   5.428  0.00  0.00    +0.000 HD
ENDBRANCH  20  27
ENDBRANCH  18  23
ENDBRANCH  17  18
ENDBRANCH   1  17
TORSDOF 7
ENDMDL
MODEL 2
REMARK VINA RESULT:    -8.279      1.267      1.861
REMARK INTER + INTRA:         -12.987
REMARK INTER:                 -12.053
REMARK INTRA:                  -0.934
REMARK UNBOUND:                -1.320
REMARK  Name = 
REMARK  7 active torsions:
REMARK  status: ('A' for Active; 'I' for Inactive)
REMARK    1  A    between atoms: C_2  and  C_4
REMARK    2  A    between atoms: C_7  and  N_8
REMARK    3  A    between atoms: N_8  and  C_9
REMARK    4  A    between atoms: C_9  and  C_10
REMARK    5  A    between atoms: C_10  and  C_13
REMARK    6  A    between atoms: C_17  and  O_18
REMARK    7  A    between atoms: O_18  and  C_19
REMARK                            x       y       z     vdW  Elec       q    Type
REMARK                         _______ _______ _______ _____ _____    ______ ____
ROOT
ATOM      1  C   UNL     1      44.583   5.165  12.481  0.00  0.00    +0.000 C 
ATOM      2  F   UNL     1      43.482   5.598  13.164  0.00  0.00    +0.000 F 
ATOM      3  F   UNL     1      44.452   3.803  12.418  0.00  0.00    +0.000 F 
ENDROOT
BRANCH   1   4
ATOM      4  C   UNL     1      45.873   5.579  13.160  0.00  0.00    +0.000 A 
ATOM      5  C   UNL     1      46.531   6.757  12.784  0.00  0.00    +0.000 A 
ATOM      6  C   UNL     1      47.693   7.158  13.444  0.00  0.00    +0.000 A 
ATOM      7  C   UNL     1      48.219   6.384  14.483  0.00  0.00    +0.000 A 
ATOM      8  C   UNL     1      47.585   5.201  14.853  0.00  0.00    +0.000 A 
ATOM      9  C   UNL     1      46.413   4.807  14.203  0.00  0.00    +0.000 A 
BRANCH   8  10
ATOM     10  O   UNL     1      47.999   4.376  15.868  0.00  0.00    +0.000 OA
BRANCH  10  11
ATOM     11  C   UNL     1      48.736   4.935  16.979  0.00  0.00    +0.000 C 
ATOM     12  C   UNL     1      49.548   3.955  17.848  0.00  0.00    +0.000 C 
ATOM     13  C   UNL     1      48.930   4.584  19.106  0.00  0.00    +0.000 C 
ATOM     14  F   UNL     1      48.458   3.707  20.022  0.00  0.00    +0.000 F 
ATOM     15  F   UNL     1      49.729   5.446  19.772  0.00  0.00    +0.000 F 
ATOM     16  C   UNL     1      47.864   5.239  18.215  0.00  0.00    +0.000 C 
ENDBRANCH  10  11
ENDBRANCH   8  10
ENDBRANCH   1   4
BRANCH   1  17
ATOM     17  C   UNL     1      44.530   5.717  11.031  0.00  0.00    +0.000 C 
BRANCH  17  18
ATOM     18  N   UNL     1      43.875   4.793  10.091  0.00  0.00    +0.000 N 
ATOM     19  H   UNL     1      42.979   4.424  10.407  0.00  0.00    +0.000 HD
BRANCH  18  23
ATOM     20  C   UNL     1      46.329   2.292   7.750  0.00  0.00    +0.000 A 
ATOM     21  C   UNL     1      45.410   1.719   8.631  0.00  0.00    +0.000 A 
ATOM     22  C   UNL     1      44.568   2.538   9.397  0.00  0.00    +0.000 A 
ATOM     23  C   UNL     1      44.603   3.931   9.278  0.00  0.00    +0.000 A 
ATOM     24  C   UNL     1      45.536   4.487   8.391  0.00  0.00    +0.000 A 
ATOM     25  C   UNL     1      46.396   3.681   7.638  0.00  0.00    +0.000 A 
BRANCH  20  27
ATOM     26  N   UNL     1      48.402   2.088   6.486  0.00  0.00    +0.000 N 
ATOM     27  C   UNL     1      47.286   1.464   6.971  0.00  0.00    +0.000 C 
ATOM     28  O   UNL     1      47.104   0.268   6.791  0.00  0.00    +0.000 OA
ATOM     29  H   UNL     1      49.087   1.492   6.041  0.00  0.00    +0.000 HD
ATOM     30  H   UNL     1      48.708   2.989   6.823  0.00  0.00    +0.000 HD
ENDBRANCH  20  27
ENDBRANCH  18  23
ENDBRANCH  17  18
ENDBRANCH   1  17
TORSDOF 7
ENDMDL
MODEL 3
REMARK VINA RESULT:    -7.971      1.908      2.331
REMARK INTER + INTRA:         -12.553
REMARK INTER:                 -11.735
REMARK INTRA:                  -0.818
REMARK UNBOUND:                -1.320
REMARK  Name = 
REMARK  7 active torsions:
REMARK  status: ('A' for Active; 'I' for Inactive)
REMARK    1  A    between atoms: C_2  and  C_4
REMARK    2  A    between atoms: C_7  and  N_8
REMARK    3  A    between atoms: N_8  and  C_9
REMARK    4  A    between atoms: C_9  and  C_10
REMARK    5  A    between atoms: C_10  and  C_13
REMARK    6  A    between atoms: C_17  and  O_18
REMARK    7  A    between atoms: O_18  and  C_19
REMARK                            x       y       z     vdW  Elec       q    Type
REMARK                         _______ _______ _______ _____ _____    ______ ____
ROOT
ATOM      1  C   UNL     1      43.649   4.581  12.628  0.00  0.00    +0.000 C 
ATOM      2  F   UNL     1      42.703   5.388  13.194  0.00  0.00    +0.000 F 
ATOM      3  F   UNL     1      43.541   3.386  13.289  0.00  0.00    +0.000 F 
ENDROOT
BRANCH   1   4
ATOM      4  C   UNL     1      45.042   5.169  12.744  0.00  0.00    +0.000 A 
ATOM      5  C   UNL     1      45.492   6.123  11.822  0.00  0.00    +0.000 A 
ATOM      6  C   UNL     1      46.756   6.696  11.960  0.00  0.00    +0.000 A 
ATOM      7  C   UNL     1      47.593   6.317  13.015  0.00  0.00    +0.000 A 
ATOM      8  C   UNL     1      47.164   5.356  13.926  0.00  0.00    +0.000 A 
ATOM      9  C   UNL     1      45.892   4.794  13.797  0.00  0.00    +0.000 A 
BRANCH   8  10
ATOM     10  O   UNL     1      47.890   4.924  15.008  0.00  0.00    +0.000 OA
BRANCH  10  11
ATOM     11  C   UNL     1      48.439   5.897  15.925  0.00  0.00    +0.000 C 
ATOM     12  C   UNL     1      49.632   6.737  15.428  0.00  0.00    +0.000 C 
ATOM     13  C   UNL     1      50.380   6.415  16.731  0.00  0.00    +0.000 C 
ATOM     14  F   UNL     1      51.664   6.016  16.581  0.00  0.00    +0.000 F 
ATOM     15  F   UNL     1      50.388   7.404  17.651  0.00  0.00    +0.000 F 
ATOM     16  C   UNL     1      49.370   5.288  16.995  0.00  0.00    +0.000 C 
ENDBRANCH  10  11
ENDBRANCH   8  10
ENDBRANCH   1   4
BRANCH   1  17
ATOM     17  C   UNL     1      43.283   4.338  11.140  0.00  0.00    +0.000 C 
BRANCH  17  18
ATOM     18  N   UNL     1      43.724   3.022  10.650  0.00  0.00    +0.000 N 
ATOM     19  H   UNL     1      43.887   2.326  11.378  0.00  0.00    +0.000 HD
BRANCH  18  23
ATOM     20  C   UNL     1      46.380   2.786   7.387  0.00  0.00    +0.000 A 
ATOM     21  C   UNL     1      46.019   1.619   8.062  0.00  0.00    +0.000 A 
ATOM     22  C   UNL     1      45.116   1.678   9.132  0.00  0.00    +0.000 A 
ATOM     23  C   UNL     1      44.534   2.887   9.528  0.00  0.00    +0.000 A 
ATOM     24  C   UNL     1      44.913   4.050   8.841  0.00  0.00    +0.000 A 
ATOM     25  C   UNL     1      45.831   4.005   7.785  0.00  0.00    +0.000 A 
BRANCH  20  27
ATOM     26  N   UNL     1      48.680   2.502   6.633  0.00  0.00    +0.000 N 
ATOM     27  C   UNL     1      47.384   2.778   6.292  0.00  0.00    +0.000 C 
ATOM     28  O   UNL     1      47.069   2.980   5.128  0.00  0.00    +0.000 OA
ATOM     29  H   UNL     1      49.331   2.407   5.866  0.00  0.00    +0.000 HD
ATOM     30  H   UNL     1      48.929   2.087   7.519  0.00  0.00    +0.000 HD
ENDBRANCH  20  27
ENDBRANCH  18  23
ENDBRANCH  17  18
ENDBRANCH   1  17
TORSDOF 7
ENDMDL
MODEL 4
REMARK VINA RESULT:    -7.950      3.000      4.164
REMARK INTER + INTRA:         -12.524
REMARK INTER:                 -11.812
REMARK INTRA:                  -0.712
REMARK UNBOUND:                -1.320
REMARK  Name = 
REMARK  7 active torsions:
REMARK  status: ('A' for Active; 'I' for Inactive)
REMARK    1  A    between atoms: C_2  and  C_4
REMARK    2  A    between atoms: C_7  and  N_8
REMARK    3  A    between atoms: N_8  and  C_9
REMARK    4  A    between atoms: C_9  and  C_10
REMARK    5  A    between atoms: C_10  and  C_13
REMARK    6  A    between atoms: C_17  and  O_18
REMARK    7  A    between atoms: O_18  and  C_19
REMARK                            x       y       z     vdW  Elec       q    Type
REMARK                         _______ _______ _______ _____ _____    ______ ____
ROOT
ATOM      1  C   UNL     1      43.878   5.033  12.363  0.00  0.00    +0.000 C 
ATOM      2  F   UNL     1      42.969   5.027  13.383  0.00  0.00    +0.000 F 
ATOM      3  F   UNL     1      44.656   3.925  12.573  0.00  0.00    +0.000 F 
ENDROOT
BRANCH   1   4
ATOM      4  C   UNL     1      44.699   6.307  12.339  0.00  0.00    +0.000 A 
ATOM      5  C   UNL     1      44.201   7.465  11.729  0.00  0.00    +0.000 A 
ATOM      6  C   UNL     1      44.941   8.648  11.751  0.00  0.00    +0.000 A 
ATOM      7  C   UNL     1      46.192   8.688  12.372  0.00  0.00    +0.000 A 
ATOM      8  C   UNL     1      46.707   7.538  12.965  0.00  0.00    +0.000 A 
ATOM      9  C   UNL     1      45.959   6.357  12.957  0.00  0.00    +0.000 A 
BRANCH   8  10
ATOM     10  O   UNL     1      47.911   7.466  13.620  0.00  0.00    +0.000 OA
BRANCH  10  11
ATOM     11  C   UNL     1      49.103   7.138  12.873  0.00  0.00    +0.000 C 
ATOM     12  C   UNL     1      50.313   8.080  13.031  0.00  0.00    +0.000 C 
ATOM     13  C   UNL     1      50.453   8.129  11.501  0.00  0.00    +0.000 C 
ATOM     14  F   UNL     1      50.612   9.364  10.972  0.00  0.00    +0.000 F 
ATOM     15  F   UNL     1      51.437   7.359  10.987  0.00  0.00    +0.000 F 
ATOM     16  C   UNL     1      49.038   7.542  11.385  0.00  0.00    +0.000 C 
ENDBRANCH  10  11
ENDBRANCH   8  10
ENDBRANCH   1   4
BRANCH   1  17
ATOM     17  C   UNL     1      43.129   4.842  11.017  0.00  0.00    +0.000 C 
BRANCH  17  18
ATOM     18  N   UNL     1      43.990   5.075   9.846  0.00  0.00    +0.000 N 
ATOM     19  H   UNL     1      43.695   5.842   9.242  0.00  0.00    +0.000 HD
BRANCH  18  23
ATOM     20  C   UNL     1      46.206   2.026   7.963  0.00  0.00    +0.000 A 
ATOM     21  C   UNL     1      45.225   1.683   8.895  0.00  0.00    +0.000 A 
ATOM     22  C   UNL     1      44.462   2.685   9.510  0.00  0.00    +0.000 A 
ATOM     23  C   UNL     1      44.637   4.035   9.187  0.00  0.00    +0.000 A 
ATOM     24  C   UNL     1      45.631   4.359   8.252  0.00  0.00    +0.000 A 
ATOM     25  C   UNL     1      46.414   3.369   7.649  0.00  0.00    +0.000 A 
BRANCH  20  27
ATOM     26  N   UNL     1      46.838  -0.307   7.651  0.00  0.00    +0.000 N 
ATOM     27  C   UNL     1      47.083   1.002   7.339  0.00  0.00    +0.000 C 
ATOM     28  O   UNL     1      47.971   1.306   6.554  0.00  0.00    +0.000 OA
ATOM     29  H   UNL     1      47.380  -0.994   7.146  0.00  0.00    +0.000 HD
ATOM     30  H   UNL     1      45.975  -0.608   8.080  0.00  0.00    +0.000 HD
ENDBRANCH  20  27
ENDBRANCH  18  23
ENDBRANCH  17  18
ENDBRANCH   1  17
TORSDOF 7
ENDMDL
MODEL 5
REMARK VINA RESULT:    -7.856      1.518      2.027
REMARK INTER + INTRA:         -12.391
REMARK INTER:                 -11.695
REMARK INTRA:                  -0.696
REMARK UNBOUND:                -1.320
REMARK  Name = 
REMARK  7 active torsions:
REMARK  status: ('A' for Active; 'I' for Inactive)
REMARK    1  A    between atoms: C_2  and  C_4
REMARK    2  A    between atoms: C_7  and  N_8
REMARK    3  A    between atoms: N_8  and  C_9
REMARK    4  A    between atoms: C_9  and  C_10
REMARK    5  A    between atoms: C_10  and  C_13
REMARK    6  A    between atoms: C_17  and  O_18
REMARK    7  A    between atoms: O_18  and  C_19
REMARK                            x       y       z     vdW  Elec       q    Type
REMARK                         _______ _______ _______ _____ _____    ______ ____
ROOT
ATOM      1  C   UNL     1      45.643   6.651  11.333  0.00  0.00    +0.000 C 
ATOM      2  F   UNL     1      46.369   6.565  10.178  0.00  0.00    +0.000 F 
ATOM      3  F   UNL     1      44.717   7.632  11.100  0.00  0.00    +0.000 F 
ENDROOT
BRANCH   1   4
ATOM      4  C   UNL     1      46.517   6.969  12.531  0.00  0.00    +0.000 A 
ATOM      5  C   UNL     1      46.717   8.294  12.936  0.00  0.00    +0.000 A 
ATOM      6  C   UNL     1      47.483   8.578  14.067  0.00  0.00    +0.000 A 
ATOM      7  C   UNL     1      48.067   7.543  14.803  0.00  0.00    +0.000 A 
ATOM      8  C   UNL     1      47.892   6.222  14.399  0.00  0.00    +0.000 A 
ATOM      9  C   UNL     1      47.112   5.937  13.276  0.00  0.00    +0.000 A 
BRANCH   8  10
ATOM     10  O   UNL     1      48.399   5.129  15.055  0.00  0.00    +0.000 OA
BRANCH  10  11
ATOM     11  C   UNL     1      47.501   4.255  15.774  0.00  0.00    +0.000 C 
ATOM     12  C   UNL     1      47.271   4.557  17.268  0.00  0.00    +0.000 C 
ATOM     13  C   UNL     1      47.530   3.077  17.590  0.00  0.00    +0.000 C 
ATOM     14  F   UNL     1      48.378   2.846  18.619  0.00  0.00    +0.000 F 
ATOM     15  F   UNL     1      46.425   2.337  17.827  0.00  0.00    +0.000 F 
ATOM     16  C   UNL     1      48.137   2.911  16.188  0.00  0.00    +0.000 C 
ENDBRANCH  10  11
ENDBRANCH   8  10
ENDBRANCH   1   4
BRANCH   1  17
ATOM     17  C   UNL     1      44.881   5.317  11.554  0.00  0.00    +0.000 C 
BRANCH  17  18
ATOM     18  N   UNL     1      44.213   4.832  10.336  0.00  0.00    +0.000 N 
ATOM     19  H   UNL     1      43.204   4.710  10.420  0.00  0.00    +0.000 HD
BRANCH  18  23
ATOM     20  C   UNL     1      46.351   2.276   7.757  0.00  0.00    +0.000 A 
ATOM     21  C   UNL     1      45.574   1.725   8.777  0.00  0.00    +0.000 A 
ATOM     22  C   UNL     1      44.836   2.561   9.626  0.00  0.00    +0.000 A 
ATOM     23  C   UNL     1      44.832   3.949   9.457  0.00  0.00    +0.000 A 
ATOM     24  C   UNL     1      45.623   4.485   8.429  0.00  0.00    +0.000 A 
ATOM     25  C   UNL     1      46.381   3.661   7.590  0.00  0.00    +0.000 A 
BRANCH  20  27
ATOM     26  N   UNL     1      48.257   2.040   6.256  0.00  0.00    +0.000 N 
ATOM     27  C   UNL     1      47.202   1.432   6.878  0.00  0.00    +0.000 C 
ATOM     28  O   UNL     1      46.991   0.235   6.735  0.00  0.00    +0.000 OA
ATOM     29  H   UNL     1      48.879   1.433   5.740  0.00  0.00    +0.000 HD
ATOM     30  H   UNL     1      48.608   2.942   6.544  0.00  0.00    +0.000 HD
ENDBRANCH  20  27
ENDBRANCH  18  23
ENDBRANCH  17  18
ENDBRANCH   1  17
TORSDOF 7
ENDMDL
MODEL 6
REMARK VINA RESULT:    -7.799      3.037      4.287
REMARK INTER + INTRA:         -12.310
REMARK INTER:                 -11.192
REMARK INTRA:                  -1.118
REMARK UNBOUND:                -1.320
REMARK  Name = 
REMARK  7 active torsions:
REMARK  status: ('A' for Active; 'I' for Inactive)
REMARK    1  A    between atoms: C_2  and  C_4
REMARK    2  A    between atoms: C_7  and  N_8
REMARK    3  A    between atoms: N_8  and  C_9
REMARK    4  A    between atoms: C_9  and  C_10
REMARK    5  A    between atoms: C_10  and  C_13
REMARK    6  A    between atoms: C_17  and  O_18
REMARK    7  A    between atoms: O_18  and  C_19
REMARK                            x       y       z     vdW  Elec       q    Type
REMARK                         _______ _______ _______ _____ _____    ______ ____
ROOT
ATOM      1  C   UNL     1      43.917   5.444  12.237  0.00  0.00    +0.000 C 
ATOM      2  F   UNL     1      43.756   6.287  11.174  0.00  0.00    +0.000 F 
ATOM      3  F   UNL     1      42.872   5.726  13.077  0.00  0.00    +0.000 F 
ENDROOT
BRANCH   1   4
ATOM      4  C   UNL     1      45.258   5.634  12.917  0.00  0.00    +0.000 A 
ATOM      5  C   UNL     1      45.790   4.632  13.739  0.00  0.00    +0.000 A 
ATOM      6  C   UNL     1      47.046   4.793  14.324  0.00  0.00    +0.000 A 
ATOM      7  C   UNL     1      47.785   5.959  14.104  0.00  0.00    +0.000 A 
ATOM      8  C   UNL     1      47.259   6.971  13.305  0.00  0.00    +0.000 A 
ATOM      9  C   UNL     1      46.008   6.804  12.706  0.00  0.00    +0.000 A 
BRANCH   8  10
ATOM     10  O   UNL     1      47.901   8.145  13.004  0.00  0.00    +0.000 OA
BRANCH  10  11
ATOM     11  C   UNL     1      49.344   8.161  12.921  0.00  0.00    +0.000 C 
ATOM     12  C   UNL     1      50.026   9.537  12.788  0.00  0.00    +0.000 C 
ATOM     13  C   UNL     1      50.860   8.992  11.618  0.00  0.00    +0.000 C 
ATOM     14  F   UNL     1      50.912   9.785  10.523  0.00  0.00    +0.000 F 
ATOM     15  F   UNL     1      52.136   8.668  11.922  0.00  0.00    +0.000 F 
ATOM     16  C   UNL     1      49.891   7.803  11.523  0.00  0.00    +0.000 C 
ENDBRANCH  10  11
ENDBRANCH   8  10
ENDBRANCH   1   4
BRANCH   1  17
ATOM     17  C   UNL     1      43.756   3.979  11.751  0.00  0.00    +0.000 C 
BRANCH  17  18
ATOM     18  N   UNL     1      43.589   3.876  10.292  0.00  0.00    +0.000 N 
ATOM     19  H   UNL     1      42.675   3.542   9.988  0.00  0.00    +0.000 HD
BRANCH  18  23
ATOM     20  C   UNL     1      46.583   2.664   7.587  0.00  0.00    +0.000 A 
ATOM     21  C   UNL     1      46.283   4.021   7.713  0.00  0.00    +0.000 A 
ATOM     22  C   UNL     1      45.309   4.442   8.628  0.00  0.00    +0.000 A 
ATOM     23  C   UNL     1      44.641   3.530   9.451  0.00  0.00    +0.000 A 
ATOM     24  C   UNL     1      44.953   2.169   9.306  0.00  0.00    +0.000 A 
ATOM     25  C   UNL     1      45.908   1.736   8.381  0.00  0.00    +0.000 A 
BRANCH  20  27
ATOM     26  N   UNL     1      47.863   3.001   5.541  0.00  0.00    +0.000 N 
ATOM     27  C   UNL     1      47.560   2.168   6.582  0.00  0.00    +0.000 C 
ATOM     28  O   UNL     1      48.097   1.075   6.692  0.00  0.00    +0.000 OA
ATOM     29  H   UNL     1      48.598   2.688   4.921  0.00  0.00    +0.000 HD
ATOM     30  H   UNL     1      47.644   3.986   5.554  0.00  0.00    +0.000 HD
ENDBRANCH  20  27
ENDBRANCH  18  23
ENDBRANCH  17  18
ENDBRANCH   1  17
TORSDOF 7
ENDMDL
MODEL 7
REMARK VINA RESULT:    -7.743      3.494      7.826
REMARK INTER + INTRA:         -12.232
REMARK INTER:                 -11.139
REMARK INTRA:                  -1.093
REMARK UNBOUND:                -1.320
REMARK  Name = 
REMARK  7 active torsions:
REMARK  status: ('A' for Active; 'I' for Inactive)
REMARK    1  A    between atoms: C_2  and  C_4
REMARK    2  A    between atoms: C_7  and  N_8
REMARK    3  A    between atoms: N_8  and  C_9
REMARK    4  A    between atoms: C_9  and  C_10
REMARK    5  A    between atoms: C_10  and  C_13
REMARK    6  A    between atoms: C_17  and  O_18
REMARK    7  A    between atoms: O_18  and  C_19
REMARK                            x       y       z     vdW  Elec       q    Type
REMARK                         _______ _______ _______ _____ _____    ______ ____
ROOT
ATOM      1  C   UNL     1      45.386   6.836  11.970  0.00  0.00    +0.000 C 
ATOM      2  F   UNL     1      45.035   7.410  13.158  0.00  0.00    +0.000 F 
ATOM      3  F   UNL     1      44.978   7.723  11.010  0.00  0.00    +0.000 F 
ENDROOT
BRANCH   1   4
ATOM      4  C   UNL     1      44.752   5.471  11.787  0.00  0.00    +0.000 A 
ATOM      5  C   UNL     1      43.922   4.932  12.778  0.00  0.00    +0.000 A 
ATOM      6  C   UNL     1      43.303   3.697  12.584  0.00  0.00    +0.000 A 
ATOM      7  C   UNL     1      43.511   2.979  11.403  0.00  0.00    +0.000 A 
ATOM      8  C   UNL     1      44.350   3.495  10.418  0.00  0.00    +0.000 A 
ATOM      9  C   UNL     1      44.957   4.739  10.605  0.00  0.00    +0.000 A 
BRANCH   8  10
ATOM     10  O   UNL     1      44.610   2.889   9.215  0.00  0.00    +0.000 OA
BRANCH  10  11
ATOM     11  C   UNL     1      45.960   2.890   8.700  0.00  0.00    +0.000 C 
ATOM     12  C   UNL     1      46.203   3.624   7.367  0.00  0.00    +0.000 C 
ATOM     13  C   UNL     1      46.964   2.393   6.847  0.00  0.00    +0.000 C 
ATOM     14  F   UNL     1      46.623   1.982   5.604  0.00  0.00    +0.000 F 
ATOM     15  F   UNL     1      48.311   2.498   6.863  0.00  0.00    +0.000 F 
ATOM     16  C   UNL     1      46.360   1.575   7.999  0.00  0.00    +0.000 C 
ENDBRANCH  10  11
ENDBRANCH   8  10
ENDBRANCH   1   4
BRANCH   1  17
ATOM     17  C   UNL     1      46.933   6.730  11.896  0.00  0.00    +0.000 C 
BRANCH  17  18
ATOM     18  N   UNL     1      47.585   6.958  13.196  0.00  0.00    +0.000 N 
ATOM     19  H   UNL     1      48.366   7.612  13.175  0.00  0.00    +0.000 HD
BRANCH  18  23
ATOM     20  C   UNL     1      47.753   4.081  16.270  0.00  0.00    +0.000 A 
ATOM     21  C   UNL     1      47.179   3.740  15.044  0.00  0.00    +0.000 A 
ATOM     22  C   UNL     1      47.140   4.678  14.003  0.00  0.00    +0.000 A 
ATOM     23  C   UNL     1      47.696   5.953  14.150  0.00  0.00    +0.000 A 
ATOM     24  C   UNL     1      48.263   6.278  15.392  0.00  0.00    +0.000 A 
ATOM     25  C   UNL     1      48.288   5.358  16.445  0.00  0.00    +0.000 A 
BRANCH  20  27
ATOM     26  N   UNL     1      48.929   2.993  18.105  0.00  0.00    +0.000 N 
ATOM     27  C   UNL     1      47.755   3.142  17.421  0.00  0.00    +0.000 C 
ATOM     28  O   UNL     1      46.744   2.545  17.767  0.00  0.00    +0.000 OA
ATOM     29  H   UNL     1      48.889   2.425  18.941  0.00  0.00    +0.000 HD
ATOM     30  H   UNL     1      49.695   3.644  18.014  0.00  0.00    +0.000 HD
ENDBRANCH  20  27
ENDBRANCH  18  23
ENDBRANCH  17  18
ENDBRANCH   1  17
TORSDOF 7
ENDMDL
MODEL 8
REMARK VINA RESULT:    -7.456      3.853      8.598
REMARK INTER + INTRA:         -11.827
REMARK INTER:                 -11.036
REMARK INTRA:                  -0.791
REMARK UNBOUND:                -1.320
REMARK  Name = 
REMARK  7 active torsions:
REMARK  status: ('A' for Active; 'I' for Inactive)
REMARK    1  A    between atoms: C_2  and  C_4
REMARK    2  A    between atoms: C_7  and  N_8
REMARK    3  A    between atoms: N_8  and  C_9
REMARK    4  A    between atoms: C_9  and  C_10
REMARK    5  A    between atoms: C_10  and  C_13
REMARK    6  A    between atoms: C_17  and  O_18
REMARK    7  A    between atoms: O_18  and  C_19
REMARK                            x       y       z     vdW  Elec       q    Type
REMARK                         _______ _______ _______ _____ _____    ______ ____
ROOT
ATOM      1  C   UNL     1      46.345   6.460  12.430  0.00  0.00    +0.000 C 
ATOM      2  F   UNL     1      45.604   7.240  13.272  0.00  0.00    +0.000 F 
ATOM      3  F   UNL     1      47.137   7.337  11.735  0.00  0.00    +0.000 F 
ENDROOT
BRANCH   1   4
ATOM      4  C   UNL     1      45.474   5.630  11.508  0.00  0.00    +0.000 A 
ATOM      5  C   UNL     1      44.269   5.083  11.966  0.00  0.00    +0.000 A 
ATOM      6  C   UNL     1      43.448   4.359  11.100  0.00  0.00    +0.000 A 
ATOM      7  C   UNL     1      43.823   4.165   9.768  0.00  0.00    +0.000 A 
ATOM      8  C   UNL     1      45.028   4.688   9.305  0.00  0.00    +0.000 A 
ATOM      9  C   UNL     1      45.843   5.425  10.167  0.00  0.00    +0.000 A 
BRANCH   8  10
ATOM     10  O   UNL     1      45.486   4.577   8.016  0.00  0.00    +0.000 OA
BRANCH  10  11
ATOM     11  C   UNL     1      45.574   3.269   7.407  0.00  0.00    +0.000 C 
ATOM     12  C   UNL     1      46.271   2.160   8.220  0.00  0.00    +0.000 C 
ATOM     13  C   UNL     1      47.112   1.805   6.984  0.00  0.00    +0.000 C 
ATOM     14  F   UNL     1      48.438   1.654   7.207  0.00  0.00    +0.000 F 
ATOM     15  F   UNL     1      46.706   0.708   6.307  0.00  0.00    +0.000 F 
ATOM     16  C   UNL     1      46.699   3.146   6.358  0.00  0.00    +0.000 C 
ENDBRANCH  10  11
ENDBRANCH   8  10
ENDBRANCH   1   4
BRANCH   1  17
ATOM     17  C   UNL     1      47.273   5.544  13.272  0.00  0.00    +0.000 C 
BRANCH  17  18
ATOM     18  N   UNL     1      46.642   5.086  14.520  0.00  0.00    +0.000 N 
ATOM     19  H   UNL     1      45.714   5.468  14.697  0.00  0.00    +0.000 HD
BRANCH  18  23
ATOM     20  C   UNL     1      48.782   4.513  18.105  0.00  0.00    +0.000 A 
ATOM     21  C   UNL     1      47.840   3.561  17.710  0.00  0.00    +0.000 A 
ATOM     22  C   UNL     1      47.140   3.724  16.507  0.00  0.00    +0.000 A 
ATOM     23  C   UNL     1      47.384   4.813  15.664  0.00  0.00    +0.000 A 
ATOM     24  C   UNL     1      48.331   5.762  16.081  0.00  0.00    +0.000 A 
ATOM     25  C   UNL     1      49.019   5.620  17.291  0.00  0.00    +0.000 A 
BRANCH  20  27
ATOM     26  N   UNL     1      50.862   4.360  19.364  0.00  0.00    +0.000 N 
ATOM     27  C   UNL     1      49.497   4.414  19.404  0.00  0.00    +0.000 C 
ATOM     28  O   UNL     1      48.897   4.411  20.470  0.00  0.00    +0.000 OA
ATOM     29  H   UNL     1      51.335   4.389  20.257  0.00  0.00    +0.000 HD
ATOM     30  H   UNL     1      51.390   4.613  18.541  0.00  0.00    +0.000 HD
ENDBRANCH  20  27
ENDBRANCH  18  23
ENDBRANCH  17  18
ENDBRANCH   1  17
TORSDOF 7
ENDMDL
MODEL 9
REMARK VINA RESULT:    -7.223      4.074      8.357
REMARK INTER + INTRA:         -11.499
REMARK INTER:                 -10.872
REMARK INTRA:                  -0.627
REMARK UNBOUND:                -1.320
REMARK  Name = 
REMARK  7 active torsions:
REMARK  status: ('A' for Active; 'I' for Inactive)
REMARK    1  A    between atoms: C_2  and  C_4
REMARK    2  A    between atoms: C_7  and  N_8
REMARK    3  A    between atoms: N_8  and  C_9
REMARK    4  A    between atoms: C_9  and  C_10
REMARK    5  A    between atoms: C_10  and  C_13
REMARK    6  A    between atoms: C_17  and  O_18
REMARK    7  A    between atoms: O_18  and  C_19
REMARK                            x       y       z     vdW  Elec       q    Type
REMARK                         _______ _______ _______ _____ _____    ______ ____
ROOT
ATOM      1  C   UNL     1      46.743   5.239  13.566  0.00  0.00    +0.000 C 
ATOM      2  F   UNL     1      46.803   6.479  14.137  0.00  0.00    +0.000 F 
ATOM      3  F   UNL     1      47.902   5.121  12.846  0.00  0.00    +0.000 F 
ENDROOT
BRANCH   1   4
ATOM      4  C   UNL     1      45.514   5.074  12.694  0.00  0.00    +0.000 A 
ATOM      5  C   UNL     1      44.571   6.104  12.587  0.00  0.00    +0.000 A 
ATOM      6  C   UNL     1      43.466   5.965  11.746  0.00  0.00    +0.000 A 
ATOM      7  C   UNL     1      43.282   4.793  11.008  0.00  0.00    +0.000 A 
ATOM      8  C   UNL     1      44.203   3.754  11.120  0.00  0.00    +0.000 A 
ATOM      9  C   UNL     1      45.317   3.898  11.950  0.00  0.00    +0.000 A 
BRANCH   8  10
ATOM     10  O   UNL     1      44.135   2.570  10.430  0.00  0.00    +0.000 OA
BRANCH  10  11
ATOM     11  C   UNL     1      44.442   2.556   9.018  0.00  0.00    +0.000 C 
ATOM     12  C   UNL     1      45.898   2.246   8.618  0.00  0.00    +0.000 C 
ATOM     13  C   UNL     1      45.885   3.469   7.687  0.00  0.00    +0.000 C 
ATOM     14  F   UNL     1      46.960   4.285   7.786  0.00  0.00    +0.000 F 
ATOM     15  F   UNL     1      45.729   3.193   6.374  0.00  0.00    +0.000 F 
ATOM     16  C   UNL     1      44.619   3.961   8.405  0.00  0.00    +0.000 C 
ENDBRANCH  10  11
ENDBRANCH   8  10
ENDBRANCH   1   4
BRANCH   1  17
ATOM     17  C   UNL     1      46.764   4.164  14.685  0.00  0.00    +0.000 C 
BRANCH  17  18
ATOM     18  N   UNL     1      47.112   4.717  16.004  0.00  0.00    +0.000 N 
ATOM     19  H   UNL     1      46.765   5.660  16.178  0.00  0.00    +0.000 HD
BRANCH  18  23
ATOM     20  C   UNL     1      50.826   3.641  17.678  0.00  0.00    +0.000 A 
ATOM     21  C   UNL     1      50.543   4.989  17.448  0.00  0.00    +0.000 A 
ATOM     22  C   UNL     1      49.301   5.364  16.917  0.00  0.00    +0.000 A 
ATOM     23  C   UNL     1      48.313   4.416  16.636  0.00  0.00    +0.000 A 
ATOM     24  C   UNL     1      48.618   3.066  16.869  0.00  0.00    +0.000 A 
ATOM     25  C   UNL     1      49.862   2.678  17.378  0.00  0.00    +0.000 A 
BRANCH  20  27
ATOM     26  N   UNL     1      52.334   1.850  18.353  0.00  0.00    +0.000 N 
ATOM     27  C   UNL     1      52.152   3.194  18.176  0.00  0.00    +0.000 C 
ATOM     28  O   UNL     1      53.059   3.986  18.392  0.00  0.00    +0.000 OA
ATOM     29  H   UNL     1      53.269   1.556  18.600  0.00  0.00    +0.000 HD
ATOM     30  H   UNL     1      51.713   1.163  17.950  0.00  0.00    +0.000 HD
ENDBRANCH  20  27
ENDBRANCH  18  23
ENDBRANCH  17  18
ENDBRANCH   1  17
TORSDOF 7
ENDMDL
