MODEL 1
REMARK VINA RESULT:    -9.164      0.000      0.000
REMARK INTER + INTRA:         -13.884
REMARK INTER:                 -12.915
REMARK INTRA:                  -0.970
REMARK UNBOUND:                -0.970
REMARK  Name = 
REMARK  7 active torsions:
REMARK  status: ('A' for Active; 'I' for Inactive)
REMARK    1  A    between atoms: C_2  and  C_20
REMARK    2  A    between atoms: N_3  and  C_4
REMARK    3  A    between atoms: C_4  and  C_5
REMARK    4  A    between atoms: C_9  and  C_10
REMARK    5  A    between atoms: C_10  and  N_11
REMARK    6  A    between atoms: N_11  and  C_12
REMARK    7  A    between atoms: C_12  and  C_13
REMARK                            x       y       z     vdW  Elec       q    Type
REMARK                         _______ _______ _______ _____ _____    ______ ____
ROOT
ATOM      1  C   UNL     1      46.123   3.974  14.630  0.00  0.00    +0.000 C 
ENDROOT
BRANCH   1   2
ATOM      2  C   UNL     1      45.958   4.814  13.391  0.00  0.00    +0.000 A 
ATOM      3  C   UNL     1      46.971   5.702  13.005  0.00  0.00    +0.000 A 
ATOM      4  C   UNL     1      46.860   6.426  11.820  0.00  0.00    +0.000 A 
ATOM      5  C   UNL     1      45.740   6.265  11.006  0.00  0.00    +0.000 A 
ATOM      6  C   UNL     1      44.710   5.385  11.373  0.00  0.00    +0.000 A 
ATOM      7  C   UNL     1      44.813   4.692  12.589  0.00  0.00    +0.000 A 
BRANCH   6   8
ATOM      8  C   UNL     1      43.554   5.126  10.432  0.00  0.00    +0.000 C 
BRANCH   8   9
ATOM      9  N   UNL     1      44.049   4.502   9.207  0.00  0.00    +0.000 NA
ATOM     10  H   UNL     1      44.827   5.050   8.842  0.00  0.00    +0.000 HD
BRANCH   9  11
ATOM     11  C   UNL     1      44.486   3.127   9.410  0.00  0.00    +0.000 C 
BRANCH  11  12
ATOM     12  C   UNL     1      45.530   2.736   8.385  0.00  0.00    +0.000 A 
ATOM     13  C   UNL     1      46.052   3.678   7.487  0.00  0.00    +0.000 A 
ATOM     14  C   UNL     1      47.047   3.312   6.574  0.00  0.00    +0.000 A 
ATOM     15  C   UNL     1      47.525   2.003   6.546  0.00  0.00    +0.000 A 
ATOM     16  C   UNL     1      47.002   1.054   7.420  0.00  0.00    +0.000 A 
ATOM     17  C   UNL     1      46.011   1.418   8.333  0.00  0.00    +0.000 A 
ENDBRANCH  11  12
ENDBRANCH   9  11
ENDBRANCH   8   9
ENDBRANCH   6   8
ENDBRANCH   1   2
BRANCH   1  20
ATOM     18  O   UNL     1      46.683   3.290  17.295  0.00  0.00    +0.000 OA
ATOM     19  C   UNL     1      47.528   3.902  16.647  0.00  0.00    +0.000 C 
ATOM     20  N   UNL     1      47.322   4.301  15.353  0.00  0.00    +0.000 N 
ATOM     21  H   UNL     1      48.102   4.646  14.804  0.00  0.00    +0.000 HD
BRANCH  19  22
ATOM     22  C   UNL     1      48.806   4.300  17.248  0.00  0.00    +0.000 A 
ATOM     23  C   UNL     1      48.936   5.560  17.818  0.00  0.00    +0.000 A 
ATOM     24  S   UNL     1      50.477   5.847  18.490  0.00  0.00    +0.000 S 
ATOM     25  C   UNL     1      51.010   4.285  18.072  0.00  0.00    +0.000 A 
ATOM     26  N   UNL     1      52.258   3.860  18.407  0.00  0.00    +0.000 NA
ATOM     27  C   UNL     1      52.515   2.642  18.056  0.00  0.00    +0.000 A 
ATOM     28  N   UNL     1      51.647   1.820  17.388  0.00  0.00    +0.000 N 
ATOM     29  C   UNL     1      50.410   2.235  16.956  0.00  0.00    +0.000 A 
ATOM     30  O   UNL     1      49.724   1.533  16.222  0.00  0.00    +0.000 OA
ATOM     31  C   UNL     1      50.043   3.574  17.387  0.00  0.00    +0.000 A 
ATOM     32  H   UNL     1      51.928   0.895  17.104  0.00  0.00    +0.000 HD
ENDBRANCH  19  22
ENDBRANCH   1  20
TORSDOF 7
ENDMDL
MODEL 2
REMARK VINA RESULT:    -9.083      1.244      1.477
REMARK INTER + INTRA:         -13.769
REMARK INTER:                 -12.650
REMARK INTRA:                  -1.119
REMARK UNBOUND:                -0.970
REMARK  Name = 
REMARK  7 active torsions:
REMARK  status: ('A' for Active; 'I' for Inactive)
REMARK    1  A    between atoms: C_2  and  C_20
REMARK    2  A    between atoms: N_3  and  C_4
REMARK    3  A    between atoms: C_4  and  C_5
REMARK    4  A    between atoms: C_9  and  C_10
REMARK    5  A    between atoms: C_10  and  N_11
REMARK    6  A    between atoms: N_11  and  C_12
REMARK    7  A    between atoms: C_12  and  C_13
REMARK                            x       y       z     vdW  Elec       q    Type
REMARK                         _______ _______ _______ _____ _____    ______ ____
ROOT
ATOM      1  C   UNL     1      46.952   3.834  14.551  0.00  0.00    +0.000 C 
ENDROOT
BRANCH   1   2
ATOM      2  C   UNL     1      46.505   4.848  13.531  0.00  0.00    +0.000 A 
ATOM      3  C   UNL     1      47.398   5.827  13.076  0.00  0.00    +0.000 A 
ATOM      4  C   UNL     1      47.017   6.721  12.077  0.00  0.00    +0.000 A 
ATOM      5  C   UNL     1      45.743   6.640  11.518  0.00  0.00    +0.000 A 
ATOM      6  C   UNL     1      44.828   5.671  11.960  0.00  0.00    +0.000 A 
ATOM      7  C   UNL     1      45.209   4.803  12.995  0.00  0.00    +0.000 A 
BRANCH   6   8
ATOM      8  C   UNL     1      43.491   5.512  11.271  0.00  0.00    +0.000 C 
BRANCH   8   9
ATOM      9  N   UNL     1      43.687   4.919   9.950  0.00  0.00    +0.000 NA
ATOM     10  H   UNL     1      44.449   5.402   9.476  0.00  0.00    +0.000 HD
BRANCH   9  11
ATOM     11  C   UNL     1      43.985   3.494  10.008  0.00  0.00    +0.000 C 
BRANCH  11  12
ATOM     12  C   UNL     1      45.032   3.120   8.980  0.00  0.00    +0.000 A 
ATOM     13  C   UNL     1      45.613   4.090   8.152  0.00  0.00    +0.000 A 
ATOM     14  C   UNL     1      46.610   3.737   7.236  0.00  0.00    +0.000 A 
ATOM     15  C   UNL     1      47.032   2.411   7.136  0.00  0.00    +0.000 A 
ATOM     16  C   UNL     1      46.450   1.436   7.941  0.00  0.00    +0.000 A 
ATOM     17  C   UNL     1      45.456   1.788   8.857  0.00  0.00    +0.000 A 
ENDBRANCH  11  12
ENDBRANCH   9  11
ENDBRANCH   8   9
ENDBRANCH   6   8
ENDBRANCH   1   2
BRANCH   1  20
ATOM     18  O   UNL     1      46.433   3.177  17.231  0.00  0.00    +0.000 OA
ATOM     19  C   UNL     1      47.262   4.048  16.982  0.00  0.00    +0.000 C 
ATOM     20  N   UNL     1      47.550   4.451  15.704  0.00  0.00    +0.000 N 
ATOM     21  H   UNL     1      48.357   5.041  15.535  0.00  0.00    +0.000 HD
BRANCH  19  22
ATOM     22  C   UNL     1      47.962   4.762  18.055  0.00  0.00    +0.000 A 
ATOM     23  C   UNL     1      47.275   5.693  18.824  0.00  0.00    +0.000 A 
ATOM     24  S   UNL     1      48.231   6.409  20.040  0.00  0.00    +0.000 S 
ATOM     25  C   UNL     1      49.585   5.475  19.601  0.00  0.00    +0.000 A 
ATOM     26  N   UNL     1      50.754   5.571  20.290  0.00  0.00    +0.000 NA
ATOM     27  C   UNL     1      51.686   4.780  19.868  0.00  0.00    +0.000 A 
ATOM     28  N   UNL     1      51.560   3.917  18.812  0.00  0.00    +0.000 N 
ATOM     29  C   UNL     1      50.428   3.847  18.037  0.00  0.00    +0.000 A 
ATOM     30  O   UNL     1      50.403   3.186  17.005  0.00  0.00    +0.000 OA
ATOM     31  C   UNL     1      49.325   4.665  18.513  0.00  0.00    +0.000 A 
ATOM     32  H   UNL     1      52.342   3.360  18.506  0.00  0.00    +0.000 HD
ENDBRANCH  19  22
ENDBRANCH   1  20
TORSDOF 7
ENDMDL
MODEL 3
REMARK VINA RESULT:    -9.065      2.042      3.115
REMARK INTER + INTRA:         -13.744
REMARK INTER:                 -12.222
REMARK INTRA:                  -1.522
REMARK UNBOUND:                -0.970
REMARK  Name = 
REMARK  7 active torsions:
REMARK  status: ('A' for Active; 'I' for Inactive)
REMARK    1  A    between atoms: C_2  and  C_20
REMARK    2  A    between atoms: N_3  and  C_4
REMARK    3  A    between atoms: C_4  and  C_5
REMARK    4  A    between atoms: C_9  and  C_10
REMARK    5  A    between atoms: C_10  and  N_11
REMARK    6  A    between atoms: N_11  and  C_12
REMARK    7  A    between atoms: C_12  and  C_13
REMARK                            x       y       z     vdW  Elec       q    Type
REMARK                         _______ _______ _______ _____ _____    ______ ____
ROOT
ATOM      1  C   UNL     1      47.283   6.740  11.673  0.00  0.00    +0.000 C 
ENDROOT
BRANCH   1   2
ATOM      2  C   UNL     1      45.818   6.410  11.576  0.00  0.00    +0.000 A 
ATOM      3  C   UNL     1      44.869   7.438  11.505  0.00  0.00    +0.000 A 
ATOM      4  C   UNL     1      43.518   7.142  11.337  0.00  0.00    +0.000 A 
ATOM      5  C   UNL     1      43.103   5.815  11.232  0.00  0.00    +0.000 A 
ATOM      6  C   UNL     1      44.033   4.766  11.305  0.00  0.00    +0.000 A 
ATOM      7  C   UNL     1      45.386   5.076  11.515  0.00  0.00    +0.000 A 
BRANCH   6   8
ATOM      8  C   UNL     1      43.594   3.338  11.073  0.00  0.00    +0.000 C 
BRANCH   8   9
ATOM      9  N   UNL     1      44.739   2.534  10.652  0.00  0.00    +0.000 NA
ATOM     10  H   UNL     1      44.942   1.839  11.369  0.00  0.00    +0.000 HD
BRANCH   9  11
ATOM     11  C   UNL     1      44.518   1.859   9.380  0.00  0.00    +0.000 C 
BRANCH  11  12
ATOM     12  C   UNL     1      45.643   2.155   8.411  0.00  0.00    +0.000 A 
ATOM     13  C   UNL     1      46.486   1.137   7.946  0.00  0.00    +0.000 A 
ATOM     14  C   UNL     1      47.495   1.418   7.018  0.00  0.00    +0.000 A 
ATOM     15  C   UNL     1      47.672   2.719   6.550  0.00  0.00    +0.000 A 
ATOM     16  C   UNL     1      46.852   3.743   7.017  0.00  0.00    +0.000 A 
ATOM     17  C   UNL     1      45.844   3.463   7.941  0.00  0.00    +0.000 A 
ENDBRANCH  11  12
ENDBRANCH   9  11
ENDBRANCH   8   9
ENDBRANCH   6   8
ENDBRANCH   1   2
BRANCH   1  20
ATOM     18  O   UNL     1      47.613   8.236  14.027  0.00  0.00    +0.000 OA
ATOM     19  C   UNL     1      47.963   7.059  14.016  0.00  0.00    +0.000 C 
ATOM     20  N   UNL     1      47.866   6.269  12.900  0.00  0.00    +0.000 N 
ATOM     21  H   UNL     1      48.001   5.267  12.983  0.00  0.00    +0.000 HD
BRANCH  19  22
ATOM     22  C   UNL     1      48.568   6.434  15.197  0.00  0.00    +0.000 A 
ATOM     23  C   UNL     1      49.682   7.015  15.787  0.00  0.00    +0.000 A 
ATOM     24  S   UNL     1      50.241   6.174  17.162  0.00  0.00    +0.000 S 
ATOM     25  C   UNL     1      48.991   5.025  17.033  0.00  0.00    +0.000 A 
ATOM     26  N   UNL     1      48.862   4.027  17.948  0.00  0.00    +0.000 NA
ATOM     27  C   UNL     1      47.849   3.248  17.745  0.00  0.00    +0.000 A 
ATOM     28  N   UNL     1      46.968   3.367  16.703  0.00  0.00    +0.000 N 
ATOM     29  C   UNL     1      47.108   4.306  15.711  0.00  0.00    +0.000 A 
ATOM     30  O   UNL     1      46.401   4.285  14.710  0.00  0.00    +0.000 OA
ATOM     31  C   UNL     1      48.190   5.253  15.930  0.00  0.00    +0.000 A 
ATOM     32  H   UNL     1      46.225   2.697  16.577  0.00  0.00    +0.000 HD
ENDBRANCH  19  22
ENDBRANCH   1  20
TORSDOF 7
ENDMDL
MODEL 4
REMARK VINA RESULT:    -8.908      2.046      2.331
REMARK INTER + INTRA:         -13.523
REMARK INTER:                 -12.407
REMARK INTRA:                  -1.116
REMARK UNBOUND:                -0.970
REMARK  Name = 
REMARK  7 active torsions:
REMARK  status: ('A' for Active; 'I' for Inactive)
REMARK    1  A    between atoms: C_2  and  C_20
REMARK    2  A    between atoms: N_3  and  C_4
REMARK    3  A    between atoms: C_4  and  C_5
REMARK    4  A    between atoms: C_9  and  C_10
REMARK    5  A    between atoms: C_10  and  N_11
REMARK    6  A    between atoms: N_11  and  C_12
REMARK    7  A    between atoms: C_12  and  C_13
REMARK                            x       y       z     vdW  Elec       q    Type
REMARK                         _______ _______ _______ _____ _____    ______ ____
ROOT
ATOM      1  C   UNL     1      46.760   4.031  14.494  0.00  0.00    +0.000 C 
ENDROOT
BRANCH   1   2
ATOM      2  C   UNL     1      46.332   4.856  13.310  0.00  0.00    +0.000 A 
ATOM      3  C   UNL     1      47.163   5.875  12.826  0.00  0.00    +0.000 A 
ATOM      4  C   UNL     1      46.811   6.592  11.685  0.00  0.00    +0.000 A 
ATOM      5  C   UNL     1      45.628   6.292  11.011  0.00  0.00    +0.000 A 
ATOM      6  C   UNL     1      44.775   5.280  11.478  0.00  0.00    +0.000 A 
ATOM      7  C   UNL     1      45.121   4.592  12.652  0.00  0.00    +0.000 A 
BRANCH   6   8
ATOM      8  C   UNL     1      43.554   4.880  10.679  0.00  0.00    +0.000 C 
BRANCH   8   9
ATOM      9  N   UNL     1      43.968   4.322   9.395  0.00  0.00    +0.000 NA
ATOM     10  H   UNL     1      44.691   4.914   8.990  0.00  0.00    +0.000 HD
BRANCH   9  11
ATOM     11  C   UNL     1      44.471   2.959   9.508  0.00  0.00    +0.000 C 
BRANCH  11  12
ATOM     12  C   UNL     1      45.501   2.675   8.435  0.00  0.00    +0.000 A 
ATOM     13  C   UNL     1      45.961   3.690   7.584  0.00  0.00    +0.000 A 
ATOM     14  C   UNL     1      46.945   3.422   6.626  0.00  0.00    +0.000 A 
ATOM     15  C   UNL     1      47.474   2.137   6.506  0.00  0.00    +0.000 A 
ATOM     16  C   UNL     1      47.012   1.116   7.333  0.00  0.00    +0.000 A 
ATOM     17  C   UNL     1      46.033   1.383   8.290  0.00  0.00    +0.000 A 
ENDBRANCH  11  12
ENDBRANCH   9  11
ENDBRANCH   8   9
ENDBRANCH   6   8
ENDBRANCH   1   2
BRANCH   1  20
ATOM     18  O   UNL     1      46.752   3.264  17.196  0.00  0.00    +0.000 OA
ATOM     19  C   UNL     1      47.160   4.383  16.895  0.00  0.00    +0.000 C 
ATOM     20  N   UNL     1      47.167   4.846  15.606  0.00  0.00    +0.000 N 
ATOM     21  H   UNL     1      47.668   5.699  15.383  0.00  0.00    +0.000 HD
BRANCH  19  22
ATOM     22  C   UNL     1      47.617   5.326  17.921  0.00  0.00    +0.000 A 
ATOM     23  C   UNL     1      46.856   5.518  19.068  0.00  0.00    +0.000 A 
ATOM     24  S   UNL     1      47.545   6.628  20.163  0.00  0.00    +0.000 S 
ATOM     25  C   UNL     1      48.898   6.864  19.158  0.00  0.00    +0.000 A 
ATOM     26  N   UNL     1      49.917   7.683  19.537  0.00  0.00    +0.000 NA
ATOM     27  C   UNL     1      50.894   7.741  18.691  0.00  0.00    +0.000 A 
ATOM     28  N   UNL     1      50.936   7.070  17.498  0.00  0.00    +0.000 N 
ATOM     29  C   UNL     1      49.896   6.299  17.038  0.00  0.00    +0.000 A 
ATOM     30  O   UNL     1      49.896   5.845  15.900  0.00  0.00    +0.000 OA
ATOM     31  C   UNL     1      48.803   6.143  17.983  0.00  0.00    +0.000 A 
ATOM     32  H   UNL     1      51.709   7.195  16.864  0.00  0.00    +0.000 HD
ENDBRANCH  19  22
ENDBRANCH   1  20
TORSDOF 7
ENDMDL
MODEL 5
REMARK VINA RESULT:    -8.454      2.101      2.637
REMARK INTER + INTRA:         -12.884
REMARK INTER:                 -11.878
REMARK INTRA:                  -1.006
REMARK UNBOUND:                -0.970
REMARK  Name = 
REMARK  7 active torsions:
REMARK  status: ('A' for Active; 'I' for Inactive)
REMARK    1  A    between atoms: C_2  and  C_20
REMARK    2  A    between atoms: N_3  and  C_4
REMARK    3  A    between atoms: C_4  and  C_5
REMARK    4  A    between atoms: C_9  and  C_10
REMARK    5  A    between atoms: C_10  and  N_11
REMARK    6  A    between atoms: N_11  and  C_12
REMARK    7  A    between atoms: C_12  and  C_13
REMARK                            x       y       z     vdW  Elec       q    Type
REMARK                         _______ _______ _______ _____ _____    ______ ____
ROOT
ATOM      1  C   UNL     1      48.029   6.531  13.406  0.00  0.00    +0.000 C 
ENDROOT
BRANCH   1   2
ATOM      2  C   UNL     1      46.677   6.330  12.776  0.00  0.00    +0.000 A 
ATOM      3  C   UNL     1      46.069   7.374  12.067  0.00  0.00    +0.000 A 
ATOM      4  C   UNL     1      44.854   7.173  11.417  0.00  0.00    +0.000 A 
ATOM      5  C   UNL     1      44.238   5.923  11.462  0.00  0.00    +0.000 A 
ATOM      6  C   UNL     1      44.824   4.862  12.169  0.00  0.00    +0.000 A 
ATOM      7  C   UNL     1      46.027   5.088  12.854  0.00  0.00    +0.000 A 
BRANCH   6   8
ATOM      8  C   UNL     1      44.212   3.479  12.117  0.00  0.00    +0.000 C 
BRANCH   8   9
ATOM      9  N   UNL     1      44.951   2.650  11.168  0.00  0.00    +0.000 NA
ATOM     10  H   UNL     1      45.038   1.707  11.543  0.00  0.00    +0.000 HD
BRANCH   9  11
ATOM     11  C   UNL     1      44.316   2.588   9.858  0.00  0.00    +0.000 C 
BRANCH  11  12
ATOM     12  C   UNL     1      45.353   2.614   8.755  0.00  0.00    +0.000 A 
ATOM     13  C   UNL     1      45.699   3.811   8.113  0.00  0.00    +0.000 A 
ATOM     14  C   UNL     1      46.690   3.827   7.125  0.00  0.00    +0.000 A 
ATOM     15  C   UNL     1      47.339   2.646   6.766  0.00  0.00    +0.000 A 
ATOM     16  C   UNL     1      46.992   1.447   7.384  0.00  0.00    +0.000 A 
ATOM     17  C   UNL     1      46.006   1.431   8.371  0.00  0.00    +0.000 A 
ENDBRANCH  11  12
ENDBRANCH   9  11
ENDBRANCH   8   9
ENDBRANCH   6   8
ENDBRANCH   1   2
BRANCH   1  20
ATOM     18  O   UNL     1      50.211   6.721  15.164  0.00  0.00    +0.000 OA
ATOM     19  C   UNL     1      49.073   6.718  15.626  0.00  0.00    +0.000 C 
ATOM     20  N   UNL     1      47.956   6.596  14.840  0.00  0.00    +0.000 N 
ATOM     21  H   UNL     1      47.041   6.772  15.240  0.00  0.00    +0.000 HD
BRANCH  19  22
ATOM     22  C   UNL     1      48.838   6.786  17.072  0.00  0.00    +0.000 A 
ATOM     23  C   UNL     1      48.471   7.993  17.653  0.00  0.00    +0.000 A 
ATOM     24  S   UNL     1      48.214   7.888  19.336  0.00  0.00    +0.000 S 
ATOM     25  C   UNL     1      48.551   6.219  19.337  0.00  0.00    +0.000 A 
ATOM     26  N   UNL     1      48.464   5.490  20.482  0.00  0.00    +0.000 NA
ATOM     27  C   UNL     1      48.714   4.230  20.330  0.00  0.00    +0.000 A 
ATOM     28  N   UNL     1      49.058   3.640  19.143  0.00  0.00    +0.000 N 
ATOM     29  C   UNL     1      49.239   4.350  17.981  0.00  0.00    +0.000 A 
ATOM     30  O   UNL     1      49.703   3.821  16.977  0.00  0.00    +0.000 OA
ATOM     31  C   UNL     1      48.901   5.760  18.082  0.00  0.00    +0.000 A 
ATOM     32  H   UNL     1      49.285   2.659  19.102  0.00  0.00    +0.000 HD
ENDBRANCH  19  22
ENDBRANCH   1  20
TORSDOF 7
ENDMDL
MODEL 6
REMARK VINA RESULT:    -8.250      2.147      3.220
REMARK INTER + INTRA:         -12.596
REMARK INTER:                 -11.556
REMARK INTRA:                  -1.040
REMARK UNBOUND:                -0.970
REMARK  Name = 
REMARK  7 active torsions:
REMARK  status: ('A' for Active; 'I' for Inactive)
REMARK    1  A    between atoms: C_2  and  C_20
REMARK    2  A    between atoms: N_3  and  C_4
REMARK    3  A    between atoms: C_4  and  C_5
REMARK    4  A    between atoms: C_9  and  C_10
REMARK    5  A    between atoms: C_10  and  N_11
REMARK    6  A    between atoms: N_11  and  C_12
REMARK    7  A    between atoms: C_12  and  C_13
REMARK                            x       y       z     vdW  Elec       q    Type
REMARK                         _______ _______ _______ _____ _____    ______ ____
ROOT
ATOM      1  C   UNL     1      47.111   4.192  15.163  0.00  0.00    +0.000 C 
ENDROOT
BRANCH   1   2
ATOM      2  C   UNL     1      46.636   4.822  13.881  0.00  0.00    +0.000 A 
ATOM      3  C   UNL     1      47.207   6.021  13.434  0.00  0.00    +0.000 A 
ATOM      4  C   UNL     1      46.827   6.571  12.212  0.00  0.00    +0.000 A 
ATOM      5  C   UNL     1      45.879   5.924  11.421  0.00  0.00    +0.000 A 
ATOM      6  C   UNL     1      45.289   4.725  11.848  0.00  0.00    +0.000 A 
ATOM      7  C   UNL     1      45.649   4.202  13.100  0.00  0.00    +0.000 A 
BRANCH   6   8
ATOM      8  C   UNL     1      44.349   3.967  10.936  0.00  0.00    +0.000 C 
BRANCH   8   9
ATOM      9  N   UNL     1      44.915   2.656  10.628  0.00  0.00    +0.000 NA
ATOM     10  H   UNL     1      44.643   1.995  11.353  0.00  0.00    +0.000 HD
BRANCH   9  11
ATOM     11  C   UNL     1      44.488   2.148   9.331  0.00  0.00    +0.000 C 
BRANCH  11  12
ATOM     12  C   UNL     1      45.603   2.262   8.313  0.00  0.00    +0.000 A 
ATOM     13  C   UNL     1      46.437   1.173   8.025  0.00  0.00    +0.000 A 
ATOM     14  C   UNL     1      47.436   1.281   7.052  0.00  0.00    +0.000 A 
ATOM     15  C   UNL     1      47.614   2.479   6.362  0.00  0.00    +0.000 A 
ATOM     16  C   UNL     1      46.805   3.574   6.651  0.00  0.00    +0.000 A 
ATOM     17  C   UNL     1      45.806   3.467   7.620  0.00  0.00    +0.000 A 
ENDBRANCH  11  12
ENDBRANCH   9  11
ENDBRANCH   8   9
ENDBRANCH   6   8
ENDBRANCH   1   2
BRANCH   1  20
ATOM     18  O   UNL     1      49.274   3.583  16.848  0.00  0.00    +0.000 OA
ATOM     19  C   UNL     1      48.891   4.747  16.768  0.00  0.00    +0.000 C 
ATOM     20  N   UNL     1      47.824   5.123  15.995  0.00  0.00    +0.000 N 
ATOM     21  H   UNL     1      47.652   6.108  15.823  0.00  0.00    +0.000 HD
BRANCH  19  22
ATOM     22  C   UNL     1      49.525   5.812  17.552  0.00  0.00    +0.000 A 
ATOM     23  C   UNL     1      50.856   6.137  17.321  0.00  0.00    +0.000 A 
ATOM     24  S   UNL     1      51.425   7.411  18.301  0.00  0.00    +0.000 S 
ATOM     25  C   UNL     1      49.903   7.594  19.041  0.00  0.00    +0.000 A 
ATOM     26  N   UNL     1      49.689   8.566  19.969  0.00  0.00    +0.000 NA
ATOM     27  C   UNL     1      48.478   8.610  20.422  0.00  0.00    +0.000 A 
ATOM     28  N   UNL     1      47.471   7.762  20.045  0.00  0.00    +0.000 N 
ATOM     29  C   UNL     1      47.663   6.716  19.175  0.00  0.00    +0.000 A 
ATOM     30  O   UNL     1      46.788   5.880  18.983  0.00  0.00    +0.000 OA
ATOM     31  C   UNL     1      48.989   6.665  18.582  0.00  0.00    +0.000 A 
ATOM     32  H   UNL     1      46.560   7.822  20.471  0.00  0.00    +0.000 HD
ENDBRANCH  19  22
ENDBRANCH   1  20
TORSDOF 7
ENDMDL
MODEL 7
REMARK VINA RESULT:    -7.908      4.405      5.525
REMARK INTER + INTRA:         -12.113
REMARK INTER:                 -11.007
REMARK INTRA:                  -1.106
REMARK UNBOUND:                -0.970
REMARK  Name = 
REMARK  7 active torsions:
REMARK  status: ('A' for Active; 'I' for Inactive)
REMARK    1  A    between atoms: C_2  and  C_20
REMARK    2  A    between atoms: N_3  and  C_4
REMARK    3  A    between atoms: C_4  and  C_5
REMARK    4  A    between atoms: C_9  and  C_10
REMARK    5  A    between atoms: C_10  and  N_11
REMARK    6  A    between atoms: N_11  and  C_12
REMARK    7  A    between atoms: C_12  and  C_13
REMARK                            x       y       z     vdW  Elec       q    Type
REMARK                         _______ _______ _______ _____ _____    ______ ____
ROOT
ATOM      1  C   UNL     1      45.422   7.552  12.842  0.00  0.00    +0.000 C 
ENDROOT
BRANCH   1   2
ATOM      2  C   UNL     1      45.587   6.057  12.793  0.00  0.00    +0.000 A 
ATOM      3  C   UNL     1      46.624   5.440  13.506  0.00  0.00    +0.000 A 
ATOM      4  C   UNL     1      46.738   4.052  13.527  0.00  0.00    +0.000 A 
ATOM      5  C   UNL     1      45.812   3.266  12.843  0.00  0.00    +0.000 A 
ATOM      6  C   UNL     1      44.767   3.859  12.117  0.00  0.00    +0.000 A 
ATOM      7  C   UNL     1      44.687   5.259  12.069  0.00  0.00    +0.000 A 
BRANCH   6   8
ATOM      8  C   UNL     1      43.700   3.001  11.475  0.00  0.00    +0.000 C 
BRANCH   8   9
ATOM      9  N   UNL     1      44.246   2.340  10.292  0.00  0.00    +0.000 NA
ATOM     10  H   UNL     1      43.618   1.590  10.008  0.00  0.00    +0.000 HD
BRANCH   9  11
ATOM     11  C   UNL     1      44.441   3.253   9.174  0.00  0.00    +0.000 C 
BRANCH  11  12
ATOM     12  C   UNL     1      45.519   2.741   8.242  0.00  0.00    +0.000 A 
ATOM     13  C   UNL     1      46.077   3.567   7.257  0.00  0.00    +0.000 A 
ATOM     14  C   UNL     1      47.103   3.093   6.431  0.00  0.00    +0.000 A 
ATOM     15  C   UNL     1      47.575   1.790   6.578  0.00  0.00    +0.000 A 
ATOM     16  C   UNL     1      47.016   0.954   7.541  0.00  0.00    +0.000 A 
ATOM     17  C   UNL     1      45.995   1.426   8.367  0.00  0.00    +0.000 A 
ENDBRANCH  11  12
ENDBRANCH   9  11
ENDBRANCH   8   9
ENDBRANCH   6   8
ENDBRANCH   1   2
BRANCH   1  20
ATOM     18  O   UNL     1      47.346   9.145  14.127  0.00  0.00    +0.000 OA
ATOM     19  C   UNL     1      47.427   8.976  12.913  0.00  0.00    +0.000 C 
ATOM     20  N   UNL     1      46.512   8.241  12.206  0.00  0.00    +0.000 N 
ATOM     21  H   UNL     1      46.711   7.983  11.245  0.00  0.00    +0.000 HD
BRANCH  19  22
ATOM     22  C   UNL     1      48.491   9.608  12.126  0.00  0.00    +0.000 A 
ATOM     23  C   UNL     1      48.360  10.934  11.732  0.00  0.00    +0.000 A 
ATOM     24  S   UNL     1      49.697  11.516  10.848  0.00  0.00    +0.000 S 
ATOM     25  C   UNL     1      50.509  10.027  10.992  0.00  0.00    +0.000 A 
ATOM     26  N   UNL     1      51.758   9.859  10.479  0.00  0.00    +0.000 NA
ATOM     27  C   UNL     1      52.267   8.689  10.691  0.00  0.00    +0.000 A 
ATOM     28  N   UNL     1      51.634   7.670  11.352  0.00  0.00    +0.000 N 
ATOM     29  C   UNL     1      50.343   7.767  11.812  0.00  0.00    +0.000 A 
ATOM     30  O   UNL     1      49.750   6.789  12.253  0.00  0.00    +0.000 OA
ATOM     31  C   UNL     1      49.751   9.086  11.662  0.00  0.00    +0.000 A 
ATOM     32  H   UNL     1      52.070   6.766  11.443  0.00  0.00    +0.000 HD
ENDBRANCH  19  22
ENDBRANCH   1  20
TORSDOF 7
ENDMDL
MODEL 8
REMARK VINA RESULT:    -7.814      2.672      3.833
REMARK INTER + INTRA:         -11.982
REMARK INTER:                 -10.936
REMARK INTRA:                  -1.046
REMARK UNBOUND:                -0.970
REMARK  Name = 
REMARK  7 active torsions:
REMARK  status: ('A' for Active; 'I' for Inactive)
REMARK    1  A    between atoms: C_2  and  C_20
REMARK    2  A    between atoms: N_3  and  C_4
REMARK    3  A    between atoms: C_4  and  C_5
REMARK    4  A    between atoms: C_9  and  C_10
REMARK    5  A    between atoms: C_10  and  N_11
REMARK    6  A    between atoms: N_11  and  C_12
REMARK    7  A    between atoms: C_12  and  C_13
REMARK                            x       y       z     vdW  Elec       q    Type
REMARK                         _______ _______ _______ _____ _____    ______ ____
ROOT
ATOM      1  C   UNL     1      47.734   7.700  13.536  0.00  0.00    +0.000 C 
ENDROOT
BRANCH   1   2
ATOM      2  C   UNL     1      46.524   7.216  12.783  0.00  0.00    +0.000 A 
ATOM      3  C   UNL     1      45.642   8.138  12.204  0.00  0.00    +0.000 A 
ATOM      4  C   UNL     1      44.562   7.699  11.441  0.00  0.00    +0.000 A 
ATOM      5  C   UNL     1      44.358   6.334  11.243  0.00  0.00    +0.000 A 
ATOM      6  C   UNL     1      45.224   5.390  11.817  0.00  0.00    +0.000 A 
ATOM      7  C   UNL     1      46.284   5.843  12.617  0.00  0.00    +0.000 A 
BRANCH   6   8
ATOM      8  C   UNL     1      45.066   3.919  11.503  0.00  0.00    +0.000 C 
BRANCH   8   9
ATOM      9  N   UNL     1      44.447   3.760  10.189  0.00  0.00    +0.000 NA
ATOM     10  H   UNL     1      44.860   4.429   9.541  0.00  0.00    +0.000 HD
BRANCH   9  11
ATOM     11  C   UNL     1      44.601   2.415   9.651  0.00  0.00    +0.000 C 
BRANCH  11  12
ATOM     12  C   UNL     1      45.585   2.405   8.500  0.00  0.00    +0.000 A 
ATOM     13  C   UNL     1      46.289   1.241   8.158  0.00  0.00    +0.000 A 
ATOM     14  C   UNL     1      47.163   1.235   7.066  0.00  0.00    +0.000 A 
ATOM     15  C   UNL     1      47.345   2.391   6.308  0.00  0.00    +0.000 A 
ATOM     16  C   UNL     1      46.666   3.558   6.648  0.00  0.00    +0.000 A 
ATOM     17  C   UNL     1      45.792   3.565   7.737  0.00  0.00    +0.000 A 
ENDBRANCH  11  12
ENDBRANCH   9  11
ENDBRANCH   8   9
ENDBRANCH   6   8
ENDBRANCH   1   2
BRANCH   1  20
ATOM     18  O   UNL     1      49.978   6.716  14.909  0.00  0.00    +0.000 OA
ATOM     19  C   UNL     1      48.904   6.789  15.499  0.00  0.00    +0.000 C 
ATOM     20  N   UNL     1      47.755   7.226  14.893  0.00  0.00    +0.000 N 
ATOM     21  H   UNL     1      46.939   7.435  15.458  0.00  0.00    +0.000 HD
BRANCH  19  22
ATOM     22  C   UNL     1      48.770   6.351  16.893  0.00  0.00    +0.000 A 
ATOM     23  C   UNL     1      49.044   5.031  17.228  0.00  0.00    +0.000 A 
ATOM     24  S   UNL     1      48.862   4.700  18.891  0.00  0.00    +0.000 S 
ATOM     25  C   UNL     1      48.444   6.316  19.223  0.00  0.00    +0.000 A 
ATOM     26  N   UNL     1      48.198   6.728  20.496  0.00  0.00    +0.000 NA
ATOM     27  C   UNL     1      47.925   7.988  20.603  0.00  0.00    +0.000 A 
ATOM     28  N   UNL     1      47.860   8.866  19.555  0.00  0.00    +0.000 N 
ATOM     29  C   UNL     1      48.017   8.478  18.246  0.00  0.00    +0.000 A 
ATOM     30  O   UNL     1      47.793   9.251  17.322  0.00  0.00    +0.000 OA
ATOM     31  C   UNL     1      48.397   7.085  18.076  0.00  0.00    +0.000 A 
ATOM     32  H   UNL     1      47.597   9.827  19.703  0.00  0.00    +0.000 HD
ENDBRANCH  19  22
ENDBRANCH   1  20
TORSDOF 7
ENDMDL
MODEL 9
REMARK VINA RESULT:    -7.649      2.369      3.043
REMARK INTER + INTRA:         -11.749
REMARK INTER:                 -10.811
REMARK INTRA:                  -0.937
REMARK UNBOUND:                -0.970
REMARK  Name = 
REMARK  7 active torsions:
REMARK  status: ('A' for Active; 'I' for Inactive)
REMARK    1  A    between atoms: C_2  and  C_20
REMARK    2  A    between atoms: N_3  and  C_4
REMARK    3  A    between atoms: C_4  and  C_5
REMARK    4  A    between atoms: C_9  and  C_10
REMARK    5  A    between atoms: C_10  and  N_11
REMARK    6  A    between atoms: N_11  and  C_12
REMARK    7  A    between atoms: C_12  and  C_13
REMARK                            x       y       z     vdW  Elec       q    Type
REMARK                         _______ _______ _______ _____ _____    ______ ____
ROOT
ATOM      1  C   UNL     1      48.591   7.405  12.770  0.00  0.00    +0.000 C 
ENDROOT
BRANCH   1   2
ATOM      2  C   UNL     1      47.493   6.375  12.769  0.00  0.00    +0.000 A 
ATOM      3  C   UNL     1      47.317   5.534  13.875  0.00  0.00    +0.000 A 
ATOM      4  C   UNL     1      46.256   4.632  13.915  0.00  0.00    +0.000 A 
ATOM      5  C   UNL     1      45.357   4.566  12.852  0.00  0.00    +0.000 A 
ATOM      6  C   UNL     1      45.514   5.394  11.730  0.00  0.00    +0.000 A 
ATOM      7  C   UNL     1      46.609   6.270  11.683  0.00  0.00    +0.000 A 
BRANCH   6   8
ATOM      8  C   UNL     1      44.470   5.403  10.634  0.00  0.00    +0.000 C 
BRANCH   8   9
ATOM      9  N   UNL     1      45.110   5.157   9.344  0.00  0.00    +0.000 NA
ATOM     10  H   UNL     1      46.104   4.989   9.490  0.00  0.00    +0.000 HD
BRANCH   9  11
ATOM     11  C   UNL     1      44.531   4.026   8.633  0.00  0.00    +0.000 C 
BRANCH  11  12
ATOM     12  C   UNL     1      45.615   3.138   8.059  0.00  0.00    +0.000 A 
ATOM     13  C   UNL     1      45.730   1.794   8.441  0.00  0.00    +0.000 A 
ATOM     14  C   UNL     1      46.710   0.975   7.870  0.00  0.00    +0.000 A 
ATOM     15  C   UNL     1      47.587   1.492   6.917  0.00  0.00    +0.000 A 
ATOM     16  C   UNL     1      47.495   2.829   6.542  0.00  0.00    +0.000 A 
ATOM     17  C   UNL     1      46.516   3.647   7.110  0.00  0.00    +0.000 A 
ENDBRANCH  11  12
ENDBRANCH   9  11
ENDBRANCH   8   9
ENDBRANCH   6   8
ENDBRANCH   1   2
BRANCH   1  20
ATOM     18  O   UNL     1      49.294   8.635  15.194  0.00  0.00    +0.000 OA
ATOM     19  C   UNL     1      49.943   7.667  14.808  0.00  0.00    +0.000 C 
ATOM     20  N   UNL     1      49.686   7.030  13.622  0.00  0.00    +0.000 N 
ATOM     21  H   UNL     1      50.127   6.138  13.428  0.00  0.00    +0.000 HD
BRANCH  19  22
ATOM     22  C   UNL     1      51.086   7.162  15.576  0.00  0.00    +0.000 A 
ATOM     23  C   UNL     1      52.362   7.639  15.304  0.00  0.00    +0.000 A 
ATOM     24  S   UNL     1      53.568   6.966  16.304  0.00  0.00    +0.000 S 
ATOM     25  C   UNL     1      52.420   6.041  17.157  0.00  0.00    +0.000 A 
ATOM     26  N   UNL     1      52.793   5.253  18.201  0.00  0.00    +0.000 NA
ATOM     27  C   UNL     1      51.814   4.635  18.776  0.00  0.00    +0.000 A 
ATOM     28  N   UNL     1      50.502   4.719  18.392  0.00  0.00    +0.000 N 
ATOM     29  C   UNL     1      50.091   5.435  17.293  0.00  0.00    +0.000 A 
ATOM     30  O   UNL     1      48.940   5.361  16.880  0.00  0.00    +0.000 OA
ATOM     31  C   UNL     1      51.144   6.207  16.654  0.00  0.00    +0.000 A 
ATOM     32  H   UNL     1      49.793   4.174  18.856  0.00  0.00    +0.000 HD
ENDBRANCH  19  22
ENDBRANCH   1  20
TORSDOF 7
ENDMDL
