MODEL 1
REMARK VINA RESULT:    -9.098      0.000      0.000
REMARK INTER + INTRA:         -13.267
REMARK INTER:                 -12.290
REMARK INTRA:                  -0.977
REMARK UNBOUND:                -0.977
REMARK  Name = 
REMARK  6 active torsions:
REMARK  status: ('A' for Active; 'I' for Inactive)
REMARK    1  A    between atoms: C_2  and  C_4
REMARK    2  A    between atoms: N_8  and  C_9
REMARK    3  A    between atoms: C_9  and  C_10
REMARK    4  A    between atoms: C_10  and  C_13
REMARK    5  A    between atoms: C_17  and  O_18
REMARK    6  A    between atoms: O_18  and  C_19
REMARK                            x       y       z     vdW  Elec       q    Type
REMARK                         _______ _______ _______ _____ _____    ______ ____
ROOT
ATOM      1  C   UNL     1      43.374   4.378  11.018  0.00  0.00    +0.000 C 
ENDROOT
BRANCH   1   6
ATOM      2  C   UNL     1      46.531   2.628   7.374  0.00  0.00    +0.000 A 
ATOM      3  C   UNL     1      46.088   3.913   7.664  0.00  0.00    +0.000 A 
ATOM      4  C   UNL     1      45.187   4.096   8.711  0.00  0.00    +0.000 A 
ATOM      5  C   UNL     1      44.736   3.002   9.446  0.00  0.00    +0.000 A 
ATOM      6  N   UNL     1      43.860   3.110  10.489  0.00  0.00    +0.000 N 
ATOM      7  N   UNL     1      45.144   1.751   9.156  0.00  0.00    +0.000 NA
ATOM      8  C   UNL     1      46.019   1.585   8.127  0.00  0.00    +0.000 A 
ATOM      9  H   UNL     1      43.618   2.236  10.944  0.00  0.00    +0.000 HD
BRANCH   2  11
ATOM     10  N   UNL     1      47.511   3.202   5.231  0.00  0.00    +0.000 N 
ATOM     11  C   UNL     1      47.499   2.343   6.297  0.00  0.00    +0.000 C 
ATOM     12  O   UNL     1      48.280   1.405   6.367  0.00  0.00    +0.000 OA
ATOM     13  H   UNL     1      48.251   3.061   4.552  0.00  0.00    +0.000 HD
ATOM     14  H   UNL     1      47.069   4.109   5.254  0.00  0.00    +0.000 HD
ENDBRANCH   2  11
ENDBRANCH   1   6
BRANCH   1  15
ATOM     15  C   UNL     1      43.707   4.624  12.511  0.00  0.00    +0.000 C 
ATOM     16  F   UNL     1      42.790   5.490  13.033  0.00  0.00    +0.000 F 
ATOM     17  F   UNL     1      43.541   3.457  13.200  0.00  0.00    +0.000 F 
BRANCH  15  18
ATOM     18  C   UNL     1      45.124   5.156  12.610  0.00  0.00    +0.000 A 
ATOM     19  C   UNL     1      45.622   6.061  11.662  0.00  0.00    +0.000 A 
ATOM     20  C   UNL     1      46.887   6.628  11.829  0.00  0.00    +0.000 A 
ATOM     21  C   UNL     1      47.673   6.296  12.938  0.00  0.00    +0.000 A 
ATOM     22  C   UNL     1      47.193   5.381  13.873  0.00  0.00    +0.000 A 
ATOM     23  C   UNL     1      45.927   4.819  13.710  0.00  0.00    +0.000 A 
BRANCH  22  24
ATOM     24  O   UNL     1      47.848   5.003  15.016  0.00  0.00    +0.000 OA
BRANCH  24  25
ATOM     25  C   UNL     1      47.200   4.094  15.931  0.00  0.00    +0.000 C 
ATOM     26  C   UNL     1      47.173   4.458  17.422  0.00  0.00    +0.000 C 
ATOM     27  O   UNL     1      47.866   3.243  17.789  0.00  0.00    +0.000 OA
ATOM     28  C   UNL     1      48.070   2.916  16.396  0.00  0.00    +0.000 C 
ENDBRANCH  24  25
ENDBRANCH  22  24
ENDBRANCH  15  18
ENDBRANCH   1  15
TORSDOF 6
ENDMDL
MODEL 2
REMARK VINA RESULT:    -8.426      1.343      1.571
REMARK INTER + INTRA:         -12.359
REMARK INTER:                 -11.441
REMARK INTRA:                  -0.917
REMARK UNBOUND:                -0.977
REMARK  Name = 
REMARK  6 active torsions:
REMARK  status: ('A' for Active; 'I' for Inactive)
REMARK    1  A    between atoms: C_2  and  C_4
REMARK    2  A    between atoms: N_8  and  C_9
REMARK    3  A    between atoms: C_9  and  C_10
REMARK    4  A    between atoms: C_10  and  C_13
REMARK    5  A    between atoms: C_17  and  O_18
REMARK    6  A    between atoms: O_18  and  C_19
REMARK                            x       y       z     vdW  Elec       q    Type
REMARK                         _______ _______ _______ _____ _____    ______ ____
ROOT
ATOM      1  C   UNL     1      43.311   4.445  11.108  0.00  0.00    +0.000 C 
ENDROOT
BRANCH   1   6
ATOM      2  C   UNL     1      46.475   2.658   7.488  0.00  0.00    +0.000 A 
ATOM      3  C   UNL     1      46.030   3.946   7.763  0.00  0.00    +0.000 A 
ATOM      4  C   UNL     1      45.127   4.140   8.807  0.00  0.00    +0.000 A 
ATOM      5  C   UNL     1      44.677   3.053   9.553  0.00  0.00    +0.000 A 
ATOM      6  N   UNL     1      43.800   3.171  10.595  0.00  0.00    +0.000 N 
ATOM      7  N   UNL     1      45.089   1.800   9.278  0.00  0.00    +0.000 NA
ATOM      8  C   UNL     1      45.965   1.624   8.253  0.00  0.00    +0.000 A 
ATOM      9  H   UNL     1      43.560   2.303  11.059  0.00  0.00    +0.000 HD
BRANCH   2  11
ATOM     10  N   UNL     1      47.442   3.197   5.330  0.00  0.00    +0.000 N 
ATOM     11  C   UNL     1      47.445   2.363   6.416  0.00  0.00    +0.000 C 
ATOM     12  O   UNL     1      48.240   1.438   6.505  0.00  0.00    +0.000 OA
ATOM     13  H   UNL     1      48.182   3.051   4.652  0.00  0.00    +0.000 HD
ATOM     14  H   UNL     1      46.986   4.097   5.333  0.00  0.00    +0.000 HD
ENDBRANCH   2  11
ENDBRANCH   1   6
BRANCH   1  15
ATOM     15  C   UNL     1      43.721   4.751  12.571  0.00  0.00    +0.000 C 
ATOM     16  F   UNL     1      42.720   5.457  13.172  0.00  0.00    +0.000 F 
ATOM     17  F   UNL     1      43.805   3.576  13.261  0.00  0.00    +0.000 F 
BRANCH  15  18
ATOM     18  C   UNL     1      45.034   5.508  12.558  0.00  0.00    +0.000 A 
ATOM     19  C   UNL     1      45.236   6.585  11.684  0.00  0.00    +0.000 A 
ATOM     20  C   UNL     1      46.407   7.344  11.763  0.00  0.00    +0.000 A 
ATOM     21  C   UNL     1      47.391   7.034  12.707  0.00  0.00    +0.000 A 
ATOM     22  C   UNL     1      47.207   5.951  13.564  0.00  0.00    +0.000 A 
ATOM     23  C   UNL     1      46.035   5.197  13.491  0.00  0.00    +0.000 A 
BRANCH  22  24
ATOM     24  O   UNL     1      48.076   5.569  14.552  0.00  0.00    +0.000 OA
BRANCH  24  25
ATOM     25  C   UNL     1      48.597   6.568  15.456  0.00  0.00    +0.000 C 
ATOM     26  C   UNL     1      50.044   7.041  15.262  0.00  0.00    +0.000 C 
ATOM     27  O   UNL     1      50.417   6.631  16.597  0.00  0.00    +0.000 OA
ATOM     28  C   UNL     1      49.122   6.018  16.791  0.00  0.00    +0.000 C 
ENDBRANCH  24  25
ENDBRANCH  22  24
ENDBRANCH  15  18
ENDBRANCH   1  15
TORSDOF 6
ENDMDL
MODEL 3
REMARK VINA RESULT:    -8.409      2.703      4.191
REMARK INTER + INTRA:         -12.336
REMARK INTER:                 -11.692
REMARK INTRA:                  -0.645
REMARK UNBOUND:                -0.977
REMARK  Name = 
REMARK  6 active torsions:
REMARK  status: ('A' for Active; 'I' for Inactive)
REMARK    1  A    between atoms: C_2  and  C_4
REMARK    2  A    between atoms: N_8  and  C_9
REMARK    3  A    between atoms: C_9  and  C_10
REMARK    4  A    between atoms: C_10  and  C_13
REMARK    5  A    between atoms: C_17  and  O_18
REMARK    6  A    between atoms: O_18  and  C_19
REMARK                            x       y       z     vdW  Elec       q    Type
REMARK                         _______ _______ _______ _____ _____    ______ ____
ROOT
ATOM      1  C   UNL     1      43.228   4.687  10.983  0.00  0.00    +0.000 C 
ENDROOT
BRANCH   1   6
ATOM      2  C   UNL     1      46.510   2.528   7.685  0.00  0.00    +0.000 A 
ATOM      3  C   UNL     1      45.656   1.969   8.629  0.00  0.00    +0.000 A 
ATOM      4  C   UNL     1      44.888   2.813   9.429  0.00  0.00    +0.000 A 
ATOM      5  C   UNL     1      44.986   4.195   9.284  0.00  0.00    +0.000 A 
ATOM      6  N   UNL     1      44.257   5.079  10.029  0.00  0.00    +0.000 N 
ATOM      7  N   UNL     1      45.827   4.744   8.386  0.00  0.00    +0.000 NA
ATOM      8  C   UNL     1      46.576   3.909   7.616  0.00  0.00    +0.000 A 
ATOM      9  H   UNL     1      44.418   6.058   9.818  0.00  0.00    +0.000 HD
BRANCH   2  11
ATOM     10  N   UNL     1      48.397   2.342   6.172  0.00  0.00    +0.000 N 
ATOM     11  C   UNL     1      47.345   1.713   6.782  0.00  0.00    +0.000 C 
ATOM     12  O   UNL     1      47.131   0.521   6.612  0.00  0.00    +0.000 OA
ATOM     13  H   UNL     1      49.026   1.750   5.642  0.00  0.00    +0.000 HD
ATOM     14  H   UNL     1      48.748   3.238   6.476  0.00  0.00    +0.000 HD
ENDBRANCH   2  11
ENDBRANCH   1   6
BRANCH   1  15
ATOM     15  C   UNL     1      43.746   4.435  12.422  0.00  0.00    +0.000 C 
ATOM     16  F   UNL     1      42.713   4.598  13.299  0.00  0.00    +0.000 F 
ATOM     17  F   UNL     1      44.119   3.127  12.536  0.00  0.00    +0.000 F 
BRANCH  15  18
ATOM     18  C   UNL     1      44.892   5.388  12.698  0.00  0.00    +0.000 A 
ATOM     19  C   UNL     1      46.210   4.921  12.797  0.00  0.00    +0.000 A 
ATOM     20  C   UNL     1      47.267   5.823  12.937  0.00  0.00    +0.000 A 
ATOM     21  C   UNL     1      47.024   7.199  12.988  0.00  0.00    +0.000 A 
ATOM     22  C   UNL     1      45.715   7.670  12.912  0.00  0.00    +0.000 A 
ATOM     23  C   UNL     1      44.658   6.771  12.765  0.00  0.00    +0.000 A 
BRANCH  22  24
ATOM     24  O   UNL     1      45.350   8.991  12.912  0.00  0.00    +0.000 OA
BRANCH  24  25
ATOM     25  C   UNL     1      45.221   9.687  11.653  0.00  0.00    +0.000 C 
ATOM     26  C   UNL     1      45.159  11.221  11.673  0.00  0.00    +0.000 C 
ATOM     27  O   UNL     1      43.867  11.232  11.022  0.00  0.00    +0.000 OA
ATOM     28  C   UNL     1      43.785   9.792  11.117  0.00  0.00    +0.000 C 
ENDBRANCH  24  25
ENDBRANCH  22  24
ENDBRANCH  15  18
ENDBRANCH   1  15
TORSDOF 6
ENDMDL
MODEL 4
REMARK VINA RESULT:    -8.353      2.010      3.152
REMARK INTER + INTRA:         -12.261
REMARK INTER:                 -11.260
REMARK INTRA:                  -1.000
REMARK UNBOUND:                -0.977
REMARK  Name = 
REMARK  6 active torsions:
REMARK  status: ('A' for Active; 'I' for Inactive)
REMARK    1  A    between atoms: C_2  and  C_4
REMARK    2  A    between atoms: N_8  and  C_9
REMARK    3  A    between atoms: C_9  and  C_10
REMARK    4  A    between atoms: C_10  and  C_13
REMARK    5  A    between atoms: C_17  and  O_18
REMARK    6  A    between atoms: O_18  and  C_19
REMARK                            x       y       z     vdW  Elec       q    Type
REMARK                         _______ _______ _______ _____ _____    ______ ____
ROOT
ATOM      1  C   UNL     1      43.199   4.790  10.698  0.00  0.00    +0.000 C 
ENDROOT
BRANCH   1   6
ATOM      2  C   UNL     1      46.502   2.298   7.667  0.00  0.00    +0.000 A 
ATOM      3  C   UNL     1      45.700   1.853   8.712  0.00  0.00    +0.000 A 
ATOM      4  C   UNL     1      44.911   2.775   9.398  0.00  0.00    +0.000 A 
ATOM      5  C   UNL     1      44.937   4.121   9.039  0.00  0.00    +0.000 A 
ATOM      6  N   UNL     1      44.183   5.076   9.662  0.00  0.00    +0.000 N 
ATOM      7  N   UNL     1      45.728   4.562   8.041  0.00  0.00    +0.000 NA
ATOM      8  C   UNL     1      46.497   3.653   7.385  0.00  0.00    +0.000 A 
ATOM      9  H   UNL     1      44.290   6.017   9.299  0.00  0.00    +0.000 HD
BRANCH   2  11
ATOM     10  N   UNL     1      48.380   1.961   6.170  0.00  0.00    +0.000 N 
ATOM     11  C   UNL     1      47.353   1.391   6.874  0.00  0.00    +0.000 C 
ATOM     12  O   UNL     1      47.176   0.181   6.871  0.00  0.00    +0.000 OA
ATOM     13  H   UNL     1      49.023   1.321   5.718  0.00  0.00    +0.000 HD
ATOM     14  H   UNL     1      48.706   2.900   6.343  0.00  0.00    +0.000 HD
ENDBRANCH   2  11
ENDBRANCH   1   6
BRANCH   1  15
ATOM     15  C   UNL     1      43.406   5.573  12.019  0.00  0.00    +0.000 C 
ATOM     16  F   UNL     1      43.398   6.910  11.747  0.00  0.00    +0.000 F 
ATOM     17  F   UNL     1      42.331   5.360  12.834  0.00  0.00    +0.000 F 
BRANCH  15  18
ATOM     18  C   UNL     1      44.708   5.120  12.650  0.00  0.00    +0.000 A 
ATOM     19  C   UNL     1      45.005   3.758  12.792  0.00  0.00    +0.000 A 
ATOM     20  C   UNL     1      46.254   3.356  13.270  0.00  0.00    +0.000 A 
ATOM     21  C   UNL     1      47.219   4.307  13.620  0.00  0.00    +0.000 A 
ATOM     22  C   UNL     1      46.924   5.664  13.502  0.00  0.00    +0.000 A 
ATOM     23  C   UNL     1      45.678   6.065  13.018  0.00  0.00    +0.000 A 
BRANCH  22  24
ATOM     24  O   UNL     1      47.792   6.687  13.775  0.00  0.00    +0.000 OA
BRANCH  24  25
ATOM     25  C   UNL     1      48.890   6.941  12.871  0.00  0.00    +0.000 C 
ATOM     26  C   UNL     1      49.997   7.902  13.323  0.00  0.00    +0.000 C 
ATOM     27  O   UNL     1      49.771   8.781  12.196  0.00  0.00    +0.000 OA
ATOM     28  C   UNL     1      48.613   8.010  11.804  0.00  0.00    +0.000 C 
ENDBRANCH  24  25
ENDBRANCH  22  24
ENDBRANCH  15  18
ENDBRANCH   1  15
TORSDOF 6
ENDMDL
MODEL 5
REMARK VINA RESULT:    -7.763      2.025      2.364
REMARK INTER + INTRA:         -11.463
REMARK INTER:                 -10.938
REMARK INTRA:                  -0.525
REMARK UNBOUND:                -0.977
REMARK  Name = 
REMARK  6 active torsions:
REMARK  status: ('A' for Active; 'I' for Inactive)
REMARK    1  A    between atoms: C_2  and  C_4
REMARK    2  A    between atoms: N_8  and  C_9
REMARK    3  A    between atoms: C_9  and  C_10
REMARK    4  A    between atoms: C_10  and  C_13
REMARK    5  A    between atoms: C_17  and  O_18
REMARK    6  A    between atoms: O_18  and  C_19
REMARK                            x       y       z     vdW  Elec       q    Type
REMARK                         _______ _______ _______ _____ _____    ______ ____
ROOT
ATOM      1  C   UNL     1      43.371   4.571  11.156  0.00  0.00    +0.000 C 
ENDROOT
BRANCH   1   6
ATOM      2  C   UNL     1      46.489   2.699   7.539  0.00  0.00    +0.000 A 
ATOM      3  C   UNL     1      46.082   3.999   7.816  0.00  0.00    +0.000 A 
ATOM      4  C   UNL     1      45.183   4.217   8.858  0.00  0.00    +0.000 A 
ATOM      5  C   UNL     1      44.699   3.142   9.600  0.00  0.00    +0.000 A 
ATOM      6  N   UNL     1      43.822   3.285  10.640  0.00  0.00    +0.000 N 
ATOM      7  N   UNL     1      45.072   1.878   9.323  0.00  0.00    +0.000 NA
ATOM      8  C   UNL     1      45.946   1.678   8.299  0.00  0.00    +0.000 A 
ATOM      9  H   UNL     1      43.554   2.422  11.101  0.00  0.00    +0.000 HD
BRANCH   2  11
ATOM     10  N   UNL     1      47.449   3.189   5.366  0.00  0.00    +0.000 N 
ATOM     11  C   UNL     1      47.452   2.377   6.468  0.00  0.00    +0.000 C 
ATOM     12  O   UNL     1      48.243   1.451   6.573  0.00  0.00    +0.000 OA
ATOM     13  H   UNL     1      48.185   3.027   4.688  0.00  0.00    +0.000 HD
ATOM     14  H   UNL     1      46.997   4.092   5.353  0.00  0.00    +0.000 HD
ENDBRANCH   2  11
ENDBRANCH   1   6
BRANCH   1  15
ATOM     15  C   UNL     1      43.954   4.952  12.540  0.00  0.00    +0.000 C 
ATOM     16  F   UNL     1      42.945   5.409  13.335  0.00  0.00    +0.000 F 
ATOM     17  F   UNL     1      44.418   3.821  13.151  0.00  0.00    +0.000 F 
BRANCH  15  18
ATOM     18  C   UNL     1      45.044   5.986  12.338  0.00  0.00    +0.000 A 
ATOM     19  C   UNL     1      44.737   7.278  11.887  0.00  0.00    +0.000 A 
ATOM     20  C   UNL     1      45.735   8.253  11.816  0.00  0.00    +0.000 A 
ATOM     21  C   UNL     1      47.050   7.951  12.185  0.00  0.00    +0.000 A 
ATOM     22  C   UNL     1      47.367   6.663  12.613  0.00  0.00    +0.000 A 
ATOM     23  C   UNL     1      46.370   5.691  12.692  0.00  0.00    +0.000 A 
BRANCH  22  24
ATOM     24  O   UNL     1      48.605   6.254  13.036  0.00  0.00    +0.000 OA
BRANCH  24  25
ATOM     25  C   UNL     1      49.190   6.870  14.203  0.00  0.00    +0.000 C 
ATOM     26  C   UNL     1      48.411   7.994  14.901  0.00  0.00    +0.000 C 
ATOM     27  O   UNL     1      49.491   8.936  14.712  0.00  0.00    +0.000 OA
ATOM     28  C   UNL     1      50.212   7.977  13.905  0.00  0.00    +0.000 C 
ENDBRANCH  24  25
ENDBRANCH  22  24
ENDBRANCH  15  18
ENDBRANCH   1  15
TORSDOF 6
ENDMDL
MODEL 6
REMARK VINA RESULT:    -7.436      3.240      8.162
REMARK INTER + INTRA:         -11.021
REMARK INTER:                 -10.508
REMARK INTRA:                  -0.514
REMARK UNBOUND:                -0.977
REMARK  Name = 
REMARK  6 active torsions:
REMARK  status: ('A' for Active; 'I' for Inactive)
REMARK    1  A    between atoms: C_2  and  C_4
REMARK    2  A    between atoms: N_8  and  C_9
REMARK    3  A    between atoms: C_9  and  C_10
REMARK    4  A    between atoms: C_10  and  C_13
REMARK    5  A    between atoms: C_17  and  O_18
REMARK    6  A    between atoms: O_18  and  C_19
REMARK                            x       y       z     vdW  Elec       q    Type
REMARK                         _______ _______ _______ _____ _____    ______ ____
ROOT
ATOM      1  C   UNL     1      45.833   5.828  12.900  0.00  0.00    +0.000 C 
ENDROOT
BRANCH   1   6
ATOM      2  C   UNL     1      48.583   4.319  16.958  0.00  0.00    +0.000 A 
ATOM      3  C   UNL     1      47.448   3.777  16.366  0.00  0.00    +0.000 A 
ATOM      4  C   UNL     1      46.880   4.429  15.273  0.00  0.00    +0.000 A 
ATOM      5  C   UNL     1      47.443   5.609  14.793  0.00  0.00    +0.000 A 
ATOM      6  N   UNL     1      46.943   6.295  13.721  0.00  0.00    +0.000 N 
ATOM      7  N   UNL     1      48.530   6.151  15.375  0.00  0.00    +0.000 NA
ATOM      8  C   UNL     1      49.071   5.508  16.445  0.00  0.00    +0.000 A 
ATOM      9  H   UNL     1      47.451   7.136  13.470  0.00  0.00    +0.000 HD
BRANCH   2  11
ATOM     10  N   UNL     1      48.466   3.206  19.110  0.00  0.00    +0.000 N 
ATOM     11  C   UNL     1      49.262   3.686  18.105  0.00  0.00    +0.000 C 
ATOM     12  O   UNL     1      50.478   3.563  18.144  0.00  0.00    +0.000 OA
ATOM     13  H   UNL     1      48.933   2.678  19.838  0.00  0.00    +0.000 HD
ATOM     14  H   UNL     1      47.472   3.065  19.000  0.00  0.00    +0.000 HD
ENDBRANCH   2  11
ENDBRANCH   1   6
BRANCH   1  15
ATOM     15  C   UNL     1      45.900   6.267  11.415  0.00  0.00    +0.000 C 
ATOM     16  F   UNL     1      45.107   7.363  11.242  0.00  0.00    +0.000 F 
ATOM     17  F   UNL     1      47.169   6.687  11.135  0.00  0.00    +0.000 F 
BRANCH  15  18
ATOM     18  C   UNL     1      45.472   5.101  10.545  0.00  0.00    +0.000 A 
ATOM     19  C   UNL     1      44.509   4.185  10.991  0.00  0.00    +0.000 A 
ATOM     20  C   UNL     1      44.042   3.185  10.135  0.00  0.00    +0.000 A 
ATOM     21  C   UNL     1      44.535   3.080   8.830  0.00  0.00    +0.000 A 
ATOM     22  C   UNL     1      45.508   3.974   8.388  0.00  0.00    +0.000 A 
ATOM     23  C   UNL     1      45.970   4.978   9.239  0.00  0.00    +0.000 A 
BRANCH  22  24
ATOM     24  O   UNL     1      46.041   3.999   7.126  0.00  0.00    +0.000 OA
BRANCH  24  25
ATOM     25  C   UNL     1      46.327   2.752   6.456  0.00  0.00    +0.000 C 
ATOM     26  C   UNL     1      47.308   1.777   7.122  0.00  0.00    +0.000 C 
ATOM     27  O   UNL     1      48.192   1.798   5.977  0.00  0.00    +0.000 OA
ATOM     28  C   UNL     1      47.400   2.839   5.360  0.00  0.00    +0.000 C 
ENDBRANCH  24  25
ENDBRANCH  22  24
ENDBRANCH  15  18
ENDBRANCH   1  15
TORSDOF 6
ENDMDL
MODEL 7
REMARK VINA RESULT:    -7.372      2.860      7.663
REMARK INTER + INTRA:         -10.935
REMARK INTER:                 -10.312
REMARK INTRA:                  -0.623
REMARK UNBOUND:                -0.977
REMARK  Name = 
REMARK  6 active torsions:
REMARK  status: ('A' for Active; 'I' for Inactive)
REMARK    1  A    between atoms: C_2  and  C_4
REMARK    2  A    between atoms: N_8  and  C_9
REMARK    3  A    between atoms: C_9  and  C_10
REMARK    4  A    between atoms: C_10  and  C_13
REMARK    5  A    between atoms: C_17  and  O_18
REMARK    6  A    between atoms: O_18  and  C_19
REMARK                            x       y       z     vdW  Elec       q    Type
REMARK                         _______ _______ _______ _____ _____    ______ ____
ROOT
ATOM      1  C   UNL     1      46.953   6.658  11.652  0.00  0.00    +0.000 C 
ENDROOT
BRANCH   1   6
ATOM      2  C   UNL     1      47.750   3.950  15.935  0.00  0.00    +0.000 A 
ATOM      3  C   UNL     1      47.231   3.581  14.699  0.00  0.00    +0.000 A 
ATOM      4  C   UNL     1      47.092   4.551  13.708  0.00  0.00    +0.000 A 
ATOM      5  C   UNL     1      47.464   5.869  13.963  0.00  0.00    +0.000 A 
ATOM      6  N   UNL     1      47.363   6.868  13.035  0.00  0.00    +0.000 N 
ATOM      7  N   UNL     1      47.947   6.238  15.165  0.00  0.00    +0.000 NA
ATOM      8  C   UNL     1      48.072   5.283  16.125  0.00  0.00    +0.000 A 
ATOM      9  H   UNL     1      47.675   7.781  13.347  0.00  0.00    +0.000 HD
BRANCH   2  11
ATOM     10  N   UNL     1      46.844   2.635  17.760  0.00  0.00    +0.000 N 
ATOM     11  C   UNL     1      47.951   2.987  17.035  0.00  0.00    +0.000 C 
ATOM     12  O   UNL     1      49.046   2.497  17.268  0.00  0.00    +0.000 OA
ATOM     13  H   UNL     1      46.971   1.894  18.440  0.00  0.00    +0.000 HD
ATOM     14  H   UNL     1      45.903   2.819  17.446  0.00  0.00    +0.000 HD
ENDBRANCH   2  11
ENDBRANCH   1   6
BRANCH   1  15
ATOM     15  C   UNL     1      45.425   6.498  11.449  0.00  0.00    +0.000 C 
ATOM     16  F   UNL     1      44.818   6.461  12.670  0.00  0.00    +0.000 F 
ATOM     17  F   UNL     1      44.941   7.617  10.834  0.00  0.00    +0.000 F 
BRANCH  15  18
ATOM     18  C   UNL     1      45.173   5.240  10.641  0.00  0.00    +0.000 A 
ATOM     19  C   UNL     1      44.301   4.246  11.107  0.00  0.00    +0.000 A 
ATOM     20  C   UNL     1      43.991   3.149  10.301  0.00  0.00    +0.000 A 
ATOM     21  C   UNL     1      44.553   3.024   9.025  0.00  0.00    +0.000 A 
ATOM     22  C   UNL     1      45.438   3.996   8.564  0.00  0.00    +0.000 A 
ATOM     23  C   UNL     1      45.742   5.097   9.366  0.00  0.00    +0.000 A 
BRANCH  22  24
ATOM     24  O   UNL     1      46.022   4.008   7.325  0.00  0.00    +0.000 OA
BRANCH  24  25
ATOM     25  C   UNL     1      46.278   2.754   6.655  0.00  0.00    +0.000 C 
ATOM     26  C   UNL     1      47.389   1.849   7.206  0.00  0.00    +0.000 C 
ATOM     27  O   UNL     1      48.108   1.874   5.952  0.00  0.00    +0.000 OA
ATOM     28  C   UNL     1      47.188   2.856   5.422  0.00  0.00    +0.000 C 
ENDBRANCH  24  25
ENDBRANCH  22  24
ENDBRANCH  15  18
ENDBRANCH   1  15
TORSDOF 6
ENDMDL
MODEL 8
REMARK VINA RESULT:    -6.872      3.927      7.499
REMARK INTER + INTRA:         -10.260
REMARK INTER:                  -9.604
REMARK INTRA:                  -0.656
REMARK UNBOUND:                -0.977
REMARK  Name = 
REMARK  6 active torsions:
REMARK  status: ('A' for Active; 'I' for Inactive)
REMARK    1  A    between atoms: C_2  and  C_4
REMARK    2  A    between atoms: N_8  and  C_9
REMARK    3  A    between atoms: C_9  and  C_10
REMARK    4  A    between atoms: C_10  and  C_13
REMARK    5  A    between atoms: C_17  and  O_18
REMARK    6  A    between atoms: O_18  and  C_19
REMARK                            x       y       z     vdW  Elec       q    Type
REMARK                         _______ _______ _______ _____ _____    ______ ____
ROOT
ATOM      1  C   UNL     1      45.067   6.049  12.711  0.00  0.00    +0.000 C 
ENDROOT
BRANCH   1   6
ATOM      2  C   UNL     1      49.687   8.258  12.999  0.00  0.00    +0.000 A 
ATOM      3  C   UNL     1      49.291   7.018  12.512  0.00  0.00    +0.000 A 
ATOM      4  C   UNL     1      47.948   6.657  12.593  0.00  0.00    +0.000 A 
ATOM      5  C   UNL     1      47.023   7.530  13.162  0.00  0.00    +0.000 A 
ATOM      6  N   UNL     1      45.690   7.244  13.266  0.00  0.00    +0.000 N 
ATOM      7  N   UNL     1      47.402   8.724  13.655  0.00  0.00    +0.000 NA
ATOM      8  C   UNL     1      48.718   9.062  13.575  0.00  0.00    +0.000 A 
ATOM      9  H   UNL     1      45.124   7.969  13.694  0.00  0.00    +0.000 HD
BRANCH   2  11
ATOM     10  N   UNL     1      51.950   8.004  12.164  0.00  0.00    +0.000 N 
ATOM     11  C   UNL     1      51.083   8.731  12.936  0.00  0.00    +0.000 C 
ATOM     12  O   UNL     1      51.445   9.745  13.515  0.00  0.00    +0.000 OA
ATOM     13  H   UNL     1      52.876   8.397  12.040  0.00  0.00    +0.000 HD
ATOM     14  H   UNL     1      51.639   7.325  11.486  0.00  0.00    +0.000 HD
ENDBRANCH   2  11
ENDBRANCH   1   6
BRANCH   1  15
ATOM     15  C   UNL     1      44.516   6.218  11.273  0.00  0.00    +0.000 C 
ATOM     16  F   UNL     1      43.210   6.607  11.342  0.00  0.00    +0.000 F 
ATOM     17  F   UNL     1      45.173   7.249  10.665  0.00  0.00    +0.000 F 
BRANCH  15  18
ATOM     18  C   UNL     1      44.689   4.906  10.531  0.00  0.00    +0.000 A 
ATOM     19  C   UNL     1      44.032   3.744  10.960  0.00  0.00    +0.000 A 
ATOM     20  C   UNL     1      44.111   2.573  10.202  0.00  0.00    +0.000 A 
ATOM     21  C   UNL     1      44.849   2.545   9.014  0.00  0.00    +0.000 A 
ATOM     22  C   UNL     1      45.522   3.690   8.593  0.00  0.00    +0.000 A 
ATOM     23  C   UNL     1      45.439   4.862   9.346  0.00  0.00    +0.000 A 
BRANCH  22  24
ATOM     24  O   UNL     1      46.244   3.800   7.435  0.00  0.00    +0.000 OA
BRANCH  24  25
ATOM     25  C   UNL     1      46.471   2.622   6.631  0.00  0.00    +0.000 C 
ATOM     26  C   UNL     1      47.602   1.668   7.042  0.00  0.00    +0.000 C 
ATOM     27  O   UNL     1      48.270   1.823   5.768  0.00  0.00    +0.000 OA
ATOM     28  C   UNL     1      47.331   2.851   5.379  0.00  0.00    +0.000 C 
ENDBRANCH  24  25
ENDBRANCH  22  24
ENDBRANCH  15  18
ENDBRANCH   1  15
TORSDOF 6
ENDMDL
MODEL 9
REMARK VINA RESULT:    -6.845      3.402      8.164
REMARK INTER + INTRA:         -10.223
REMARK INTER:                  -9.460
REMARK INTRA:                  -0.763
REMARK UNBOUND:                -0.977
REMARK  Name = 
REMARK  6 active torsions:
REMARK  status: ('A' for Active; 'I' for Inactive)
REMARK    1  A    between atoms: C_2  and  C_4
REMARK    2  A    between atoms: N_8  and  C_9
REMARK    3  A    between atoms: C_9  and  C_10
REMARK    4  A    between atoms: C_10  and  C_13
REMARK    5  A    between atoms: C_17  and  O_18
REMARK    6  A    between atoms: O_18  and  C_19
REMARK                            x       y       z     vdW  Elec       q    Type
REMARK                         _______ _______ _______ _____ _____    ______ ____
ROOT
ATOM      1  C   UNL     1      47.591   5.899  12.973  0.00  0.00    +0.000 C 
ENDROOT
BRANCH   1   6
ATOM      2  C   UNL     1      48.048   4.851  17.973  0.00  0.00    +0.000 A 
ATOM      3  C   UNL     1      48.622   5.843  17.187  0.00  0.00    +0.000 A 
ATOM      4  C   UNL     1      48.343   5.870  15.822  0.00  0.00    +0.000 A 
ATOM      5  C   UNL     1      47.506   4.908  15.260  0.00  0.00    +0.000 A 
ATOM      6  N   UNL     1      47.184   4.880  13.932  0.00  0.00    +0.000 N 
ATOM      7  N   UNL     1      46.964   3.931  16.012  0.00  0.00    +0.000 NA
ATOM      8  C   UNL     1      47.249   3.912  17.342  0.00  0.00    +0.000 A 
ATOM      9  H   UNL     1      46.559   4.131  13.654  0.00  0.00    +0.000 HD
BRANCH   2  11
ATOM     10  N   UNL     1      48.521   3.512  19.939  0.00  0.00    +0.000 N 
ATOM     11  C   UNL     1      48.271   4.758  19.428  0.00  0.00    +0.000 C 
ATOM     12  O   UNL     1      48.270   5.749  20.143  0.00  0.00    +0.000 OA
ATOM     13  H   UNL     1      48.780   3.473  20.918  0.00  0.00    +0.000 HD
ATOM     14  H   UNL     1      48.776   2.725  19.361  0.00  0.00    +0.000 HD
ENDBRANCH   2  11
ENDBRANCH   1   6
BRANCH   1  15
ATOM     15  C   UNL     1      46.443   6.814  12.478  0.00  0.00    +0.000 C 
ATOM     16  F   UNL     1      46.104   7.680  13.476  0.00  0.00    +0.000 F 
ATOM     17  F   UNL     1      46.908   7.596  11.459  0.00  0.00    +0.000 F 
BRANCH  15  18
ATOM     18  C   UNL     1      45.278   5.942  12.051  0.00  0.00    +0.000 A 
ATOM     19  C   UNL     1      44.126   5.839  12.843  0.00  0.00    +0.000 A 
ATOM     20  C   UNL     1      43.018   5.124  12.383  0.00  0.00    +0.000 A 
ATOM     21  C   UNL     1      43.048   4.497  11.132  0.00  0.00    +0.000 A 
ATOM     22  C   UNL     1      44.197   4.577  10.349  0.00  0.00    +0.000 A 
ATOM     23  C   UNL     1      45.302   5.297  10.805  0.00  0.00    +0.000 A 
BRANCH  22  24
ATOM     24  O   UNL     1      44.337   4.040   9.096  0.00  0.00    +0.000 OA
BRANCH  24  25
ATOM     25  C   UNL     1      45.633   3.559   8.676  0.00  0.00    +0.000 C 
ATOM     26  C   UNL     1      45.943   3.520   7.173  0.00  0.00    +0.000 C 
ATOM     27  O   UNL     1      46.190   2.095   7.204  0.00  0.00    +0.000 OA
ATOM     28  C   UNL     1      45.753   2.030   8.581  0.00  0.00    +0.000 C 
ENDBRANCH  24  25
ENDBRANCH  22  24
ENDBRANCH  15  18
ENDBRANCH   1  15
TORSDOF 6
ENDMDL
