MODEL 1
REMARK VINA RESULT:    -9.736      0.000      0.000
REMARK INTER + INTRA:         -13.004
REMARK INTER:                 -12.582
REMARK INTRA:                  -0.422
REMARK UNBOUND:                -0.422
REMARK  Name = 
REMARK  7 active torsions:
REMARK  status: ('A' for Active; 'I' for Inactive)
REMARK    1  A    between atoms: C_1  and  C_2
REMARK    2  A    between atoms: C_2  and  C_3
REMARK    3  A    between atoms: C_2  and  C_4
REMARK    4  A    between atoms: C_6  and  C_7
REMARK    5  A    between atoms: N_12  and  C_13
REMARK    6  A    between atoms: C_13  and  C_14
REMARK    7  A    between atoms: C_18  and  C_19
REMARK                            x       y       z     vdW  Elec       q    Type
REMARK                         _______ _______ _______ _____ _____    ______ ____
ROOT
ATOM      1  C   UNL     1      47.929   7.557  12.633  0.00  0.00    +0.000 A 
ATOM      2  C   UNL     1      48.087   6.482  13.472  0.00  0.00    +0.000 A 
ATOM      3  C   UNL     1      47.021   5.615  13.524  0.00  0.00    +0.000 A 
ATOM      4  N   UNL     1      45.882   5.750  12.800  0.00  0.00    +0.000 NA
ATOM      5  C   UNL     1      45.823   6.816  11.997  0.00  0.00    +0.000 A 
ATOM      6  N   UNL     1      44.738   7.004  11.161  0.00  0.00    +0.000 N 
ATOM      7  N   UNL     1      46.795   7.737  11.913  0.00  0.00    +0.000 NA
ATOM      8  H   UNL     1      44.640   7.989  10.945  0.00  0.00    +0.000 HD
ENDROOT
BRANCH   3   9
ATOM      9  C   UNL     1      47.105   4.434  14.441  0.00  0.00    +0.000 C 
ATOM     10  N   UNL     1      47.140   4.728  15.778  0.00  0.00    +0.000 N 
ATOM     11  O   UNL     1      47.145   3.283  14.028  0.00  0.00    +0.000 OA
ATOM     12  H   UNL     1      47.108   5.691  16.088  0.00  0.00    +0.000 HD
ATOM     13  H   UNL     1      47.198   3.974  16.447  0.00  0.00    +0.000 HD
ENDBRANCH   3   9
BRANCH   1  15
ATOM     14  C   UNL     1      50.198   7.994  11.645  0.00  0.00    +0.000 C 
ATOM     15  C   UNL     1      49.052   8.566  12.483  0.00  0.00    +0.000 C 
ATOM     16  C   UNL     1      48.539   9.878  11.893  0.00  0.00    +0.000 C 
ENDBRANCH   1  15
BRANCH   6  17
ATOM     17  C   UNL     1      43.550   6.225  11.414  0.00  0.00    +0.000 C 
BRANCH  17  18
ATOM     18  C   UNL     1      43.723   4.805  10.936  0.00  0.00    +0.000 A 
ATOM     19  C   UNL     1      43.121   3.748  11.603  0.00  0.00    +0.000 A 
ATOM     20  N   UNL     1      43.265   2.453  11.253  0.00  0.00    +0.000 NA
ATOM     21  C   UNL     1      44.059   2.194  10.182  0.00  0.00    +0.000 A 
ATOM     22  C   UNL     1      44.729   3.157   9.423  0.00  0.00    +0.000 A 
ATOM     23  C   UNL     1      44.520   4.490   9.823  0.00  0.00    +0.000 A 
BRANCH  22  24
ATOM     24  C   UNL     1      45.626   2.795   8.301  0.00  0.00    +0.000 A 
ATOM     25  C   UNL     1      45.943   3.717   7.283  0.00  0.00    +0.000 A 
ATOM     26  C   UNL     1      46.825   3.389   6.248  0.00  0.00    +0.000 A 
ATOM     27  C   UNL     1      47.396   2.124   6.207  0.00  0.00    +0.000 A 
ATOM     28  F   UNL     1      48.246   1.811   5.221  0.00  0.00    +0.000 F 
ATOM     29  C   UNL     1      47.098   1.184   7.181  0.00  0.00    +0.000 A 
ATOM     30  C   UNL     1      46.222   1.519   8.220  0.00  0.00    +0.000 A 
ENDBRANCH  22  24
ENDBRANCH  17  18
ENDBRANCH   6  17
TORSDOF 5
ENDMDL
MODEL 2
REMARK VINA RESULT:    -8.933      0.913      1.441
REMARK INTER + INTRA:         -11.966
REMARK INTER:                 -11.203
REMARK INTRA:                  -0.763
REMARK UNBOUND:                -0.422
REMARK  Name = 
REMARK  7 active torsions:
REMARK  status: ('A' for Active; 'I' for Inactive)
REMARK    1  A    between atoms: C_1  and  C_2
REMARK    2  A    between atoms: C_2  and  C_3
REMARK    3  A    between atoms: C_2  and  C_4
REMARK    4  A    between atoms: C_6  and  C_7
REMARK    5  A    between atoms: N_12  and  C_13
REMARK    6  A    between atoms: C_13  and  C_14
REMARK    7  A    between atoms: C_18  and  C_19
REMARK                            x       y       z     vdW  Elec       q    Type
REMARK                         _______ _______ _______ _____ _____    ______ ____
ROOT
ATOM      1  C   UNL     1      48.575   7.920  12.675  0.00  0.00    +0.000 A 
ATOM      2  C   UNL     1      48.729   7.046  13.722  0.00  0.00    +0.000 A 
ATOM      3  C   UNL     1      47.653   6.227  13.969  0.00  0.00    +0.000 A 
ATOM      4  N   UNL     1      46.506   6.222  13.243  0.00  0.00    +0.000 NA
ATOM      5  C   UNL     1      46.452   7.093  12.231  0.00  0.00    +0.000 A 
ATOM      6  N   UNL     1      45.358   7.116  11.384  0.00  0.00    +0.000 N 
ATOM      7  N   UNL     1      47.434   7.960  11.944  0.00  0.00    +0.000 NA
ATOM      8  H   UNL     1      45.271   8.033  10.965  0.00  0.00    +0.000 HD
ENDROOT
BRANCH   3   9
ATOM      9  C   UNL     1      47.732   5.267  15.115  0.00  0.00    +0.000 C 
ATOM     10  N   UNL     1      46.689   4.385  15.217  0.00  0.00    +0.000 N 
ATOM     11  O   UNL     1      48.660   5.270  15.913  0.00  0.00    +0.000 OA
ATOM     12  H   UNL     1      45.935   4.409  14.542  0.00  0.00    +0.000 HD
ATOM     13  H   UNL     1      46.684   3.713  15.970  0.00  0.00    +0.000 HD
ENDBRANCH   3   9
BRANCH   1  15
ATOM     14  C   UNL     1      50.330   9.490  13.550  0.00  0.00    +0.000 C 
ATOM     15  C   UNL     1      49.709   8.856  12.304  0.00  0.00    +0.000 C 
ATOM     16  C   UNL     1      50.765   8.136  11.467  0.00  0.00    +0.000 C 
ENDBRANCH   1  15
BRANCH   6  17
ATOM     17  C   UNL     1      44.164   6.427  11.809  0.00  0.00    +0.000 C 
BRANCH  17  18
ATOM     18  C   UNL     1      44.098   5.042  11.216  0.00  0.00    +0.000 A 
ATOM     19  C   UNL     1      43.278   4.066  11.765  0.00  0.00    +0.000 A 
ATOM     20  N   UNL     1      43.201   2.799  11.308  0.00  0.00    +0.000 NA
ATOM     21  C   UNL     1      43.989   2.482  10.249  0.00  0.00    +0.000 A 
ATOM     22  C   UNL     1      44.864   3.359   9.603  0.00  0.00    +0.000 A 
ATOM     23  C   UNL     1      44.882   4.672  10.109  0.00  0.00    +0.000 A 
BRANCH  22  24
ATOM     24  C   UNL     1      45.737   2.926   8.487  0.00  0.00    +0.000 A 
ATOM     25  C   UNL     1      46.167   1.590   8.362  0.00  0.00    +0.000 A 
ATOM     26  C   UNL     1      46.954   1.172   7.283  0.00  0.00    +0.000 A 
ATOM     27  C   UNL     1      47.336   2.091   6.316  0.00  0.00    +0.000 A 
ATOM     28  F   UNL     1      48.083   1.691   5.279  0.00  0.00    +0.000 F 
ATOM     29  C   UNL     1      46.946   3.418   6.410  0.00  0.00    +0.000 A 
ATOM     30  C   UNL     1      46.151   3.830   7.485  0.00  0.00    +0.000 A 
ENDBRANCH  22  24
ENDBRANCH  17  18
ENDBRANCH   6  17
TORSDOF 5
ENDMDL
MODEL 3
REMARK VINA RESULT:    -8.759      2.186      3.148
REMARK INTER + INTRA:         -11.741
REMARK INTER:                 -10.895
REMARK INTRA:                  -0.846
REMARK UNBOUND:                -0.422
REMARK  Name = 
REMARK  7 active torsions:
REMARK  status: ('A' for Active; 'I' for Inactive)
REMARK    1  A    between atoms: C_1  and  C_2
REMARK    2  A    between atoms: C_2  and  C_3
REMARK    3  A    between atoms: C_2  and  C_4
REMARK    4  A    between atoms: C_6  and  C_7
REMARK    5  A    between atoms: N_12  and  C_13
REMARK    6  A    between atoms: C_13  and  C_14
REMARK    7  A    between atoms: C_18  and  C_19
REMARK                            x       y       z     vdW  Elec       q    Type
REMARK                         _______ _______ _______ _____ _____    ______ ____
ROOT
ATOM      1  C   UNL     1      48.182   8.372  12.536  0.00  0.00    +0.000 A 
ATOM      2  C   UNL     1      47.444   9.471  12.174  0.00  0.00    +0.000 A 
ATOM      3  C   UNL     1      46.083   9.280  12.137  0.00  0.00    +0.000 A 
ATOM      4  N   UNL     1      45.460   8.117  12.454  0.00  0.00    +0.000 NA
ATOM      5  C   UNL     1      46.256   7.106  12.813  0.00  0.00    +0.000 A 
ATOM      6  N   UNL     1      45.717   5.902  13.227  0.00  0.00    +0.000 N 
ATOM      7  N   UNL     1      47.595   7.188  12.835  0.00  0.00    +0.000 NA
ATOM      8  H   UNL     1      46.384   5.157  13.071  0.00  0.00    +0.000 HD
ENDROOT
BRANCH   3   9
ATOM      9  C   UNL     1      45.211  10.423  11.720  0.00  0.00    +0.000 C 
ATOM     10  N   UNL     1      43.924  10.382  12.183  0.00  0.00    +0.000 N 
ATOM     11  O   UNL     1      45.616  11.333  11.008  0.00  0.00    +0.000 OA
ATOM     12  H   UNL     1      43.619   9.614  12.769  0.00  0.00    +0.000 HD
ATOM     13  H   UNL     1      43.286  11.123  11.935  0.00  0.00    +0.000 HD
ENDBRANCH   3   9
BRANCH   1  15
ATOM     14  C   UNL     1      50.212   7.840  13.919  0.00  0.00    +0.000 C 
ATOM     15  C   UNL     1      49.693   8.477  12.628  0.00  0.00    +0.000 C 
ATOM     16  C   UNL     1      50.363   7.862  11.401  0.00  0.00    +0.000 C 
ENDBRANCH   1  15
BRANCH   6  17
ATOM     17  C   UNL     1      44.322   5.658  12.948  0.00  0.00    +0.000 C 
BRANCH  17  18
ATOM     18  C   UNL     1      44.152   4.459  12.049  0.00  0.00    +0.000 A 
ATOM     19  C   UNL     1      43.274   3.436  12.379  0.00  0.00    +0.000 A 
ATOM     20  N   UNL     1      43.103   2.320  11.640  0.00  0.00    +0.000 NA
ATOM     21  C   UNL     1      43.852   2.212  10.513  0.00  0.00    +0.000 A 
ATOM     22  C   UNL     1      44.776   3.159  10.065  0.00  0.00    +0.000 A 
ATOM     23  C   UNL     1      44.893   4.311  10.864  0.00  0.00    +0.000 A 
BRANCH  22  24
ATOM     24  C   UNL     1      45.601   2.946   8.853  0.00  0.00    +0.000 A 
ATOM     25  C   UNL     1      46.033   1.660   8.470  0.00  0.00    +0.000 A 
ATOM     26  C   UNL     1      46.774   1.454   7.301  0.00  0.00    +0.000 A 
ATOM     27  C   UNL     1      47.107   2.538   6.500  0.00  0.00    +0.000 A 
ATOM     28  F   UNL     1      47.810   2.341   5.377  0.00  0.00    +0.000 F 
ATOM     29  C   UNL     1      46.714   3.820   6.849  0.00  0.00    +0.000 A 
ATOM     30  C   UNL     1      45.966   4.021   8.014  0.00  0.00    +0.000 A 
ENDBRANCH  22  24
ENDBRANCH  17  18
ENDBRANCH   6  17
TORSDOF 5
ENDMDL
MODEL 4
REMARK VINA RESULT:    -8.428      2.174      3.118
REMARK INTER + INTRA:         -11.314
REMARK INTER:                 -10.607
REMARK INTRA:                  -0.707
REMARK UNBOUND:                -0.422
REMARK  Name = 
REMARK  7 active torsions:
REMARK  status: ('A' for Active; 'I' for Inactive)
REMARK    1  A    between atoms: C_1  and  C_2
REMARK    2  A    between atoms: C_2  and  C_3
REMARK    3  A    between atoms: C_2  and  C_4
REMARK    4  A    between atoms: C_6  and  C_7
REMARK    5  A    between atoms: N_12  and  C_13
REMARK    6  A    between atoms: C_13  and  C_14
REMARK    7  A    between atoms: C_18  and  C_19
REMARK                            x       y       z     vdW  Elec       q    Type
REMARK                         _______ _______ _______ _____ _____    ______ ____
ROOT
ATOM      1  C   UNL     1      48.078   8.211  13.909  0.00  0.00    +0.000 A 
ATOM      2  C   UNL     1      47.843   9.413  13.290  0.00  0.00    +0.000 A 
ATOM      3  C   UNL     1      46.717   9.459  12.503  0.00  0.00    +0.000 A 
ATOM      4  N   UNL     1      45.849   8.428  12.338  0.00  0.00    +0.000 NA
ATOM      5  C   UNL     1      46.147   7.303  12.994  0.00  0.00    +0.000 A 
ATOM      6  N   UNL     1      45.289   6.220  12.953  0.00  0.00    +0.000 N 
ATOM      7  N   UNL     1      47.247   7.152  13.748  0.00  0.00    +0.000 NA
ATOM      8  H   UNL     1      45.807   5.367  13.128  0.00  0.00    +0.000 HD
ENDROOT
BRANCH   3   9
ATOM      9  C   UNL     1      46.409  10.726  11.767  0.00  0.00    +0.000 C 
ATOM     10  N   UNL     1      45.220  11.322  12.093  0.00  0.00    +0.000 N 
ATOM     11  O   UNL     1      47.163  11.198  10.927  0.00  0.00    +0.000 OA
ATOM     12  H   UNL     1      44.617  10.905  12.791  0.00  0.00    +0.000 HD
ATOM     13  H   UNL     1      44.955  12.179  11.631  0.00  0.00    +0.000 HD
ENDBRANCH   3   9
BRANCH   1  15
ATOM     14  C   UNL     1      49.130   6.839  15.733  0.00  0.00    +0.000 C 
ATOM     15  C   UNL     1      49.283   8.056  14.818  0.00  0.00    +0.000 C 
ATOM     16  C   UNL     1      50.576   7.977  14.008  0.00  0.00    +0.000 C 
ENDBRANCH   1  15
BRANCH   6  17
ATOM     17  C   UNL     1      44.260   6.214  11.941  0.00  0.00    +0.000 C 
BRANCH  17  18
ATOM     18  C   UNL     1      44.162   4.863  11.277  0.00  0.00    +0.000 A 
ATOM     19  C   UNL     1      43.342   3.870  11.795  0.00  0.00    +0.000 A 
ATOM     20  N   UNL     1      43.237   2.630  11.275  0.00  0.00    +0.000 NA
ATOM     21  C   UNL     1      43.995   2.359  10.181  0.00  0.00    +0.000 A 
ATOM     22  C   UNL     1      44.865   3.259   9.560  0.00  0.00    +0.000 A 
ATOM     23  C   UNL     1      44.913   4.542  10.134  0.00  0.00    +0.000 A 
BRANCH  22  24
ATOM     24  C   UNL     1      45.704   2.874   8.401  0.00  0.00    +0.000 A 
ATOM     25  C   UNL     1      46.023   3.794   7.383  0.00  0.00    +0.000 A 
ATOM     26  C   UNL     1      46.853   3.443   6.312  0.00  0.00    +0.000 A 
ATOM     27  C   UNL     1      47.368   2.157   6.237  0.00  0.00    +0.000 A 
ATOM     28  F   UNL     1      48.168   1.821   5.217  0.00  0.00    +0.000 F 
ATOM     29  C   UNL     1      47.066   1.217   7.211  0.00  0.00    +0.000 A 
ATOM     30  C   UNL     1      46.244   1.575   8.284  0.00  0.00    +0.000 A 
ENDBRANCH  22  24
ENDBRANCH  17  18
ENDBRANCH   6  17
TORSDOF 5
ENDMDL
MODEL 5
REMARK VINA RESULT:    -8.412      2.312      3.777
REMARK INTER + INTRA:         -11.292
REMARK INTER:                 -10.667
REMARK INTRA:                  -0.625
REMARK UNBOUND:                -0.422
REMARK  Name = 
REMARK  7 active torsions:
REMARK  status: ('A' for Active; 'I' for Inactive)
REMARK    1  A    between atoms: C_1  and  C_2
REMARK    2  A    between atoms: C_2  and  C_3
REMARK    3  A    between atoms: C_2  and  C_4
REMARK    4  A    between atoms: C_6  and  C_7
REMARK    5  A    between atoms: N_12  and  C_13
REMARK    6  A    between atoms: C_13  and  C_14
REMARK    7  A    between atoms: C_18  and  C_19
REMARK                            x       y       z     vdW  Elec       q    Type
REMARK                         _______ _______ _______ _____ _____    ______ ____
ROOT
ATOM      1  C   UNL     1      48.194   4.286  16.563  0.00  0.00    +0.000 A 
ATOM      2  C   UNL     1      48.903   5.440  16.342  0.00  0.00    +0.000 A 
ATOM      3  C   UNL     1      48.475   6.199  15.279  0.00  0.00    +0.000 A 
ATOM      4  N   UNL     1      47.416   5.890  14.488  0.00  0.00    +0.000 NA
ATOM      5  C   UNL     1      46.774   4.757  14.788  0.00  0.00    +0.000 A 
ATOM      6  N   UNL     1      45.638   4.390  14.091  0.00  0.00    +0.000 N 
ATOM      7  N   UNL     1      47.147   3.932  15.778  0.00  0.00    +0.000 NA
ATOM      8  H   UNL     1      45.519   3.386  14.137  0.00  0.00    +0.000 HD
ENDROOT
BRANCH   3   9
ATOM      9  C   UNL     1      49.216   7.459  14.955  0.00  0.00    +0.000 C 
ATOM     10  N   UNL     1      50.110   7.366  13.921  0.00  0.00    +0.000 N 
ATOM     11  O   UNL     1      49.043   8.501  15.572  0.00  0.00    +0.000 OA
ATOM     12  H   UNL     1      50.231   6.488  13.432  0.00  0.00    +0.000 HD
ATOM     13  H   UNL     1      50.642   8.181  13.655  0.00  0.00    +0.000 HD
ENDBRANCH   3   9
BRANCH   1  15
ATOM     14  C   UNL     1      49.813   2.552  17.395  0.00  0.00    +0.000 C 
ATOM     15  C   UNL     1      48.570   3.383  17.723  0.00  0.00    +0.000 C 
ATOM     16  C   UNL     1      48.768   4.189  19.005  0.00  0.00    +0.000 C 
ENDBRANCH   1  15
BRANCH   6  17
ATOM     17  C   UNL     1      45.363   5.068  12.847  0.00  0.00    +0.000 C 
BRANCH  17  18
ATOM     18  C   UNL     1      44.875   4.098  11.800  0.00  0.00    +0.000 A 
ATOM     19  C   UNL     1      43.753   3.312  12.021  0.00  0.00    +0.000 A 
ATOM     20  N   UNL     1      43.286   2.398  11.144  0.00  0.00    +0.000 NA
ATOM     21  C   UNL     1      43.977   2.255   9.984  0.00  0.00    +0.000 A 
ATOM     22  C   UNL     1      45.123   2.974   9.633  0.00  0.00    +0.000 A 
ATOM     23  C   UNL     1      45.547   3.927  10.577  0.00  0.00    +0.000 A 
BRANCH  22  24
ATOM     24  C   UNL     1      45.858   2.722   8.372  0.00  0.00    +0.000 A 
ATOM     25  C   UNL     1      46.052   3.738   7.415  0.00  0.00    +0.000 A 
ATOM     26  C   UNL     1      46.786   3.511   6.245  0.00  0.00    +0.000 A 
ATOM     27  C   UNL     1      47.328   2.256   6.007  0.00  0.00    +0.000 A 
ATOM     28  F   UNL     1      48.036   2.040   4.892  0.00  0.00    +0.000 F 
ATOM     29  C   UNL     1      47.147   1.226   6.917  0.00  0.00    +0.000 A 
ATOM     30  C   UNL     1      46.421   1.459   8.090  0.00  0.00    +0.000 A 
ENDBRANCH  22  24
ENDBRANCH  17  18
ENDBRANCH   6  17
TORSDOF 5
ENDMDL
MODEL 6
REMARK VINA RESULT:    -8.320      3.365      7.412
REMARK INTER + INTRA:         -11.174
REMARK INTER:                 -10.255
REMARK INTRA:                  -0.918
REMARK UNBOUND:                -0.422
REMARK  Name = 
REMARK  7 active torsions:
REMARK  status: ('A' for Active; 'I' for Inactive)
REMARK    1  A    between atoms: C_1  and  C_2
REMARK    2  A    between atoms: C_2  and  C_3
REMARK    3  A    between atoms: C_2  and  C_4
REMARK    4  A    between atoms: C_6  and  C_7
REMARK    5  A    between atoms: N_12  and  C_13
REMARK    6  A    between atoms: C_13  and  C_14
REMARK    7  A    between atoms: C_18  and  C_19
REMARK                            x       y       z     vdW  Elec       q    Type
REMARK                         _______ _______ _______ _____ _____    ______ ____
ROOT
ATOM      1  C   UNL     1      45.408   3.237   8.681  0.00  0.00    +0.000 A 
ATOM      2  C   UNL     1      44.634   2.519   9.559  0.00  0.00    +0.000 A 
ATOM      3  C   UNL     1      44.240   3.199  10.687  0.00  0.00    +0.000 A 
ATOM      4  N   UNL     1      44.543   4.496  10.951  0.00  0.00    +0.000 NA
ATOM      5  C   UNL     1      45.284   5.121  10.032  0.00  0.00    +0.000 A 
ATOM      6  N   UNL     1      45.584   6.464  10.169  0.00  0.00    +0.000 N 
ATOM      7  N   UNL     1      45.750   4.526   8.923  0.00  0.00    +0.000 NA
ATOM      8  H   UNL     1      46.435   6.677   9.664  0.00  0.00    +0.000 HD
ENDROOT
BRANCH   3   9
ATOM      9  C   UNL     1      43.420   2.475  11.709  0.00  0.00    +0.000 C 
ATOM     10  N   UNL     1      43.544   2.930  12.995  0.00  0.00    +0.000 N 
ATOM     11  O   UNL     1      42.691   1.535  11.421  0.00  0.00    +0.000 OA
ATOM     12  H   UNL     1      44.158   3.709  13.201  0.00  0.00    +0.000 HD
ATOM     13  H   UNL     1      43.018   2.482  13.730  0.00  0.00    +0.000 HD
ENDBRANCH   3   9
BRANCH   1  15
ATOM     14  C   UNL     1      46.619   3.597   6.509  0.00  0.00    +0.000 C 
ATOM     15  C   UNL     1      45.881   2.589   7.393  0.00  0.00    +0.000 C 
ATOM     16  C   UNL     1      46.751   1.367   7.680  0.00  0.00    +0.000 C 
ENDBRANCH   1  15
BRANCH   6  17
ATOM     17  C   UNL     1      45.368   7.074  11.458  0.00  0.00    +0.000 C 
BRANCH  17  18
ATOM     18  C   UNL     1      46.628   7.046  12.287  0.00  0.00    +0.000 A 
ATOM     19  C   UNL     1      47.777   7.701  11.864  0.00  0.00    +0.000 A 
ATOM     20  N   UNL     1      48.946   7.685  12.536  0.00  0.00    +0.000 NA
ATOM     21  C   UNL     1      48.978   6.972  13.691  0.00  0.00    +0.000 A 
ATOM     22  C   UNL     1      47.902   6.262  14.231  0.00  0.00    +0.000 A 
ATOM     23  C   UNL     1      46.704   6.337  13.498  0.00  0.00    +0.000 A 
BRANCH  22  24
ATOM     24  C   UNL     1      48.027   5.459  15.470  0.00  0.00    +0.000 A 
ATOM     25  C   UNL     1      47.244   4.307  15.684  0.00  0.00    +0.000 A 
ATOM     26  C   UNL     1      47.395   3.523  16.834  0.00  0.00    +0.000 A 
ATOM     27  C   UNL     1      48.325   3.888  17.796  0.00  0.00    +0.000 A 
ATOM     28  F   UNL     1      48.476   3.135  18.893  0.00  0.00    +0.000 F 
ATOM     29  C   UNL     1      49.105   5.023  17.630  0.00  0.00    +0.000 A 
ATOM     30  C   UNL     1      48.958   5.799  16.475  0.00  0.00    +0.000 A 
ENDBRANCH  22  24
ENDBRANCH  17  18
ENDBRANCH   6  17
TORSDOF 5
ENDMDL
MODEL 7
REMARK VINA RESULT:    -7.941      1.884      3.020
REMARK INTER + INTRA:         -10.684
REMARK INTER:                  -9.830
REMARK INTRA:                  -0.854
REMARK UNBOUND:                -0.422
REMARK  Name = 
REMARK  7 active torsions:
REMARK  status: ('A' for Active; 'I' for Inactive)
REMARK    1  A    between atoms: C_1  and  C_2
REMARK    2  A    between atoms: C_2  and  C_3
REMARK    3  A    between atoms: C_2  and  C_4
REMARK    4  A    between atoms: C_6  and  C_7
REMARK    5  A    between atoms: N_12  and  C_13
REMARK    6  A    between atoms: C_13  and  C_14
REMARK    7  A    between atoms: C_18  and  C_19
REMARK                            x       y       z     vdW  Elec       q    Type
REMARK                         _______ _______ _______ _____ _____    ______ ____
ROOT
ATOM      1  C   UNL     1      48.058   5.900  15.102  0.00  0.00    +0.000 A 
ATOM      2  C   UNL     1      48.896   6.636  14.302  0.00  0.00    +0.000 A 
ATOM      3  C   UNL     1      48.361   7.035  13.100  0.00  0.00    +0.000 A 
ATOM      4  N   UNL     1      47.093   6.772  12.695  0.00  0.00    +0.000 NA
ATOM      5  C   UNL     1      46.343   6.066  13.546  0.00  0.00    +0.000 A 
ATOM      6  N   UNL     1      45.014   5.809  13.262  0.00  0.00    +0.000 N 
ATOM      7  N   UNL     1      46.793   5.597  14.720  0.00  0.00    +0.000 NA
ATOM      8  H   UNL     1      44.716   4.974  13.750  0.00  0.00    +0.000 HD
ENDROOT
BRANCH   3   9
ATOM      9  C   UNL     1      49.224   7.814  12.156  0.00  0.00    +0.000 C 
ATOM     10  N   UNL     1      50.384   7.196  11.772  0.00  0.00    +0.000 N 
ATOM     11  O   UNL     1      48.921   8.931  11.758  0.00  0.00    +0.000 OA
ATOM     12  H   UNL     1      50.608   6.272  12.122  0.00  0.00    +0.000 HD
ATOM     13  H   UNL     1      51.010   7.671  11.138  0.00  0.00    +0.000 HD
ENDBRANCH   3   9
BRANCH   1  15
ATOM     14  C   UNL     1      48.501   3.899  16.555  0.00  0.00    +0.000 C 
ATOM     15  C   UNL     1      48.540   5.426  16.460  0.00  0.00    +0.000 C 
ATOM     16  C   UNL     1      49.937   5.961  16.766  0.00  0.00    +0.000 C 
ENDBRANCH   1  15
BRANCH   6  17
ATOM     17  C   UNL     1      44.561   6.025  11.910  0.00  0.00    +0.000 C 
BRANCH  17  18
ATOM     18  C   UNL     1      44.410   4.717  11.175  0.00  0.00    +0.000 A 
ATOM     19  C   UNL     1      43.555   3.728  11.643  0.00  0.00    +0.000 A 
ATOM     20  N   UNL     1      43.402   2.523  11.057  0.00  0.00    +0.000 NA
ATOM     21  C   UNL     1      44.144   2.284   9.946  0.00  0.00    +0.000 A 
ATOM     22  C   UNL     1      45.045   3.183   9.369  0.00  0.00    +0.000 A 
ATOM     23  C   UNL     1      45.144   4.431  10.011  0.00  0.00    +0.000 A 
BRANCH  22  24
ATOM     24  C   UNL     1      45.865   2.831   8.186  0.00  0.00    +0.000 A 
ATOM     25  C   UNL     1      46.184   3.784   7.199  0.00  0.00    +0.000 A 
ATOM     26  C   UNL     1      46.996   3.462   6.106  0.00  0.00    +0.000 A 
ATOM     27  C   UNL     1      47.492   2.173   5.976  0.00  0.00    +0.000 A 
ATOM     28  F   UNL     1      48.275   1.865   4.934  0.00  0.00    +0.000 F 
ATOM     29  C   UNL     1      47.190   1.202   6.918  0.00  0.00    +0.000 A 
ATOM     30  C   UNL     1      46.385   1.530   8.014  0.00  0.00    +0.000 A 
ENDBRANCH  22  24
ENDBRANCH  17  18
ENDBRANCH   6  17
TORSDOF 5
ENDMDL
MODEL 8
REMARK VINA RESULT:    -7.888      3.208      5.480
REMARK INTER + INTRA:         -10.615
REMARK INTER:                  -9.944
REMARK INTRA:                  -0.671
REMARK UNBOUND:                -0.422
REMARK  Name = 
REMARK  7 active torsions:
REMARK  status: ('A' for Active; 'I' for Inactive)
REMARK    1  A    between atoms: C_1  and  C_2
REMARK    2  A    between atoms: C_2  and  C_3
REMARK    3  A    between atoms: C_2  and  C_4
REMARK    4  A    between atoms: C_6  and  C_7
REMARK    5  A    between atoms: N_12  and  C_13
REMARK    6  A    between atoms: C_13  and  C_14
REMARK    7  A    between atoms: C_18  and  C_19
REMARK                            x       y       z     vdW  Elec       q    Type
REMARK                         _______ _______ _______ _____ _____    ______ ____
ROOT
ATOM      1  C   UNL     1      48.186   6.612  18.438  0.00  0.00    +0.000 A 
ATOM      2  C   UNL     1      47.904   5.287  18.221  0.00  0.00    +0.000 A 
ATOM      3  C   UNL     1      48.131   4.839  16.941  0.00  0.00    +0.000 A 
ATOM      4  N   UNL     1      48.623   5.604  15.934  0.00  0.00    +0.000 NA
ATOM      5  C   UNL     1      48.887   6.876  16.241  0.00  0.00    +0.000 A 
ATOM      6  N   UNL     1      49.462   7.719  15.307  0.00  0.00    +0.000 N 
ATOM      7  N   UNL     1      48.656   7.411  17.450  0.00  0.00    +0.000 NA
ATOM      8  H   UNL     1      49.228   8.679  15.524  0.00  0.00    +0.000 HD
ENDROOT
BRANCH   3   9
ATOM      9  C   UNL     1      47.817   3.412  16.616  0.00  0.00    +0.000 C 
ATOM     10  N   UNL     1      47.032   2.759  17.529  0.00  0.00    +0.000 N 
ATOM     11  O   UNL     1      48.235   2.860  15.607  0.00  0.00    +0.000 OA
ATOM     12  H   UNL     1      46.703   3.243  18.355  0.00  0.00    +0.000 HD
ATOM     13  H   UNL     1      46.786   1.793  17.367  0.00  0.00    +0.000 HD
ENDBRANCH   3   9
BRANCH   1  15
ATOM     14  C   UNL     1      47.282   8.559  19.744  0.00  0.00    +0.000 C 
ATOM     15  C   UNL     1      47.991   7.205  19.821  0.00  0.00    +0.000 C 
ATOM     16  C   UNL     1      47.238   6.239  20.733  0.00  0.00    +0.000 C 
ENDBRANCH   1  15
BRANCH   6  17
ATOM     17  C   UNL     1      49.460   7.295  13.928  0.00  0.00    +0.000 C 
BRANCH  17  18
ATOM     18  C   UNL     1      48.079   7.402  13.332  0.00  0.00    +0.000 A 
ATOM     19  C   UNL     1      47.259   8.486  13.615  0.00  0.00    +0.000 A 
ATOM     20  N   UNL     1      46.001   8.624  13.147  0.00  0.00    +0.000 NA
ATOM     21  C   UNL     1      45.529   7.625  12.358  0.00  0.00    +0.000 A 
ATOM     22  C   UNL     1      46.239   6.478  11.997  0.00  0.00    +0.000 A 
ATOM     23  C   UNL     1      47.553   6.402  12.496  0.00  0.00    +0.000 A 
BRANCH  22  24
ATOM     24  C   UNL     1      45.637   5.401  11.178  0.00  0.00    +0.000 A 
ATOM     25  C   UNL     1      45.673   5.437   9.769  0.00  0.00    +0.000 A 
ATOM     26  C   UNL     1      45.144   4.397   8.997  0.00  0.00    +0.000 A 
ATOM     27  C   UNL     1      44.556   3.307   9.623  0.00  0.00    +0.000 A 
ATOM     28  F   UNL     1      44.056   2.308   8.885  0.00  0.00    +0.000 F 
ATOM     29  C   UNL     1      44.487   3.240  11.006  0.00  0.00    +0.000 A 
ATOM     30  C   UNL     1      45.026   4.277  11.775  0.00  0.00    +0.000 A 
ENDBRANCH  22  24
ENDBRANCH  17  18
ENDBRANCH   6  17
TORSDOF 5
ENDMDL
