MODEL 1
REMARK VINA RESULT:    -9.167      0.000      0.000
REMARK INTER + INTRA:         -12.929
REMARK INTER:                 -11.846
REMARK INTRA:                  -1.083
REMARK UNBOUND:                -1.083
REMARK  Name = 
REMARK  6 active torsions:
REMARK  status: ('A' for Active; 'I' for Inactive)
REMARK    1  A    between atoms: C_1  and  C_2
REMARK    2  A    between atoms: C_2  and  N_3
REMARK    3  A    between atoms: C_2  and  C_16
REMARK    4  A    between atoms: C_4  and  C_6
REMARK    5  A    between atoms: C_19  and  C_20
REMARK    6  A    between atoms: C_20  and  N_21
REMARK                            x       y       z     vdW  Elec       q    Type
REMARK                         _______ _______ _______ _____ _____    ______ ____
ROOT
ATOM      1  C   UNL     1      45.555   8.826  12.898  0.00  0.00    +0.000 C 
ATOM      2  C   UNL     1      46.588   7.705  12.731  0.00  0.00    +0.000 C 
ENDROOT
BRANCH   2   3
ATOM      3  C   UNL     1      45.994   6.546  11.941  0.00  0.00    +0.000 A 
ATOM      4  C   UNL     1      45.109   5.647  12.550  0.00  0.00    +0.000 A 
ATOM      5  C   UNL     1      44.537   4.602  11.816  0.00  0.00    +0.000 A 
ATOM      6  C   UNL     1      44.844   4.424  10.459  0.00  0.00    +0.000 A 
ATOM      7  C   UNL     1      45.723   5.324   9.846  0.00  0.00    +0.000 A 
ATOM      8  C   UNL     1      46.293   6.369  10.579  0.00  0.00    +0.000 A 
BRANCH   6   9
ATOM      9  C   UNL     1      44.240   3.285   9.670  0.00  0.00    +0.000 C 
BRANCH   9  10
ATOM     10  N   UNL     1      44.576   3.404   8.265  0.00  0.00    +0.000 N 
ATOM     11  C   UNL     1      45.660   2.715   7.748  0.00  0.00    +0.000 A 
ATOM     12  C   UNL     1      46.072   1.484   8.222  0.00  0.00    +0.000 A 
ATOM     13  C   UNL     1      47.136   0.889   7.583  0.00  0.00    +0.000 A 
ATOM     14  N   UNL     1      47.760   1.430   6.526  0.00  0.00    +0.000 NA
ATOM     15  C   UNL     1      47.273   2.612   6.126  0.00  0.00    +0.000 A 
ATOM     16  N   UNL     1      46.261   3.292   6.694  0.00  0.00    +0.000 NA
ATOM     17  H   UNL     1      44.578   4.349   7.889  0.00  0.00    +0.000 HD
ENDBRANCH   9  10
ENDBRANCH   6   9
ENDBRANCH   2   3
BRANCH   2  18
ATOM     18  N   UNL     1      47.078   7.212  14.010  0.00  0.00    +0.000 N 
ATOM     19  C   UNL     1      48.336   6.689  14.176  0.00  0.00    +0.000 C 
ATOM     20  O   UNL     1      49.161   6.639  13.268  0.00  0.00    +0.000 OA
ATOM     21  H   UNL     1      46.364   6.938  14.679  0.00  0.00    +0.000 HD
BRANCH  19  22
ATOM     22  C   UNL     1      48.680   6.253  15.533  0.00  0.00    +0.000 A 
ATOM     23  C   UNL     1      49.600   6.978  16.278  0.00  0.00    +0.000 A 
ATOM     24  S   UNL     1      49.863   6.344  17.840  0.00  0.00    +0.000 S 
ATOM     25  C   UNL     1      48.795   5.050  17.552  0.00  0.00    +0.000 A 
ATOM     26  N   UNL     1      48.582   4.093  18.494  0.00  0.00    +0.000 NA
ATOM     27  C   UNL     1      47.776   3.151  18.124  0.00  0.00    +0.000 A 
ATOM     28  N   UNL     1      47.153   3.089  16.905  0.00  0.00    +0.000 N 
ATOM     29  C   UNL     1      47.305   4.057  15.942  0.00  0.00    +0.000 A 
ATOM     30  O   UNL     1      46.680   4.016  14.884  0.00  0.00    +0.000 OA
ATOM     31  C   UNL     1      48.225   5.120  16.295  0.00  0.00    +0.000 A 
ATOM     32  H   UNL     1      46.518   2.336  16.686  0.00  0.00    +0.000 HD
ENDBRANCH  19  22
ENDBRANCH   2  18
TORSDOF 5
ENDMDL
MODEL 2
REMARK VINA RESULT:    -8.429      2.001      2.615
REMARK INTER + INTRA:         -11.976
REMARK INTER:                 -10.914
REMARK INTRA:                  -1.062
REMARK UNBOUND:                -1.083
REMARK  Name = 
REMARK  6 active torsions:
REMARK  status: ('A' for Active; 'I' for Inactive)
REMARK    1  A    between atoms: C_1  and  C_2
REMARK    2  A    between atoms: C_2  and  N_3
REMARK    3  A    between atoms: C_2  and  C_16
REMARK    4  A    between atoms: C_4  and  C_6
REMARK    5  A    between atoms: C_19  and  C_20
REMARK    6  A    between atoms: C_20  and  N_21
REMARK                            x       y       z     vdW  Elec       q    Type
REMARK                         _______ _______ _______ _____ _____    ______ ____
ROOT
ATOM      1  C   UNL     1      47.667   8.428  13.709  0.00  0.00    +0.000 C 
ATOM      2  C   UNL     1      47.900   6.913  13.686  0.00  0.00    +0.000 C 
ENDROOT
BRANCH   2   3
ATOM      3  C   UNL     1      46.873   6.228  12.794  0.00  0.00    +0.000 A 
ATOM      4  C   UNL     1      46.533   6.774  11.550  0.00  0.00    +0.000 A 
ATOM      5  C   UNL     1      45.614   6.128  10.715  0.00  0.00    +0.000 A 
ATOM      6  C   UNL     1      45.004   4.928  11.109  0.00  0.00    +0.000 A 
ATOM      7  C   UNL     1      45.346   4.378  12.350  0.00  0.00    +0.000 A 
ATOM      8  C   UNL     1      46.265   5.022  13.182  0.00  0.00    +0.000 A 
BRANCH   6   9
ATOM      9  C   UNL     1      43.998   4.239  10.216  0.00  0.00    +0.000 C 
BRANCH   9  10
ATOM     10  N   UNL     1      44.392   4.348   8.826  0.00  0.00    +0.000 N 
ATOM     11  C   UNL     1      45.322   3.470   8.296  0.00  0.00    +0.000 A 
ATOM     12  C   UNL     1      45.452   2.159   8.715  0.00  0.00    +0.000 A 
ATOM     13  C   UNL     1      46.385   1.382   8.067  0.00  0.00    +0.000 A 
ATOM     14  N   UNL     1      47.139   1.825   7.051  0.00  0.00    +0.000 NA
ATOM     15  C   UNL     1      46.924   3.100   6.702  0.00  0.00    +0.000 A 
ATOM     16  N   UNL     1      46.061   3.953   7.283  0.00  0.00    +0.000 NA
ATOM     17  H   UNL     1      44.604   5.287   8.497  0.00  0.00    +0.000 HD
ENDBRANCH   9  10
ENDBRANCH   6   9
ENDBRANCH   2   3
BRANCH   2  18
ATOM     18  N   UNL     1      47.849   6.327  15.016  0.00  0.00    +0.000 N 
ATOM     19  C   UNL     1      48.955   6.193  15.817  0.00  0.00    +0.000 C 
ATOM     20  O   UNL     1      50.066   6.601  15.491  0.00  0.00    +0.000 OA
ATOM     21  H   UNL     1      47.064   5.705  15.193  0.00  0.00    +0.000 HD
BRANCH  19  22
ATOM     22  C   UNL     1      48.728   5.596  17.138  0.00  0.00    +0.000 A 
ATOM     23  C   UNL     1      48.890   4.229  17.314  0.00  0.00    +0.000 A 
ATOM     24  S   UNL     1      48.609   3.710  18.915  0.00  0.00    +0.000 S 
ATOM     25  C   UNL     1      48.214   5.289  19.413  0.00  0.00    +0.000 A 
ATOM     26  N   UNL     1      47.836   5.547  20.693  0.00  0.00    +0.000 NA
ATOM     27  C   UNL     1      47.528   6.783  20.920  0.00  0.00    +0.000 A 
ATOM     28  N   UNL     1      47.580   7.785  19.986  0.00  0.00    +0.000 N 
ATOM     29  C   UNL     1      47.998   7.577  18.694  0.00  0.00    +0.000 A 
ATOM     30  O   UNL     1      48.103   8.505  17.895  0.00  0.00    +0.000 OA
ATOM     31  C   UNL     1      48.324   6.201  18.380  0.00  0.00    +0.000 A 
ATOM     32  H   UNL     1      47.345   8.735  20.233  0.00  0.00    +0.000 HD
ENDBRANCH  19  22
ENDBRANCH   2  18
TORSDOF 5
ENDMDL
MODEL 3
REMARK VINA RESULT:    -8.337      1.915      2.488
REMARK INTER + INTRA:         -11.857
REMARK INTER:                 -10.857
REMARK INTRA:                  -0.999
REMARK UNBOUND:                -1.083
REMARK  Name = 
REMARK  6 active torsions:
REMARK  status: ('A' for Active; 'I' for Inactive)
REMARK    1  A    between atoms: C_1  and  C_2
REMARK    2  A    between atoms: C_2  and  N_3
REMARK    3  A    between atoms: C_2  and  C_16
REMARK    4  A    between atoms: C_4  and  C_6
REMARK    5  A    between atoms: C_19  and  C_20
REMARK    6  A    between atoms: C_20  and  N_21
REMARK                            x       y       z     vdW  Elec       q    Type
REMARK                         _______ _______ _______ _____ _____    ______ ____
ROOT
ATOM      1  C   UNL     1      49.040   7.992  13.037  0.00  0.00    +0.000 C 
ATOM      2  C   UNL     1      48.568   6.684  13.682  0.00  0.00    +0.000 C 
ENDROOT
BRANCH   2   3
ATOM      3  C   UNL     1      47.354   6.133  12.946  0.00  0.00    +0.000 A 
ATOM      4  C   UNL     1      46.848   6.790  11.816  0.00  0.00    +0.000 A 
ATOM      5  C   UNL     1      45.753   6.266  11.119  0.00  0.00    +0.000 A 
ATOM      6  C   UNL     1      45.130   5.083  11.541  0.00  0.00    +0.000 A 
ATOM      7  C   UNL     1      45.637   4.422  12.666  0.00  0.00    +0.000 A 
ATOM      8  C   UNL     1      46.732   4.943  13.360  0.00  0.00    +0.000 A 
BRANCH   6   9
ATOM      9  C   UNL     1      43.936   4.527  10.799  0.00  0.00    +0.000 C 
BRANCH   9  10
ATOM     10  N   UNL     1      44.144   4.607   9.367  0.00  0.00    +0.000 N 
ATOM     11  C   UNL     1      44.985   3.706   8.735  0.00  0.00    +0.000 A 
ATOM     12  C   UNL     1      45.152   2.401   9.157  0.00  0.00    +0.000 A 
ATOM     13  C   UNL     1      45.982   1.600   8.406  0.00  0.00    +0.000 A 
ATOM     14  N   UNL     1      46.600   2.015   7.291  0.00  0.00    +0.000 NA
ATOM     15  C   UNL     1      46.356   3.287   6.950  0.00  0.00    +0.000 A 
ATOM     16  N   UNL     1      45.589   4.161   7.624  0.00  0.00    +0.000 NA
ATOM     17  H   UNL     1      44.321   5.537   8.996  0.00  0.00    +0.000 HD
ENDBRANCH   9  10
ENDBRANCH   6   9
ENDBRANCH   2   3
BRANCH   2  18
ATOM     18  N   UNL     1      48.242   6.849  15.090  0.00  0.00    +0.000 N 
ATOM     19  C   UNL     1      49.139   6.603  16.099  0.00  0.00    +0.000 C 
ATOM     20  O   UNL     1      50.301   6.269  15.889  0.00  0.00    +0.000 OA
ATOM     21  H   UNL     1      47.253   6.804  15.321  0.00  0.00    +0.000 HD
BRANCH  19  22
ATOM     22  C   UNL     1      48.656   6.835  17.464  0.00  0.00    +0.000 A 
ATOM     23  C   UNL     1      48.233   8.102  17.840  0.00  0.00    +0.000 A 
ATOM     24  S   UNL     1      47.683   8.187  19.452  0.00  0.00    +0.000 S 
ATOM     25  C   UNL     1      48.041   6.544  19.716  0.00  0.00    +0.000 A 
ATOM     26  N   UNL     1      47.836   5.967  20.930  0.00  0.00    +0.000 NA
ATOM     27  C   UNL     1      48.188   4.724  20.997  0.00  0.00    +0.000 A 
ATOM     28  N   UNL     1      48.711   4.004  19.954  0.00  0.00    +0.000 N 
ATOM     29  C   UNL     1      48.893   4.534  18.700  0.00  0.00    +0.000 A 
ATOM     30  O   UNL     1      49.297   3.848  17.764  0.00  0.00    +0.000 OA
ATOM     31  C   UNL     1      48.543   5.935  18.582  0.00  0.00    +0.000 A 
ATOM     32  H   UNL     1      48.947   3.029  20.066  0.00  0.00    +0.000 HD
ENDBRANCH  19  22
ENDBRANCH   2  18
TORSDOF 5
ENDMDL
MODEL 4
REMARK VINA RESULT:    -7.743      2.816      4.131
REMARK INTER + INTRA:         -11.089
REMARK INTER:                  -9.869
REMARK INTRA:                  -1.220
REMARK UNBOUND:                -1.083
REMARK  Name = 
REMARK  6 active torsions:
REMARK  status: ('A' for Active; 'I' for Inactive)
REMARK    1  A    between atoms: C_1  and  C_2
REMARK    2  A    between atoms: C_2  and  N_3
REMARK    3  A    between atoms: C_2  and  C_16
REMARK    4  A    between atoms: C_4  and  C_6
REMARK    5  A    between atoms: C_19  and  C_20
REMARK    6  A    between atoms: C_20  and  N_21
REMARK                            x       y       z     vdW  Elec       q    Type
REMARK                         _______ _______ _______ _____ _____    ______ ____
ROOT
ATOM      1  C   UNL     1      47.265   4.745  15.047  0.00  0.00    +0.000 C 
ATOM      2  C   UNL     1      46.899   5.823  14.019  0.00  0.00    +0.000 C 
ENDROOT
BRANCH   2   3
ATOM      3  C   UNL     1      46.174   5.204  12.832  0.00  0.00    +0.000 A 
ATOM      4  C   UNL     1      45.988   5.934  11.651  0.00  0.00    +0.000 A 
ATOM      5  C   UNL     1      45.352   5.354  10.547  0.00  0.00    +0.000 A 
ATOM      6  C   UNL     1      44.875   4.036  10.602  0.00  0.00    +0.000 A 
ATOM      7  C   UNL     1      45.064   3.303  11.779  0.00  0.00    +0.000 A 
ATOM      8  C   UNL     1      45.701   3.881  12.880  0.00  0.00    +0.000 A 
BRANCH   6   9
ATOM      9  C   UNL     1      44.171   3.416   9.417  0.00  0.00    +0.000 C 
BRANCH   9  10
ATOM     10  N   UNL     1      44.902   3.681   8.194  0.00  0.00    +0.000 N 
ATOM     11  C   UNL     1      45.948   2.855   7.815  0.00  0.00    +0.000 A 
ATOM     12  C   UNL     1      45.984   1.502   8.095  0.00  0.00    +0.000 A 
ATOM     13  C   UNL     1      47.060   0.791   7.616  0.00  0.00    +0.000 A 
ATOM     14  N   UNL     1      48.041   1.338   6.883  0.00  0.00    +0.000 NA
ATOM     15  C   UNL     1      47.904   2.649   6.644  0.00  0.00    +0.000 A 
ATOM     16  N   UNL     1      46.912   3.441   7.087  0.00  0.00    +0.000 NA
ATOM     17  H   UNL     1      45.178   4.648   8.043  0.00  0.00    +0.000 HD
ENDBRANCH   9  10
ENDBRANCH   6   9
ENDBRANCH   2   3
BRANCH   2  18
ATOM     18  N   UNL     1      48.066   6.550  13.543  0.00  0.00    +0.000 N 
ATOM     19  C   UNL     1      48.119   7.921  13.484  0.00  0.00    +0.000 C 
ATOM     20  O   UNL     1      47.203   8.639  13.872  0.00  0.00    +0.000 OA
ATOM     21  H   UNL     1      48.690   6.030  12.933  0.00  0.00    +0.000 HD
BRANCH  19  22
ATOM     22  C   UNL     1      49.376   8.498  12.995  0.00  0.00    +0.000 A 
ATOM     23  C   UNL     1      49.368   9.320  11.877  0.00  0.00    +0.000 A 
ATOM     24  S   UNL     1      50.910   9.921  11.464  0.00  0.00    +0.000 S 
ATOM     25  C   UNL     1      51.645   9.062  12.736  0.00  0.00    +0.000 A 
ATOM     26  N   UNL     1      52.989   9.110  12.931  0.00  0.00    +0.000 NA
ATOM     27  C   UNL     1      53.413   8.378  13.910  0.00  0.00    +0.000 A 
ATOM     28  N   UNL     1      52.611   7.617  14.720  0.00  0.00    +0.000 N 
ATOM     29  C   UNL     1      51.245   7.573  14.586  0.00  0.00    +0.000 A 
ATOM     30  O   UNL     1      50.542   6.939  15.368  0.00  0.00    +0.000 OA
ATOM     31  C   UNL     1      50.722   8.352  13.481  0.00  0.00    +0.000 A 
ATOM     32  H   UNL     1      53.003   7.082  15.481  0.00  0.00    +0.000 HD
ENDBRANCH  19  22
ENDBRANCH   2  18
TORSDOF 5
ENDMDL
MODEL 5
REMARK VINA RESULT:    -7.643      2.547      4.369
REMARK INTER + INTRA:         -10.959
REMARK INTER:                  -9.682
REMARK INTRA:                  -1.277
REMARK UNBOUND:                -1.083
REMARK  Name = 
REMARK  6 active torsions:
REMARK  status: ('A' for Active; 'I' for Inactive)
REMARK    1  A    between atoms: C_1  and  C_2
REMARK    2  A    between atoms: C_2  and  N_3
REMARK    3  A    between atoms: C_2  and  C_16
REMARK    4  A    between atoms: C_4  and  C_6
REMARK    5  A    between atoms: C_19  and  C_20
REMARK    6  A    between atoms: C_20  and  N_21
REMARK                            x       y       z     vdW  Elec       q    Type
REMARK                         _______ _______ _______ _____ _____    ______ ____
ROOT
ATOM      1  C   UNL     1      47.361   4.250  15.181  0.00  0.00    +0.000 C 
ATOM      2  C   UNL     1      46.982   5.445  14.298  0.00  0.00    +0.000 C 
ENDROOT
BRANCH   2   3
ATOM      3  C   UNL     1      46.240   4.976  13.054  0.00  0.00    +0.000 A 
ATOM      4  C   UNL     1      46.041   5.844  11.973  0.00  0.00    +0.000 A 
ATOM      5  C   UNL     1      45.389   5.404  10.815  0.00  0.00    +0.000 A 
ATOM      6  C   UNL     1      44.910   4.089  10.715  0.00  0.00    +0.000 A 
ATOM      7  C   UNL     1      45.114   3.217  11.791  0.00  0.00    +0.000 A 
ATOM      8  C   UNL     1      45.766   3.657  12.946  0.00  0.00    +0.000 A 
BRANCH   6   9
ATOM      9  C   UNL     1      44.190   3.618   9.473  0.00  0.00    +0.000 C 
BRANCH   9  10
ATOM     10  N   UNL     1      44.987   3.881   8.292  0.00  0.00    +0.000 N 
ATOM     11  C   UNL     1      45.970   2.987   7.902  0.00  0.00    +0.000 A 
ATOM     12  C   UNL     1      45.879   1.623   8.108  0.00  0.00    +0.000 A 
ATOM     13  C   UNL     1      46.907   0.845   7.626  0.00  0.00    +0.000 A 
ATOM     14  N   UNL     1      47.958   1.341   6.957  0.00  0.00    +0.000 NA
ATOM     15  C   UNL     1      47.944   2.669   6.787  0.00  0.00    +0.000 A 
ATOM     16  N   UNL     1      47.008   3.522   7.239  0.00  0.00    +0.000 NA
ATOM     17  H   UNL     1      45.350   4.826   8.203  0.00  0.00    +0.000 HD
ENDBRANCH   9  10
ENDBRANCH   6   9
ENDBRANCH   2   3
BRANCH   2  18
ATOM     18  N   UNL     1      48.143   6.225  13.899  0.00  0.00    +0.000 N 
ATOM     19  C   UNL     1      48.739   7.152  14.718  0.00  0.00    +0.000 C 
ATOM     20  O   UNL     1      48.365   7.360  15.868  0.00  0.00    +0.000 OA
ATOM     21  H   UNL     1      48.282   6.328  12.897  0.00  0.00    +0.000 HD
BRANCH  19  22
ATOM     22  C   UNL     1      49.912   7.841  14.169  0.00  0.00    +0.000 A 
ATOM     23  C   UNL     1      51.140   7.724  14.805  0.00  0.00    +0.000 A 
ATOM     24  S   UNL     1      52.396   8.569  14.019  0.00  0.00    +0.000 S 
ATOM     25  C   UNL     1      51.329   9.161  12.833  0.00  0.00    +0.000 A 
ATOM     26  N   UNL     1      51.762   9.995  11.852  0.00  0.00    +0.000 NA
ATOM     27  C   UNL     1      50.835  10.396  11.043  0.00  0.00    +0.000 A 
ATOM     28  N   UNL     1      49.518  10.023  11.119  0.00  0.00    +0.000 N 
ATOM     29  C   UNL     1      49.046   9.148  12.067  0.00  0.00    +0.000 A 
ATOM     30  O   UNL     1      47.875   8.774  12.071  0.00  0.00    +0.000 OA
ATOM     31  C   UNL     1      50.040   8.695  13.018  0.00  0.00    +0.000 A 
ATOM     32  H   UNL     1      48.846  10.356  10.443  0.00  0.00    +0.000 HD
ENDBRANCH  19  22
ENDBRANCH   2  18
TORSDOF 5
ENDMDL
MODEL 6
REMARK VINA RESULT:    -7.300      3.291      7.964
REMARK INTER + INTRA:         -10.516
REMARK INTER:                  -9.405
REMARK INTRA:                  -1.112
REMARK UNBOUND:                -1.083
REMARK  Name = 
REMARK  6 active torsions:
REMARK  status: ('A' for Active; 'I' for Inactive)
REMARK    1  A    between atoms: C_1  and  C_2
REMARK    2  A    between atoms: C_2  and  N_3
REMARK    3  A    between atoms: C_2  and  C_16
REMARK    4  A    between atoms: C_4  and  C_6
REMARK    5  A    between atoms: C_19  and  C_20
REMARK    6  A    between atoms: C_20  and  N_21
REMARK                            x       y       z     vdW  Elec       q    Type
REMARK                         _______ _______ _______ _____ _____    ______ ____
ROOT
ATOM      1  C   UNL     1      49.603   8.205  11.485  0.00  0.00    +0.000 C 
ATOM      2  C   UNL     1      48.401   7.777  12.336  0.00  0.00    +0.000 C 
ENDROOT
BRANCH   2   3
ATOM      3  C   UNL     1      48.861   7.312  13.712  0.00  0.00    +0.000 A 
ATOM      4  C   UNL     1      48.085   6.415  14.457  0.00  0.00    +0.000 A 
ATOM      5  C   UNL     1      48.523   5.960  15.706  0.00  0.00    +0.000 A 
ATOM      6  C   UNL     1      49.740   6.401  16.245  0.00  0.00    +0.000 A 
ATOM      7  C   UNL     1      50.521   7.293  15.501  0.00  0.00    +0.000 A 
ATOM      8  C   UNL     1      50.084   7.745  14.253  0.00  0.00    +0.000 A 
BRANCH   6   9
ATOM      9  C   UNL     1      50.205   5.925  17.603  0.00  0.00    +0.000 C 
BRANCH   9  10
ATOM     10  N   UNL     1      49.848   4.536  17.805  0.00  0.00    +0.000 N 
ATOM     11  C   UNL     1      50.820   3.551  17.739  0.00  0.00    +0.000 A 
ATOM     12  C   UNL     1      52.132   3.754  18.121  0.00  0.00    +0.000 A 
ATOM     13  C   UNL     1      52.982   2.674  18.049  0.00  0.00    +0.000 A 
ATOM     14  N   UNL     1      52.592   1.452  17.658  0.00  0.00    +0.000 NA
ATOM     15  C   UNL     1      51.297   1.349  17.332  0.00  0.00    +0.000 A 
ATOM     16  N   UNL     1      50.391   2.342  17.338  0.00  0.00    +0.000 NA
ATOM     17  H   UNL     1      49.021   4.214  17.309  0.00  0.00    +0.000 HD
ENDBRANCH   9  10
ENDBRANCH   6   9
ENDBRANCH   2   3
BRANCH   2  18
ATOM     18  N   UNL     1      47.627   6.719  11.706  0.00  0.00    +0.000 N 
ATOM     19  C   UNL     1      46.277   6.817  11.476  0.00  0.00    +0.000 C 
ATOM     20  O   UNL     1      45.628   7.824  11.742  0.00  0.00    +0.000 OA
ATOM     21  H   UNL     1      48.026   5.786  11.765  0.00  0.00    +0.000 HD
BRANCH  19  22
ATOM     22  C   UNL     1      45.649   5.667  10.815  0.00  0.00    +0.000 A 
ATOM     23  C   UNL     1      45.747   5.526   9.438  0.00  0.00    +0.000 A 
ATOM     24  S   UNL     1      44.981   4.123   8.842  0.00  0.00    +0.000 S 
ATOM     25  C   UNL     1      44.451   3.687  10.399  0.00  0.00    +0.000 A 
ATOM     26  N   UNL     1      43.692   2.576  10.596  0.00  0.00    +0.000 NA
ATOM     27  C   UNL     1      43.329   2.388  11.824  0.00  0.00    +0.000 A 
ATOM     28  N   UNL     1      43.670   3.203  12.872  0.00  0.00    +0.000 N 
ATOM     29  C   UNL     1      44.471   4.310  12.724  0.00  0.00    +0.000 A 
ATOM     30  O   UNL     1      44.820   4.984  13.691  0.00  0.00    +0.000 OA
ATOM     31  C   UNL     1      44.878   4.582  11.361  0.00  0.00    +0.000 A 
ATOM     32  H   UNL     1      43.371   2.990  13.812  0.00  0.00    +0.000 HD
ENDBRANCH  19  22
ENDBRANCH   2  18
TORSDOF 5
ENDMDL
MODEL 7
REMARK VINA RESULT:    -7.245      4.404      9.028
REMARK INTER + INTRA:         -10.446
REMARK INTER:                  -9.572
REMARK INTRA:                  -0.874
REMARK UNBOUND:                -1.083
REMARK  Name = 
REMARK  6 active torsions:
REMARK  status: ('A' for Active; 'I' for Inactive)
REMARK    1  A    between atoms: C_1  and  C_2
REMARK    2  A    between atoms: C_2  and  N_3
REMARK    3  A    between atoms: C_2  and  C_16
REMARK    4  A    between atoms: C_4  and  C_6
REMARK    5  A    between atoms: C_19  and  C_20
REMARK    6  A    between atoms: C_20  and  N_21
REMARK                            x       y       z     vdW  Elec       q    Type
REMARK                         _______ _______ _______ _____ _____    ______ ____
ROOT
ATOM      1  C   UNL     1      46.982   4.935  18.486  0.00  0.00    +0.000 C 
ATOM      2  C   UNL     1      47.462   4.177  17.242  0.00  0.00    +0.000 C 
ENDROOT
BRANCH   2   3
ATOM      3  C   UNL     1      48.942   3.838  17.362  0.00  0.00    +0.000 A 
ATOM      4  C   UNL     1      49.884   4.842  17.622  0.00  0.00    +0.000 A 
ATOM      5  C   UNL     1      51.240   4.526  17.766  0.00  0.00    +0.000 A 
ATOM      6  C   UNL     1      51.688   3.203  17.642  0.00  0.00    +0.000 A 
ATOM      7  C   UNL     1      50.748   2.197  17.388  0.00  0.00    +0.000 A 
ATOM      8  C   UNL     1      49.394   2.512  17.247  0.00  0.00    +0.000 A 
BRANCH   6   9
ATOM      9  C   UNL     1      53.154   2.864  17.779  0.00  0.00    +0.000 C 
BRANCH   9  10
ATOM     10  N   UNL     1      53.337   1.752  18.691  0.00  0.00    +0.000 N 
ATOM     11  C   UNL     1      53.981   0.602  18.265  0.00  0.00    +0.000 A 
ATOM     12  C   UNL     1      54.994   0.604  17.326  0.00  0.00    +0.000 A 
ATOM     13  C   UNL     1      55.580  -0.606  17.031  0.00  0.00    +0.000 A 
ATOM     14  N   UNL     1      55.235  -1.758  17.624  0.00  0.00    +0.000 NA
ATOM     15  C   UNL     1      54.261  -1.654  18.538  0.00  0.00    +0.000 A 
ATOM     16  N   UNL     1      53.604  -0.532  18.880  0.00  0.00    +0.000 NA
ATOM     17  H   UNL     1      52.521   1.488  19.237  0.00  0.00    +0.000 HD
ENDBRANCH   9  10
ENDBRANCH   6   9
ENDBRANCH   2   3
BRANCH   2  18
ATOM     18  N   UNL     1      47.240   4.931  16.017  0.00  0.00    +0.000 N 
ATOM     19  C   UNL     1      47.202   4.345  14.777  0.00  0.00    +0.000 C 
ATOM     20  O   UNL     1      47.306   3.133  14.609  0.00  0.00    +0.000 OA
ATOM     21  H   UNL     1      47.467   5.920  16.062  0.00  0.00    +0.000 HD
BRANCH  19  22
ATOM     22  C   UNL     1      46.951   5.244  13.645  0.00  0.00    +0.000 A 
ATOM     23  C   UNL     1      47.943   6.121  13.228  0.00  0.00    +0.000 A 
ATOM     24  S   UNL     1      47.489   7.073  11.887  0.00  0.00    +0.000 S 
ATOM     25  C   UNL     1      45.935   6.381  11.853  0.00  0.00    +0.000 A 
ATOM     26  N   UNL     1      45.007   6.784  10.945  0.00  0.00    +0.000 NA
ATOM     27  C   UNL     1      43.859   6.200  11.061  0.00  0.00    +0.000 A 
ATOM     28  N   UNL     1      43.562   5.238  11.992  0.00  0.00    +0.000 N 
ATOM     29  C   UNL     1      44.482   4.770  12.898  0.00  0.00    +0.000 A 
ATOM     30  O   UNL     1      44.212   3.857  13.675  0.00  0.00    +0.000 OA
ATOM     31  C   UNL     1      45.777   5.417  12.831  0.00  0.00    +0.000 A 
ATOM     32  H   UNL     1      42.650   4.805  12.016  0.00  0.00    +0.000 HD
ENDBRANCH  19  22
ENDBRANCH   2  18
TORSDOF 5
ENDMDL
MODEL 8
REMARK VINA RESULT:    -7.226      3.841      5.170
REMARK INTER + INTRA:         -10.421
REMARK INTER:                  -9.331
REMARK INTRA:                  -1.090
REMARK UNBOUND:                -1.083
REMARK  Name = 
REMARK  6 active torsions:
REMARK  status: ('A' for Active; 'I' for Inactive)
REMARK    1  A    between atoms: C_1  and  C_2
REMARK    2  A    between atoms: C_2  and  N_3
REMARK    3  A    between atoms: C_2  and  C_16
REMARK    4  A    between atoms: C_4  and  C_6
REMARK    5  A    between atoms: C_19  and  C_20
REMARK    6  A    between atoms: C_20  and  N_21
REMARK                            x       y       z     vdW  Elec       q    Type
REMARK                         _______ _______ _______ _____ _____    ______ ____
ROOT
ATOM      1  C   UNL     1      48.272   6.253  15.103  0.00  0.00    +0.000 C 
ATOM      2  C   UNL     1      48.135   6.947  13.743  0.00  0.00    +0.000 C 
ENDROOT
BRANCH   2   3
ATOM      3  C   UNL     1      47.104   6.231  12.880  0.00  0.00    +0.000 A 
ATOM      4  C   UNL     1      46.591   4.987  13.269  0.00  0.00    +0.000 A 
ATOM      5  C   UNL     1      45.618   4.343  12.495  0.00  0.00    +0.000 A 
ATOM      6  C   UNL     1      45.145   4.922  11.309  0.00  0.00    +0.000 A 
ATOM      7  C   UNL     1      45.651   6.168  10.921  0.00  0.00    +0.000 A 
ATOM      8  C   UNL     1      46.620   6.811  11.695  0.00  0.00    +0.000 A 
BRANCH   6   9
ATOM      9  C   UNL     1      44.108   4.219  10.462  0.00  0.00    +0.000 C 
BRANCH   9  10
ATOM     10  N   UNL     1      44.411   4.374   9.054  0.00  0.00    +0.000 N 
ATOM     11  C   UNL     1      45.299   3.511   8.434  0.00  0.00    +0.000 A 
ATOM     12  C   UNL     1      45.448   2.186   8.799  0.00  0.00    +0.000 A 
ATOM     13  C   UNL     1      46.332   1.428   8.066  0.00  0.00    +0.000 A 
ATOM     14  N   UNL     1      47.020   1.903   7.018  0.00  0.00    +0.000 NA
ATOM     15  C   UNL     1      46.790   3.190   6.727  0.00  0.00    +0.000 A 
ATOM     16  N   UNL     1      45.973   4.025   7.392  0.00  0.00    +0.000 NA
ATOM     17  H   UNL     1      44.605   5.322   8.743  0.00  0.00    +0.000 HD
ENDBRANCH   9  10
ENDBRANCH   6   9
ENDBRANCH   2   3
BRANCH   2  18
ATOM     18  N   UNL     1      49.399   7.012  13.026  0.00  0.00    +0.000 N 
ATOM     19  C   UNL     1      49.855   8.154  12.417  0.00  0.00    +0.000 C 
ATOM     20  O   UNL     1      49.252   9.223  12.470  0.00  0.00    +0.000 OA
ATOM     21  H   UNL     1      49.758   6.124  12.685  0.00  0.00    +0.000 HD
BRANCH  19  22
ATOM     22  C   UNL     1      51.158   8.055  11.750  0.00  0.00    +0.000 A 
ATOM     23  C   UNL     1      51.260   7.400  10.531  0.00  0.00    +0.000 A 
ATOM     24  S   UNL     1      52.841   7.400   9.889  0.00  0.00    +0.000 S 
ATOM     25  C   UNL     1      53.448   8.232  11.244  0.00  0.00    +0.000 A 
ATOM     26  N   UNL     1      54.771   8.529  11.351  0.00  0.00    +0.000 NA
ATOM     27  C   UNL     1      55.096   9.129  12.450  0.00  0.00    +0.000 A 
ATOM     28  N   UNL     1      54.215   9.472  13.442  0.00  0.00    +0.000 N 
ATOM     29  C   UNL     1      52.866   9.231  13.356  0.00  0.00    +0.000 A 
ATOM     30  O   UNL     1      52.087   9.612  14.227  0.00  0.00    +0.000 OA
ATOM     31  C   UNL     1      52.454   8.531  12.156  0.00  0.00    +0.000 A 
ATOM     32  H   UNL     1      54.531   9.958  14.269  0.00  0.00    +0.000 HD
ENDBRANCH  19  22
ENDBRANCH   2  18
TORSDOF 5
ENDMDL
MODEL 9
REMARK VINA RESULT:    -7.081      3.071      8.429
REMARK INTER + INTRA:         -10.234
REMARK INTER:                  -9.108
REMARK INTRA:                  -1.126
REMARK UNBOUND:                -1.083
REMARK  Name = 
REMARK  6 active torsions:
REMARK  status: ('A' for Active; 'I' for Inactive)
REMARK    1  A    between atoms: C_1  and  C_2
REMARK    2  A    between atoms: C_2  and  N_3
REMARK    3  A    between atoms: C_2  and  C_16
REMARK    4  A    between atoms: C_4  and  C_6
REMARK    5  A    between atoms: C_19  and  C_20
REMARK    6  A    between atoms: C_20  and  N_21
REMARK                            x       y       z     vdW  Elec       q    Type
REMARK                         _______ _______ _______ _____ _____    ______ ____
ROOT
ATOM      1  C   UNL     1      48.836   7.626  11.951  0.00  0.00    +0.000 C 
ATOM      2  C   UNL     1      47.730   7.179  12.915  0.00  0.00    +0.000 C 
ENDROOT
BRANCH   2   3
ATOM      3  C   UNL     1      48.325   6.764  14.254  0.00  0.00    +0.000 A 
ATOM      4  C   UNL     1      47.758   5.718  14.993  0.00  0.00    +0.000 A 
ATOM      5  C   UNL     1      48.324   5.314  16.208  0.00  0.00    +0.000 A 
ATOM      6  C   UNL     1      49.463   5.954  16.718  0.00  0.00    +0.000 A 
ATOM      7  C   UNL     1      50.036   6.995  15.979  0.00  0.00    +0.000 A 
ATOM      8  C   UNL     1      49.472   7.397  14.766  0.00  0.00    +0.000 A 
BRANCH   6   9
ATOM      9  C   UNL     1      50.064   5.530  18.039  0.00  0.00    +0.000 C 
BRANCH   9  10
ATOM     10  N   UNL     1      51.407   5.020  17.846  0.00  0.00    +0.000 N 
ATOM     11  C   UNL     1      51.644   3.656  17.881  0.00  0.00    +0.000 A 
ATOM     12  C   UNL     1      50.724   2.715  17.459  0.00  0.00    +0.000 A 
ATOM     13  C   UNL     1      51.110   1.395  17.503  0.00  0.00    +0.000 A 
ATOM     14  N   UNL     1      52.324   0.993  17.905  0.00  0.00    +0.000 NA
ATOM     15  C   UNL     1      53.154   1.979  18.271  0.00  0.00    +0.000 A 
ATOM     16  N   UNL     1      52.870   3.293  18.294  0.00  0.00    +0.000 NA
ATOM     17  H   UNL     1      52.140   5.493  18.367  0.00  0.00    +0.000 HD
ENDBRANCH   9  10
ENDBRANCH   6   9
ENDBRANCH   2   3
BRANCH   2  18
ATOM     18  N   UNL     1      46.942   6.079  12.379  0.00  0.00    +0.000 N 
ATOM     19  C   UNL     1      45.570   6.085  12.357  0.00  0.00    +0.000 C 
ATOM     20  O   UNL     1      44.902   7.039  12.746  0.00  0.00    +0.000 OA
ATOM     21  H   UNL     1      47.407   5.176  12.352  0.00  0.00    +0.000 HD
BRANCH  19  22
ATOM     22  C   UNL     1      44.928   4.906  11.767  0.00  0.00    +0.000 A 
ATOM     23  C   UNL     1      44.137   4.084  12.557  0.00  0.00    +0.000 A 
ATOM     24  S   UNL     1      43.451   2.775  11.704  0.00  0.00    +0.000 S 
ATOM     25  C   UNL     1      44.231   3.236  10.263  0.00  0.00    +0.000 A 
ATOM     26  N   UNL     1      44.094   2.505   9.125  0.00  0.00    +0.000 NA
ATOM     27  C   UNL     1      44.773   2.951   8.119  0.00  0.00    +0.000 A 
ATOM     28  N   UNL     1      45.563   4.072   8.145  0.00  0.00    +0.000 N 
ATOM     29  C   UNL     1      45.694   4.864   9.259  0.00  0.00    +0.000 A 
ATOM     30  O   UNL     1      46.351   5.902   9.236  0.00  0.00    +0.000 OA
ATOM     31  C   UNL     1      44.977   4.388  10.425  0.00  0.00    +0.000 A 
ATOM     32  H   UNL     1      46.052   4.379   7.317  0.00  0.00    +0.000 HD
ENDBRANCH  19  22
ENDBRANCH   2  18
TORSDOF 5
ENDMDL
