MODEL 1
REMARK VINA RESULT:    -9.272      0.000      0.000
REMARK INTER + INTRA:         -13.763
REMARK INTER:                 -12.525
REMARK INTRA:                  -1.238
REMARK UNBOUND:                -1.238
REMARK  Name = 
REMARK  6 active torsions:
REMARK  status: ('A' for Active; 'I' for Inactive)
REMARK    1  A    between atoms: C_2  and  C_4
REMARK    2  A    between atoms: C_7  and  N_8
REMARK    3  A    between atoms: N_8  and  C_9
REMARK    4  A    between atoms: C_9  and  C_10
REMARK    5  A    between atoms: C_10  and  C_13
REMARK    6  A    between atoms: C_17  and  C_18
REMARK                            x       y       z     vdW  Elec       q    Type
REMARK                         _______ _______ _______ _____ _____    ______ ____
ROOT
ATOM      1  C   UNL     1      43.317   5.462  12.242  0.00  0.00    +0.000 C 
ATOM      2  F   UNL     1      42.883   6.678  11.800  0.00  0.00    +0.000 F 
ATOM      3  F   UNL     1      42.479   5.132  13.272  0.00  0.00    +0.000 F 
ENDROOT
BRANCH   1   4
ATOM      4  C   UNL     1      44.770   5.501  12.670  0.00  0.00    +0.000 A 
ATOM      5  C   UNL     1      45.343   4.429  13.360  0.00  0.00    +0.000 A 
ATOM      6  C   UNL     1      46.691   4.464  13.704  0.00  0.00    +0.000 A 
ATOM      7  C   UNL     1      47.479   5.566  13.351  0.00  0.00    +0.000 A 
ATOM      8  C   UNL     1      46.946   6.656  12.642  0.00  0.00    +0.000 A 
ATOM      9  C   UNL     1      45.578   6.601  12.320  0.00  0.00    +0.000 A 
BRANCH   8  10
ATOM     10  C   UNL     1      47.792   7.802  12.223  0.00  0.00    +0.000 A 
ATOM     11  C   UNL     1      47.281   9.112  12.156  0.00  0.00    +0.000 A 
ATOM     12  C   UNL     1      48.076  10.188  11.740  0.00  0.00    +0.000 A 
ATOM     13  C   UNL     1      49.410   9.983  11.393  0.00  0.00    +0.000 A 
ATOM     14 CL   UNL     1      50.336  11.353  10.896  0.00  0.00    +0.000 Cl
ATOM     15  C   UNL     1      49.945   8.696  11.456  0.00  0.00    +0.000 A 
ATOM     16 CL   UNL     1      51.590   8.356  11.050  0.00  0.00    +0.000 Cl
ATOM     17  C   UNL     1      49.139   7.621  11.857  0.00  0.00    +0.000 A 
ENDBRANCH   8  10
ENDBRANCH   1   4
BRANCH   1  18
ATOM     18  C   UNL     1      43.136   4.413  11.115  0.00  0.00    +0.000 C 
BRANCH  18  19
ATOM     19  N   UNL     1      43.735   4.825   9.836  0.00  0.00    +0.000 N 
ATOM     20  H   UNL     1      43.093   5.296   9.199  0.00  0.00    +0.000 HD
BRANCH  19  24
ATOM     21  C   UNL     1      46.437   2.307   7.806  0.00  0.00    +0.000 A 
ATOM     22  C   UNL     1      46.493   3.687   7.593  0.00  0.00    +0.000 A 
ATOM     23  C   UNL     1      45.616   4.537   8.277  0.00  0.00    +0.000 A 
ATOM     24  C   UNL     1      44.690   4.039   9.204  0.00  0.00    +0.000 A 
ATOM     25  C   UNL     1      44.637   2.650   9.389  0.00  0.00    +0.000 A 
ATOM     26  C   UNL     1      45.496   1.789   8.697  0.00  0.00    +0.000 A 
BRANCH  21  28
ATOM     27  N   UNL     1      48.375   1.910   6.388  0.00  0.00    +0.000 N 
ATOM     28  C   UNL     1      47.323   1.369   7.073  0.00  0.00    +0.000 C 
ATOM     29  O   UNL     1      47.148   0.158   7.105  0.00  0.00    +0.000 OA
ATOM     30  H   UNL     1      49.031   1.251   5.988  0.00  0.00    +0.000 HD
ATOM     31  H   UNL     1      48.698   2.853   6.551  0.00  0.00    +0.000 HD
ENDBRANCH  21  28
ENDBRANCH  19  24
ENDBRANCH  18  19
ENDBRANCH   1  18
TORSDOF 6
ENDMDL
MODEL 2
REMARK VINA RESULT:    -9.224      3.009      4.094
REMARK INTER + INTRA:         -13.698
REMARK INTER:                 -12.475
REMARK INTRA:                  -1.222
REMARK UNBOUND:                -1.238
REMARK  Name = 
REMARK  6 active torsions:
REMARK  status: ('A' for Active; 'I' for Inactive)
REMARK    1  A    between atoms: C_2  and  C_4
REMARK    2  A    between atoms: C_7  and  N_8
REMARK    3  A    between atoms: N_8  and  C_9
REMARK    4  A    between atoms: C_9  and  C_10
REMARK    5  A    between atoms: C_10  and  C_13
REMARK    6  A    between atoms: C_17  and  C_18
REMARK                            x       y       z     vdW  Elec       q    Type
REMARK                         _______ _______ _______ _____ _____    ______ ____
ROOT
ATOM      1  C   UNL     1      43.507   5.516  12.051  0.00  0.00    +0.000 C 
ATOM      2  F   UNL     1      42.878   6.443  11.271  0.00  0.00    +0.000 F 
ATOM      3  F   UNL     1      42.811   5.502  13.228  0.00  0.00    +0.000 F 
ENDROOT
BRANCH   1   4
ATOM      4  C   UNL     1      44.973   5.847  12.251  0.00  0.00    +0.000 A 
ATOM      5  C   UNL     1      45.683   6.565  11.284  0.00  0.00    +0.000 A 
ATOM      6  C   UNL     1      47.016   6.899  11.507  0.00  0.00    +0.000 A 
ATOM      7  C   UNL     1      47.644   6.529  12.701  0.00  0.00    +0.000 A 
ATOM      8  C   UNL     1      46.961   5.822  13.705  0.00  0.00    +0.000 A 
ATOM      9  C   UNL     1      45.619   5.484  13.449  0.00  0.00    +0.000 A 
BRANCH   8  10
ATOM     10  C   UNL     1      47.611   5.472  14.993  0.00  0.00    +0.000 A 
ATOM     11  C   UNL     1      48.660   6.245  15.527  0.00  0.00    +0.000 A 
ATOM     12  C   UNL     1      49.285   5.899  16.732  0.00  0.00    +0.000 A 
ATOM     13  C   UNL     1      48.867   4.777  17.443  0.00  0.00    +0.000 A 
ATOM     14 CL   UNL     1      49.676   4.411  18.924  0.00  0.00    +0.000 Cl
ATOM     15  C   UNL     1      47.826   3.995  16.942  0.00  0.00    +0.000 A 
ATOM     16 CL   UNL     1      47.242   2.591  17.764  0.00  0.00    +0.000 Cl
ATOM     17  C   UNL     1      47.215   4.337  15.727  0.00  0.00    +0.000 A 
ENDBRANCH   8  10
ENDBRANCH   1   4
BRANCH   1  18
ATOM     18  C   UNL     1      43.376   4.119  11.392  0.00  0.00    +0.000 C 
BRANCH  18  19
ATOM     19  N   UNL     1      43.413   4.163   9.923  0.00  0.00    +0.000 N 
ATOM     20  H   UNL     1      42.510   4.013   9.471  0.00  0.00    +0.000 HD
BRANCH  19  24
ATOM     21  C   UNL     1      46.528   2.467   7.647  0.00  0.00    +0.000 A 
ATOM     22  C   UNL     1      46.319   3.847   7.601  0.00  0.00    +0.000 A 
ATOM     23  C   UNL     1      45.301   4.427   8.368  0.00  0.00    +0.000 A 
ATOM     24  C   UNL     1      44.495   3.654   9.215  0.00  0.00    +0.000 A 
ATOM     25  C   UNL     1      44.710   2.269   9.233  0.00  0.00    +0.000 A 
ATOM     26  C   UNL     1      45.711   1.676   8.456  0.00  0.00    +0.000 A 
BRANCH  21  28
ATOM     27  N   UNL     1      48.603   2.589   6.381  0.00  0.00    +0.000 N 
ATOM     28  C   UNL     1      47.571   1.809   6.821  0.00  0.00    +0.000 C 
ATOM     29  O   UNL     1      47.534   0.611   6.569  0.00  0.00    +0.000 OA
ATOM     30  H   UNL     1      49.360   2.104   5.915  0.00  0.00    +0.000 HD
ATOM     31  H   UNL     1      48.802   3.496   6.777  0.00  0.00    +0.000 HD
ENDBRANCH  21  28
ENDBRANCH  19  24
ENDBRANCH  18  19
ENDBRANCH   1  18
TORSDOF 6
ENDMDL
MODEL 3
REMARK VINA RESULT:    -8.958      2.833      4.109
REMARK INTER + INTRA:         -13.338
REMARK INTER:                 -12.077
REMARK INTRA:                  -1.262
REMARK UNBOUND:                -1.238
REMARK  Name = 
REMARK  6 active torsions:
REMARK  status: ('A' for Active; 'I' for Inactive)
REMARK    1  A    between atoms: C_2  and  C_4
REMARK    2  A    between atoms: C_7  and  N_8
REMARK    3  A    between atoms: N_8  and  C_9
REMARK    4  A    between atoms: C_9  and  C_10
REMARK    5  A    between atoms: C_10  and  C_13
REMARK    6  A    between atoms: C_17  and  C_18
REMARK                            x       y       z     vdW  Elec       q    Type
REMARK                         _______ _______ _______ _____ _____    ______ ____
ROOT
ATOM      1  C   UNL     1      43.645   5.331  12.057  0.00  0.00    +0.000 C 
ATOM      2  F   UNL     1      43.114   6.211  11.159  0.00  0.00    +0.000 F 
ATOM      3  F   UNL     1      42.855   5.430  13.169  0.00  0.00    +0.000 F 
ENDROOT
BRANCH   1   4
ATOM      4  C   UNL     1      45.100   5.633  12.353  0.00  0.00    +0.000 A 
ATOM      5  C   UNL     1      45.881   6.351  11.443  0.00  0.00    +0.000 A 
ATOM      6  C   UNL     1      47.203   6.659  11.754  0.00  0.00    +0.000 A 
ATOM      7  C   UNL     1      47.749   6.261  12.979  0.00  0.00    +0.000 A 
ATOM      8  C   UNL     1      46.992   5.554  13.928  0.00  0.00    +0.000 A 
ATOM      9  C   UNL     1      45.664   5.243  13.583  0.00  0.00    +0.000 A 
BRANCH   8  10
ATOM     10  C   UNL     1      47.554   5.174  15.249  0.00  0.00    +0.000 A 
ATOM     11  C   UNL     1      47.152   4.001  15.915  0.00  0.00    +0.000 A 
ATOM     12  C   UNL     1      47.670   3.658  17.171  0.00  0.00    +0.000 A 
ATOM     13  C   UNL     1      48.616   4.474  17.788  0.00  0.00    +0.000 A 
ATOM     14 CL   UNL     1      49.217   3.989  19.332  0.00  0.00    +0.000 Cl
ATOM     15  C   UNL     1      49.038   5.640  17.148  0.00  0.00    +0.000 A 
ATOM     16 CL   UNL     1      50.212   6.703  17.840  0.00  0.00    +0.000 Cl
ATOM     17  C   UNL     1      48.504   5.986  15.899  0.00  0.00    +0.000 A 
ENDBRANCH   8  10
ENDBRANCH   1   4
BRANCH   1  18
ATOM     18  C   UNL     1      43.517   3.891  11.497  0.00  0.00    +0.000 C 
BRANCH  18  19
ATOM     19  N   UNL     1      43.435   3.841  10.030  0.00  0.00    +0.000 N 
ATOM     20  H   UNL     1      42.547   3.497   9.666  0.00  0.00    +0.000 HD
BRANCH  19  24
ATOM     21  C   UNL     1      46.629   2.628   7.562  0.00  0.00    +0.000 A 
ATOM     22  C   UNL     1      46.260   3.975   7.592  0.00  0.00    +0.000 A 
ATOM     23  C   UNL     1      45.214   4.395   8.423  0.00  0.00    +0.000 A 
ATOM     24  C   UNL     1      44.539   3.496   9.259  0.00  0.00    +0.000 A 
ATOM     25  C   UNL     1      44.913   2.146   9.201  0.00  0.00    +0.000 A 
ATOM     26  C   UNL     1      45.943   1.711   8.359  0.00  0.00    +0.000 A 
BRANCH  21  28
ATOM     27  N   UNL     1      48.070   2.943   5.626  0.00  0.00    +0.000 N 
ATOM     28  C   UNL     1      47.705   2.135   6.667  0.00  0.00    +0.000 C 
ATOM     29  O   UNL     1      48.272   1.068   6.866  0.00  0.00    +0.000 OA
ATOM     30  H   UNL     1      48.878   2.644   5.094  0.00  0.00    +0.000 HD
ATOM     31  H   UNL     1      47.817   3.920   5.586  0.00  0.00    +0.000 HD
ENDBRANCH  21  28
ENDBRANCH  19  24
ENDBRANCH  18  19
ENDBRANCH   1  18
TORSDOF 6
ENDMDL
MODEL 4
REMARK VINA RESULT:    -8.419      1.493      2.264
REMARK INTER + INTRA:         -12.610
REMARK INTER:                 -11.622
REMARK INTRA:                  -0.989
REMARK UNBOUND:                -1.238
REMARK  Name = 
REMARK  6 active torsions:
REMARK  status: ('A' for Active; 'I' for Inactive)
REMARK    1  A    between atoms: C_2  and  C_4
REMARK    2  A    between atoms: C_7  and  N_8
REMARK    3  A    between atoms: N_8  and  C_9
REMARK    4  A    between atoms: C_9  and  C_10
REMARK    5  A    between atoms: C_10  and  C_13
REMARK    6  A    between atoms: C_17  and  C_18
REMARK                            x       y       z     vdW  Elec       q    Type
REMARK                         _______ _______ _______ _____ _____    ______ ____
ROOT
ATOM      1  C   UNL     1      44.618   4.615  12.364  0.00  0.00    +0.000 C 
ATOM      2  F   UNL     1      44.196   4.430  13.649  0.00  0.00    +0.000 F 
ATOM      3  F   UNL     1      45.588   3.672  12.163  0.00  0.00    +0.000 F 
ENDROOT
BRANCH   1   4
ATOM      4  C   UNL     1      45.126   6.024  12.134  0.00  0.00    +0.000 A 
ATOM      5  C   UNL     1      44.241   7.065  11.838  0.00  0.00    +0.000 A 
ATOM      6  C   UNL     1      44.721   8.361  11.675  0.00  0.00    +0.000 A 
ATOM      7  C   UNL     1      46.087   8.628  11.818  0.00  0.00    +0.000 A 
ATOM      8  C   UNL     1      47.008   7.614  12.133  0.00  0.00    +0.000 A 
ATOM      9  C   UNL     1      46.498   6.310  12.278  0.00  0.00    +0.000 A 
BRANCH   8  10
ATOM     10  C   UNL     1      48.450   7.904  12.335  0.00  0.00    +0.000 A 
ATOM     11  C   UNL     1      48.926   8.502  13.517  0.00  0.00    +0.000 A 
ATOM     12  C   UNL     1      50.285   8.793  13.695  0.00  0.00    +0.000 A 
ATOM     13  C   UNL     1      51.207   8.480  12.697  0.00  0.00    +0.000 A 
ATOM     14 CL   UNL     1      52.866   8.860  12.984  0.00  0.00    +0.000 Cl
ATOM     15  C   UNL     1      50.764   7.881  11.518  0.00  0.00    +0.000 A 
ATOM     16 CL   UNL     1      51.841   7.455  10.235  0.00  0.00    +0.000 Cl
ATOM     17  C   UNL     1      49.401   7.607  11.339  0.00  0.00    +0.000 A 
ENDBRANCH   8  10
ENDBRANCH   1   4
BRANCH   1  18
ATOM     18  C   UNL     1      43.446   4.320  11.394  0.00  0.00    +0.000 C 
BRANCH  18  19
ATOM     19  N   UNL     1      43.731   4.703  10.003  0.00  0.00    +0.000 N 
ATOM     20  H   UNL     1      42.945   5.125   9.509  0.00  0.00    +0.000 HD
BRANCH  19  24
ATOM     21  C   UNL     1      46.444   2.472   7.673  0.00  0.00    +0.000 A 
ATOM     22  C   UNL     1      45.555   1.804   8.518  0.00  0.00    +0.000 A 
ATOM     23  C   UNL     1      44.634   2.531   9.282  0.00  0.00    +0.000 A 
ATOM     24  C   UNL     1      44.558   3.928   9.199  0.00  0.00    +0.000 A 
ATOM     25  C   UNL     1      45.472   4.581   8.360  0.00  0.00    +0.000 A 
ATOM     26  C   UNL     1      46.410   3.866   7.606  0.00  0.00    +0.000 A 
BRANCH  21  28
ATOM     27  N   UNL     1      48.551   2.451   6.455  0.00  0.00    +0.000 N 
ATOM     28  C   UNL     1      47.461   1.742   6.877  0.00  0.00    +0.000 C 
ATOM     29  O   UNL     1      47.355   0.547   6.633  0.00  0.00    +0.000 OA
ATOM     30  H   UNL     1      49.286   1.915   6.011  0.00  0.00    +0.000 HD
ATOM     31  H   UNL     1      48.798   3.348   6.850  0.00  0.00    +0.000 HD
ENDBRANCH  21  28
ENDBRANCH  19  24
ENDBRANCH  18  19
ENDBRANCH   1  18
TORSDOF 6
ENDMDL
MODEL 5
REMARK VINA RESULT:    -8.369      1.597      2.518
REMARK INTER + INTRA:         -12.543
REMARK INTER:                 -11.606
REMARK INTRA:                  -0.937
REMARK UNBOUND:                -1.238
REMARK  Name = 
REMARK  6 active torsions:
REMARK  status: ('A' for Active; 'I' for Inactive)
REMARK    1  A    between atoms: C_2  and  C_4
REMARK    2  A    between atoms: C_7  and  N_8
REMARK    3  A    between atoms: N_8  and  C_9
REMARK    4  A    between atoms: C_9  and  C_10
REMARK    5  A    between atoms: C_10  and  C_13
REMARK    6  A    between atoms: C_17  and  C_18
REMARK                            x       y       z     vdW  Elec       q    Type
REMARK                         _______ _______ _______ _____ _____    ______ ____
ROOT
ATOM      1  C   UNL     1      44.611   4.588  12.371  0.00  0.00    +0.000 C 
ATOM      2  F   UNL     1      44.163   4.413  13.648  0.00  0.00    +0.000 F 
ATOM      3  F   UNL     1      45.554   3.615  12.183  0.00  0.00    +0.000 F 
ENDROOT
BRANCH   1   4
ATOM      4  C   UNL     1      45.167   5.981  12.153  0.00  0.00    +0.000 A 
ATOM      5  C   UNL     1      44.321   7.048  11.834  0.00  0.00    +0.000 A 
ATOM      6  C   UNL     1      44.844   8.328  11.683  0.00  0.00    +0.000 A 
ATOM      7  C   UNL     1      46.214   8.554  11.859  0.00  0.00    +0.000 A 
ATOM      8  C   UNL     1      47.095   7.513  12.198  0.00  0.00    +0.000 A 
ATOM      9  C   UNL     1      46.542   6.226  12.330  0.00  0.00    +0.000 A 
BRANCH   8  10
ATOM     10  C   UNL     1      48.540   7.759  12.435  0.00  0.00    +0.000 A 
ATOM     11  C   UNL     1      49.430   8.018  11.375  0.00  0.00    +0.000 A 
ATOM     12  C   UNL     1      50.796   8.229  11.600  0.00  0.00    +0.000 A 
ATOM     13  C   UNL     1      51.307   8.202  12.897  0.00  0.00    +0.000 A 
ATOM     14 CL   UNL     1      52.998   8.477  13.105  0.00  0.00    +0.000 Cl
ATOM     15  C   UNL     1      50.447   7.954  13.967  0.00  0.00    +0.000 A 
ATOM     16 CL   UNL     1      50.996   7.910  15.606  0.00  0.00    +0.000 Cl
ATOM     17  C   UNL     1      49.083   7.727  13.733  0.00  0.00    +0.000 A 
ENDBRANCH   8  10
ENDBRANCH   1   4
BRANCH   1  18
ATOM     18  C   UNL     1      43.446   4.333  11.381  0.00  0.00    +0.000 C 
BRANCH  18  19
ATOM     19  N   UNL     1      43.758   4.728  10.000  0.00  0.00    +0.000 N 
ATOM     20  H   UNL     1      42.987   5.172   9.501  0.00  0.00    +0.000 HD
BRANCH  19  24
ATOM     21  C   UNL     1      46.462   2.481   7.676  0.00  0.00    +0.000 A 
ATOM     22  C   UNL     1      45.560   1.818   8.510  0.00  0.00    +0.000 A 
ATOM     23  C   UNL     1      44.642   2.551   9.272  0.00  0.00    +0.000 A 
ATOM     24  C   UNL     1      44.582   3.949   9.197  0.00  0.00    +0.000 A 
ATOM     25  C   UNL     1      45.509   4.596   8.368  0.00  0.00    +0.000 A 
ATOM     26  C   UNL     1      46.444   3.876   7.617  0.00  0.00    +0.000 A 
BRANCH  21  28
ATOM     27  N   UNL     1      48.576   2.444   6.469  0.00  0.00    +0.000 N 
ATOM     28  C   UNL     1      47.476   1.744   6.882  0.00  0.00    +0.000 C 
ATOM     29  O   UNL     1      47.360   0.551   6.633  0.00  0.00    +0.000 OA
ATOM     30  H   UNL     1      49.308   1.903   6.027  0.00  0.00    +0.000 HD
ATOM     31  H   UNL     1      48.829   3.336   6.869  0.00  0.00    +0.000 HD
ENDBRANCH  21  28
ENDBRANCH  19  24
ENDBRANCH  18  19
ENDBRANCH   1  18
TORSDOF 6
ENDMDL
MODEL 6
REMARK VINA RESULT:    -7.988      1.949      2.530
REMARK INTER + INTRA:         -12.028
REMARK INTER:                 -11.096
REMARK INTRA:                  -0.932
REMARK UNBOUND:                -1.238
REMARK  Name = 
REMARK  6 active torsions:
REMARK  status: ('A' for Active; 'I' for Inactive)
REMARK    1  A    between atoms: C_2  and  C_4
REMARK    2  A    between atoms: C_7  and  N_8
REMARK    3  A    between atoms: N_8  and  C_9
REMARK    4  A    between atoms: C_9  and  C_10
REMARK    5  A    between atoms: C_10  and  C_13
REMARK    6  A    between atoms: C_17  and  C_18
REMARK                            x       y       z     vdW  Elec       q    Type
REMARK                         _______ _______ _______ _____ _____    ______ ____
ROOT
ATOM      1  C   UNL     1      45.002   6.223  11.599  0.00  0.00    +0.000 C 
ATOM      2  F   UNL     1      45.694   6.485  10.451  0.00  0.00    +0.000 F 
ATOM      3  F   UNL     1      44.248   7.342  11.828  0.00  0.00    +0.000 F 
ENDROOT
BRANCH   1   4
ATOM      4  C   UNL     1      45.927   5.904  12.756  0.00  0.00    +0.000 A 
ATOM      5  C   UNL     1      45.755   4.739  13.509  0.00  0.00    +0.000 A 
ATOM      6  C   UNL     1      46.643   4.439  14.538  0.00  0.00    +0.000 A 
ATOM      7  C   UNL     1      47.715   5.295  14.815  0.00  0.00    +0.000 A 
ATOM      8  C   UNL     1      47.933   6.467  14.069  0.00  0.00    +0.000 A 
ATOM      9  C   UNL     1      47.013   6.753  13.045  0.00  0.00    +0.000 A 
BRANCH   8  10
ATOM     10  C   UNL     1      49.098   7.350  14.329  0.00  0.00    +0.000 A 
ATOM     11  C   UNL     1      50.055   7.042  15.314  0.00  0.00    +0.000 A 
ATOM     12  C   UNL     1      51.142   7.889  15.571  0.00  0.00    +0.000 A 
ATOM     13  C   UNL     1      51.307   9.061  14.835  0.00  0.00    +0.000 A 
ATOM     14 CL   UNL     1      52.671  10.056  15.197  0.00  0.00    +0.000 Cl
ATOM     15  C   UNL     1      50.378   9.388  13.848  0.00  0.00    +0.000 A 
ATOM     16 CL   UNL     1      50.513  10.819  12.886  0.00  0.00    +0.000 Cl
ATOM     17  C   UNL     1      49.284   8.545  13.607  0.00  0.00    +0.000 A 
ENDBRANCH   8  10
ENDBRANCH   1   4
BRANCH   1  18
ATOM     18  C   UNL     1      44.042   5.031  11.356  0.00  0.00    +0.000 C 
BRANCH  18  19
ATOM     19  N   UNL     1      43.771   4.783   9.932  0.00  0.00    +0.000 N 
ATOM     20  H   UNL     1      42.782   4.780   9.683  0.00  0.00    +0.000 HD
BRANCH  19  24
ATOM     21  C   UNL     1      46.332   2.218   7.781  0.00  0.00    +0.000 A 
ATOM     22  C   UNL     1      45.492   1.684   8.761  0.00  0.00    +0.000 A 
ATOM     23  C   UNL     1      44.621   2.521   9.469  0.00  0.00    +0.000 A 
ATOM     24  C   UNL     1      44.545   3.893   9.197  0.00  0.00    +0.000 A 
ATOM     25  C   UNL     1      45.410   4.413   8.223  0.00  0.00    +0.000 A 
ATOM     26  C   UNL     1      46.298   3.589   7.523  0.00  0.00    +0.000 A 
BRANCH  21  28
ATOM     27  N   UNL     1      48.402   1.991   6.522  0.00  0.00    +0.000 N 
ATOM     28  C   UNL     1      47.296   1.372   7.036  0.00  0.00    +0.000 C 
ATOM     29  O   UNL     1      47.136   0.165   6.913  0.00  0.00    +0.000 OA
ATOM     30  H   UNL     1      49.102   1.384   6.115  0.00  0.00    +0.000 HD
ATOM     31  H   UNL     1      48.695   2.910   6.822  0.00  0.00    +0.000 HD
ENDBRANCH  21  28
ENDBRANCH  19  24
ENDBRANCH  18  19
ENDBRANCH   1  18
TORSDOF 6
ENDMDL
MODEL 7
REMARK VINA RESULT:    -7.774      4.310      7.160
REMARK INTER + INTRA:         -11.740
REMARK INTER:                 -10.645
REMARK INTRA:                  -1.094
REMARK UNBOUND:                -1.238
REMARK  Name = 
REMARK  6 active torsions:
REMARK  status: ('A' for Active; 'I' for Inactive)
REMARK    1  A    between atoms: C_2  and  C_4
REMARK    2  A    between atoms: C_7  and  N_8
REMARK    3  A    between atoms: N_8  and  C_9
REMARK    4  A    between atoms: C_9  and  C_10
REMARK    5  A    between atoms: C_10  and  C_13
REMARK    6  A    between atoms: C_17  and  C_18
REMARK                            x       y       z     vdW  Elec       q    Type
REMARK                         _______ _______ _______ _____ _____    ______ ____
ROOT
ATOM      1  C   UNL     1      45.256   7.455  12.052  0.00  0.00    +0.000 C 
ATOM      2  F   UNL     1      44.846   7.671  13.336  0.00  0.00    +0.000 F 
ATOM      3  F   UNL     1      44.813   8.539  11.344  0.00  0.00    +0.000 F 
ENDROOT
BRANCH   1   4
ATOM      4  C   UNL     1      44.725   6.148  11.501  0.00  0.00    +0.000 A 
ATOM      5  C   UNL     1      43.515   5.618  11.957  0.00  0.00    +0.000 A 
ATOM      6  C   UNL     1      43.020   4.439  11.406  0.00  0.00    +0.000 A 
ATOM      7  C   UNL     1      43.724   3.789  10.386  0.00  0.00    +0.000 A 
ATOM      8  C   UNL     1      44.935   4.299   9.887  0.00  0.00    +0.000 A 
ATOM      9  C   UNL     1      45.420   5.483  10.472  0.00  0.00    +0.000 A 
BRANCH   8  10
ATOM     10  C   UNL     1      45.659   3.638   8.771  0.00  0.00    +0.000 A 
ATOM     11  C   UNL     1      46.208   4.375   7.705  0.00  0.00    +0.000 A 
ATOM     12  C   UNL     1      46.872   3.746   6.644  0.00  0.00    +0.000 A 
ATOM     13  C   UNL     1      47.015   2.360   6.629  0.00  0.00    +0.000 A 
ATOM     14 CL   UNL     1      47.849   1.649   5.295  0.00  0.00    +0.000 Cl
ATOM     15  C   UNL     1      46.486   1.604   7.675  0.00  0.00    +0.000 A 
ATOM     16 CL   UNL     1      46.626  -0.118   7.736  0.00  0.00    +0.000 Cl
ATOM     17  C   UNL     1      45.809   2.238   8.726  0.00  0.00    +0.000 A 
ENDBRANCH   8  10
ENDBRANCH   1   4
BRANCH   1  18
ATOM     18  C   UNL     1      46.806   7.447  12.006  0.00  0.00    +0.000 C 
BRANCH  18  19
ATOM     19  N   UNL     1      47.428   7.521  13.336  0.00  0.00    +0.000 N 
ATOM     20  H   UNL     1      48.189   8.197  13.411  0.00  0.00    +0.000 HD
BRANCH  19  24
ATOM     21  C   UNL     1      47.827   4.200  15.899  0.00  0.00    +0.000 A 
ATOM     22  C   UNL     1      47.112   4.064  14.707  0.00  0.00    +0.000 A 
ATOM     23  C   UNL     1      46.989   5.153  13.837  0.00  0.00    +0.000 A 
ATOM     24  C   UNL     1      47.597   6.384  14.116  0.00  0.00    +0.000 A 
ATOM     25  C   UNL     1      48.295   6.505  15.326  0.00  0.00    +0.000 A 
ATOM     26  C   UNL     1      48.408   5.429  16.214  0.00  0.00    +0.000 A 
BRANCH  21  28
ATOM     27  N   UNL     1      46.870   2.831  17.669  0.00  0.00    +0.000 N 
ATOM     28  C   UNL     1      47.949   3.082  16.868  0.00  0.00    +0.000 C 
ATOM     29  O   UNL     1      48.954   2.386  16.928  0.00  0.00    +0.000 OA
ATOM     30  H   UNL     1      46.926   1.999  18.243  0.00  0.00    +0.000 HD
ATOM     31  H   UNL     1      45.952   3.202  17.471  0.00  0.00    +0.000 HD
ENDBRANCH  21  28
ENDBRANCH  19  24
ENDBRANCH  18  19
ENDBRANCH   1  18
TORSDOF 6
ENDMDL
MODEL 8
REMARK VINA RESULT:    -7.675      2.379      3.432
REMARK INTER + INTRA:         -11.606
REMARK INTER:                 -10.679
REMARK INTRA:                  -0.927
REMARK UNBOUND:                -1.238
REMARK  Name = 
REMARK  6 active torsions:
REMARK  status: ('A' for Active; 'I' for Inactive)
REMARK    1  A    between atoms: C_2  and  C_4
REMARK    2  A    between atoms: C_7  and  N_8
REMARK    3  A    between atoms: N_8  and  C_9
REMARK    4  A    between atoms: C_9  and  C_10
REMARK    5  A    between atoms: C_10  and  C_13
REMARK    6  A    between atoms: C_17  and  C_18
REMARK                            x       y       z     vdW  Elec       q    Type
REMARK                         _______ _______ _______ _____ _____    ______ ____
ROOT
ATOM      1  C   UNL     1      44.313   6.000  12.204  0.00  0.00    +0.000 C 
ATOM      2  F   UNL     1      43.482   6.452  11.220  0.00  0.00    +0.000 F 
ATOM      3  F   UNL     1      43.505   5.781  13.286  0.00  0.00    +0.000 F 
ENDROOT
BRANCH   1   4
ATOM      4  C   UNL     1      45.423   6.987  12.503  0.00  0.00    +0.000 A 
ATOM      5  C   UNL     1      45.381   8.289  11.996  0.00  0.00    +0.000 A 
ATOM      6  C   UNL     1      46.387   9.194  12.319  0.00  0.00    +0.000 A 
ATOM      7  C   UNL     1      47.436   8.809  13.161  0.00  0.00    +0.000 A 
ATOM      8  C   UNL     1      47.507   7.516  13.706  0.00  0.00    +0.000 A 
ATOM      9  C   UNL     1      46.485   6.616  13.351  0.00  0.00    +0.000 A 
BRANCH   8  10
ATOM     10  C   UNL     1      48.592   7.121  14.639  0.00  0.00    +0.000 A 
ATOM     11  C   UNL     1      48.361   6.240  15.713  0.00  0.00    +0.000 A 
ATOM     12  C   UNL     1      49.383   5.887  16.604  0.00  0.00    +0.000 A 
ATOM     13  C   UNL     1      50.670   6.395  16.434  0.00  0.00    +0.000 A 
ATOM     14 CL   UNL     1      51.884   5.913  17.563  0.00  0.00    +0.000 Cl
ATOM     15  C   UNL     1      50.929   7.264  15.374  0.00  0.00    +0.000 A 
ATOM     16 CL   UNL     1      52.497   7.934  15.089  0.00  0.00    +0.000 Cl
ATOM     17  C   UNL     1      49.899   7.627  14.497  0.00  0.00    +0.000 A 
ENDBRANCH   8  10
ENDBRANCH   1   4
BRANCH   1  18
ATOM     18  C   UNL     1      44.926   4.643  11.773  0.00  0.00    +0.000 C 
BRANCH  18  19
ATOM     19  N   UNL     1      44.231   4.027  10.632  0.00  0.00    +0.000 N 
ATOM     20  H   UNL     1      43.406   3.483  10.882  0.00  0.00    +0.000 HD
BRANCH  19  24
ATOM     21  C   UNL     1      46.582   2.639   7.421  0.00  0.00    +0.000 A 
ATOM     22  C   UNL     1      46.009   1.717   8.300  0.00  0.00    +0.000 A 
ATOM     23  C   UNL     1      45.209   2.163   9.359  0.00  0.00    +0.000 A 
ATOM     24  C   UNL     1      44.938   3.525   9.546  0.00  0.00    +0.000 A 
ATOM     25  C   UNL     1      45.537   4.436   8.664  0.00  0.00    +0.000 A 
ATOM     26  C   UNL     1      46.355   4.003   7.614  0.00  0.00    +0.000 A 
BRANCH  21  28
ATOM     27  N   UNL     1      47.710   3.121   5.319  0.00  0.00    +0.000 N 
ATOM     28  C   UNL     1      47.467   2.211   6.310  0.00  0.00    +0.000 C 
ATOM     29  O   UNL     1      47.992   1.105   6.292  0.00  0.00    +0.000 OA
ATOM     30  H   UNL     1      48.401   2.854   4.630  0.00  0.00    +0.000 HD
ATOM     31  H   UNL     1      47.515   4.106   5.430  0.00  0.00    +0.000 HD
ENDBRANCH  21  28
ENDBRANCH  19  24
ENDBRANCH  18  19
ENDBRANCH   1  18
TORSDOF 6
ENDMDL
MODEL 9
REMARK VINA RESULT:    -7.312      4.971      7.853
REMARK INTER + INTRA:         -11.115
REMARK INTER:                  -9.802
REMARK INTRA:                  -1.313
REMARK UNBOUND:                -1.238
REMARK  Name = 
REMARK  6 active torsions:
REMARK  status: ('A' for Active; 'I' for Inactive)
REMARK    1  A    between atoms: C_2  and  C_4
REMARK    2  A    between atoms: C_7  and  N_8
REMARK    3  A    between atoms: N_8  and  C_9
REMARK    4  A    between atoms: C_9  and  C_10
REMARK    5  A    between atoms: C_10  and  C_13
REMARK    6  A    between atoms: C_17  and  C_18
REMARK                            x       y       z     vdW  Elec       q    Type
REMARK                         _______ _______ _______ _____ _____    ______ ____
ROOT
ATOM      1  C   UNL     1      49.088   8.489  12.551  0.00  0.00    +0.000 C 
ATOM      2  F   UNL     1      49.534   9.586  11.872  0.00  0.00    +0.000 F 
ATOM      3  F   UNL     1      49.891   7.460  12.140  0.00  0.00    +0.000 F 
ENDROOT
BRANCH   1   4
ATOM      4  C   UNL     1      47.621   8.218  12.285  0.00  0.00    +0.000 A 
ATOM      5  C   UNL     1      46.658   9.206  12.513  0.00  0.00    +0.000 A 
ATOM      6  C   UNL     1      45.321   8.954  12.219  0.00  0.00    +0.000 A 
ATOM      7  C   UNL     1      44.938   7.718  11.685  0.00  0.00    +0.000 A 
ATOM      8  C   UNL     1      45.877   6.705  11.425  0.00  0.00    +0.000 A 
ATOM      9  C   UNL     1      47.219   6.981  11.745  0.00  0.00    +0.000 A 
BRANCH   8  10
ATOM     10  C   UNL     1      45.481   5.412  10.813  0.00  0.00    +0.000 A 
ATOM     11  C   UNL     1      44.818   4.415  11.553  0.00  0.00    +0.000 A 
ATOM     12  C   UNL     1      44.464   3.188  10.977  0.00  0.00    +0.000 A 
ATOM     13  C   UNL     1      44.752   2.931   9.638  0.00  0.00    +0.000 A 
ATOM     14 CL   UNL     1      44.282   1.402   8.990  0.00  0.00    +0.000 Cl
ATOM     15  C   UNL     1      45.402   3.904   8.878  0.00  0.00    +0.000 A 
ATOM     16 CL   UNL     1      45.790   3.669   7.210  0.00  0.00    +0.000 Cl
ATOM     17  C   UNL     1      45.768   5.123   9.465  0.00  0.00    +0.000 A 
ENDBRANCH   8  10
ENDBRANCH   1   4
BRANCH   1  18
ATOM     18  C   UNL     1      49.310   8.702  14.070  0.00  0.00    +0.000 C 
BRANCH  18  19
ATOM     19  N   UNL     1      50.113   7.640  14.695  0.00  0.00    +0.000 N 
ATOM     20  H   UNL     1      50.861   7.272  14.107  0.00  0.00    +0.000 HD
BRANCH  19  24
ATOM     21  C   UNL     1      48.339   4.614  17.031  0.00  0.00    +0.000 A 
ATOM     22  C   UNL     1      49.577   5.138  17.413  0.00  0.00    +0.000 A 
ATOM     23  C   UNL     1      50.168   6.158  16.658  0.00  0.00    +0.000 A 
ATOM     24  C   UNL     1      49.530   6.697  15.532  0.00  0.00    +0.000 A 
ATOM     25  C   UNL     1      48.297   6.144  15.155  0.00  0.00    +0.000 A 
ATOM     26  C   UNL     1      47.706   5.111  15.891  0.00  0.00    +0.000 A 
BRANCH  21  28
ATOM     27  N   UNL     1      48.284   3.125  18.956  0.00  0.00    +0.000 N 
ATOM     28  C   UNL     1      47.698   3.506  17.781  0.00  0.00    +0.000 C 
ATOM     29  O   UNL     1      46.667   2.974  17.391  0.00  0.00    +0.000 OA
ATOM     30  H   UNL     1      47.774   2.447  19.509  0.00  0.00    +0.000 HD
ATOM     31  H   UNL     1      48.965   3.700  19.431  0.00  0.00    +0.000 HD
ENDBRANCH  21  28
ENDBRANCH  19  24
ENDBRANCH  18  19
ENDBRANCH   1  18
TORSDOF 6
ENDMDL
