MODEL 1
REMARK VINA RESULT:    -9.027      0.000      0.000
REMARK INTER + INTRA:         -12.381
REMARK INTER:                 -11.665
REMARK INTRA:                  -0.716
REMARK UNBOUND:                -0.716
REMARK  Name = 
REMARK  5 active torsions:
REMARK  status: ('A' for Active; 'I' for Inactive)
REMARK    1  A    between atoms: C_2  and  C_4
REMARK    2  A    between atoms: N_8  and  C_9
REMARK    3  A    between atoms: C_9  and  C_10
REMARK    4  A    between atoms: C_10  and  C_11
REMARK    5  A    between atoms: C_15  and  C_16
REMARK                            x       y       z     vdW  Elec       q    Type
REMARK                         _______ _______ _______ _____ _____    ______ ____
ROOT
ATOM      1  C   UNL     1      43.031   4.480  10.886  0.00  0.00    +0.000 C 
ENDROOT
BRANCH   1   6
ATOM      2  C   UNL     1      46.421   2.340   7.723  0.00  0.00    +0.000 A 
ATOM      3  C   UNL     1      45.666   1.813   8.763  0.00  0.00    +0.000 A 
ATOM      4  C   UNL     1      44.828   2.658   9.486  0.00  0.00    +0.000 A 
ATOM      5  C   UNL     1      44.754   4.013   9.166  0.00  0.00    +0.000 A 
ATOM      6  N   UNL     1      43.932   4.890   9.832  0.00  0.00    +0.000 N 
ATOM      7  N   UNL     1      45.501   4.538   8.175  0.00  0.00    +0.000 NA
ATOM      8  C   UNL     1      46.324   3.703   7.484  0.00  0.00    +0.000 A 
ATOM      9  H   UNL     1      43.965   5.841   9.485  0.00  0.00    +0.000 HD
BRANCH   2  11
ATOM     10  N   UNL     1      48.443   2.096   6.409  0.00  0.00    +0.000 N 
ATOM     11  C   UNL     1      47.312   1.503   6.897  0.00  0.00    +0.000 C 
ATOM     12  O   UNL     1      47.069   0.323   6.688  0.00  0.00    +0.000 OA
ATOM     13  H   UNL     1      49.098   1.497   5.924  0.00  0.00    +0.000 HD
ATOM     14  H   UNL     1      48.790   2.978   6.761  0.00  0.00    +0.000 HD
ENDBRANCH   2  11
ENDBRANCH   1   6
BRANCH   1  15
ATOM     15  C   UNL     1      43.173   5.337  12.144  0.00  0.00    +0.000 C 
BRANCH  15  16
ATOM     16  C   UNL     1      44.621   5.392  12.567  0.00  0.00    +0.000 A 
ATOM     17  C   UNL     1      45.155   4.431  13.415  0.00  0.00    +0.000 A 
ATOM     18  N   UNL     1      46.413   4.473  13.896  0.00  0.00    +0.000 NA
ATOM     19  C   UNL     1      47.178   5.526  13.514  0.00  0.00    +0.000 A 
ATOM     20  C   UNL     1      46.771   6.557  12.662  0.00  0.00    +0.000 A 
ATOM     21  C   UNL     1      45.451   6.459  12.191  0.00  0.00    +0.000 A 
BRANCH  20  22
ATOM     22  C   UNL     1      47.664   7.681  12.295  0.00  0.00    +0.000 A 
ATOM     23  C   UNL     1      47.217   9.017  12.321  0.00  0.00    +0.000 A 
ATOM     24  C   UNL     1      48.057  10.080  11.975  0.00  0.00    +0.000 A 
ATOM     25  C   UNL     1      49.374   9.836  11.602  0.00  0.00    +0.000 A 
ATOM     26  C   UNL     1      49.841   8.527  11.570  0.00  0.00    +0.000 A 
ATOM     27 CL   UNL     1      51.471   8.212  11.115  0.00  0.00    +0.000 Cl
ATOM     28  C   UNL     1      48.999   7.461  11.903  0.00  0.00    +0.000 A 
ENDBRANCH  20  22
ENDBRANCH  15  16
ENDBRANCH   1  15
TORSDOF 5
ENDMDL
MODEL 2
REMARK VINA RESULT:    -8.884      2.077      2.485
REMARK INTER + INTRA:         -12.197
REMARK INTER:                 -11.259
REMARK INTRA:                  -0.938
REMARK UNBOUND:                -0.716
REMARK  Name = 
REMARK  5 active torsions:
REMARK  status: ('A' for Active; 'I' for Inactive)
REMARK    1  A    between atoms: C_2  and  C_4
REMARK    2  A    between atoms: N_8  and  C_9
REMARK    3  A    between atoms: C_9  and  C_10
REMARK    4  A    between atoms: C_10  and  C_11
REMARK    5  A    between atoms: C_15  and  C_16
REMARK                            x       y       z     vdW  Elec       q    Type
REMARK                         _______ _______ _______ _____ _____    ______ ____
ROOT
ATOM      1  C   UNL     1      43.378   3.799  11.301  0.00  0.00    +0.000 C 
ENDROOT
BRANCH   1   6
ATOM      2  C   UNL     1      46.461   2.802   7.355  0.00  0.00    +0.000 A 
ATOM      3  C   UNL     1      45.865   3.978   7.787  0.00  0.00    +0.000 A 
ATOM      4  C   UNL     1      45.032   3.945   8.903  0.00  0.00    +0.000 A 
ATOM      5  C   UNL     1      44.804   2.742   9.570  0.00  0.00    +0.000 A 
ATOM      6  N   UNL     1      44.007   2.652  10.685  0.00  0.00    +0.000 N 
ATOM      7  N   UNL     1      45.359   1.591   9.144  0.00  0.00    +0.000 NA
ATOM      8  C   UNL     1      46.162   1.637   8.046  0.00  0.00    +0.000 A 
ATOM      9  H   UNL     1      43.942   1.721  11.080  0.00  0.00    +0.000 HD
BRANCH   2  11
ATOM     10  N   UNL     1      48.691   2.502   6.454  0.00  0.00    +0.000 N 
ATOM     11  C   UNL     1      47.375   2.763   6.196  0.00  0.00    +0.000 C 
ATOM     12  O   UNL     1      46.966   2.923   5.054  0.00  0.00    +0.000 OA
ATOM     13  H   UNL     1      49.297   2.382   5.652  0.00  0.00    +0.000 HD
ATOM     14  H   UNL     1      49.010   2.128   7.337  0.00  0.00    +0.000 HD
ENDBRANCH   2  11
ENDBRANCH   1   6
BRANCH   1  15
ATOM     15  C   UNL     1      43.771   3.966  12.769  0.00  0.00    +0.000 C 
BRANCH  15  16
ATOM     16  C   UNL     1      45.101   4.671  12.866  0.00  0.00    +0.000 A 
ATOM     17  C   UNL     1      46.215   4.028  13.388  0.00  0.00    +0.000 A 
ATOM     18  N   UNL     1      47.406   4.630  13.580  0.00  0.00    +0.000 NA
ATOM     19  C   UNL     1      47.491   5.939  13.237  0.00  0.00    +0.000 A 
ATOM     20  C   UNL     1      46.454   6.704  12.696  0.00  0.00    +0.000 A 
ATOM     21  C   UNL     1      45.238   6.023  12.516  0.00  0.00    +0.000 A 
BRANCH  20  22
ATOM     22  C   UNL     1      46.621   8.135  12.351  0.00  0.00    +0.000 A 
ATOM     23  C   UNL     1      47.897   8.718  12.219  0.00  0.00    +0.000 A 
ATOM     24  C   UNL     1      48.059  10.069  11.894  0.00  0.00    +0.000 A 
ATOM     25  C   UNL     1      46.944  10.873  11.681  0.00  0.00    +0.000 A 
ATOM     26  C   UNL     1      45.674  10.322  11.803  0.00  0.00    +0.000 A 
ATOM     27 CL   UNL     1      44.287  11.307  11.537  0.00  0.00    +0.000 Cl
ATOM     28  C   UNL     1      45.510   8.975  12.141  0.00  0.00    +0.000 A 
ENDBRANCH  20  22
ENDBRANCH  15  16
ENDBRANCH   1  15
TORSDOF 5
ENDMDL
MODEL 3
REMARK VINA RESULT:    -8.548      2.551      3.907
REMARK INTER + INTRA:         -11.763
REMARK INTER:                 -10.940
REMARK INTRA:                  -0.823
REMARK UNBOUND:                -0.716
REMARK  Name = 
REMARK  5 active torsions:
REMARK  status: ('A' for Active; 'I' for Inactive)
REMARK    1  A    between atoms: C_2  and  C_4
REMARK    2  A    between atoms: N_8  and  C_9
REMARK    3  A    between atoms: C_9  and  C_10
REMARK    4  A    between atoms: C_10  and  C_11
REMARK    5  A    between atoms: C_15  and  C_16
REMARK                            x       y       z     vdW  Elec       q    Type
REMARK                         _______ _______ _______ _____ _____    ______ ____
ROOT
ATOM      1  C   UNL     1      43.504   5.118  10.647  0.00  0.00    +0.000 C 
ENDROOT
BRANCH   1   6
ATOM      2  C   UNL     1      46.660   2.691   7.451  0.00  0.00    +0.000 A 
ATOM      3  C   UNL     1      46.386   4.040   7.631  0.00  0.00    +0.000 A 
ATOM      4  C   UNL     1      45.437   4.416   8.579  0.00  0.00    +0.000 A 
ATOM      5  C   UNL     1      44.774   3.446   9.329  0.00  0.00    +0.000 A 
ATOM      6  N   UNL     1      43.843   3.759  10.290  0.00  0.00    +0.000 N 
ATOM      7  N   UNL     1      45.017   2.134   9.144  0.00  0.00    +0.000 NA
ATOM      8  C   UNL     1      45.938   1.781   8.208  0.00  0.00    +0.000 A 
ATOM      9  H   UNL     1      43.452   2.958  10.771  0.00  0.00    +0.000 HD
BRANCH   2  11
ATOM     10  N   UNL     1      47.847   2.968   5.356  0.00  0.00    +0.000 N 
ATOM     11  C   UNL     1      47.670   2.218   6.484  0.00  0.00    +0.000 C 
ATOM     12  O   UNL     1      48.342   1.218   6.699  0.00  0.00    +0.000 OA
ATOM     13  H   UNL     1      48.604   2.696   4.741  0.00  0.00    +0.000 HD
ATOM     14  H   UNL     1      47.494   3.911   5.268  0.00  0.00    +0.000 HD
ENDBRANCH   2  11
ENDBRANCH   1   6
BRANCH   1  15
ATOM     15  C   UNL     1      43.613   5.374  12.150  0.00  0.00    +0.000 C 
BRANCH  15  16
ATOM     16  C   UNL     1      45.044   5.685  12.515  0.00  0.00    +0.000 A 
ATOM     17  C   UNL     1      45.850   6.435  11.670  0.00  0.00    +0.000 A 
ATOM     18  N   UNL     1      47.156   6.673  11.898  0.00  0.00    +0.000 NA
ATOM     19  C   UNL     1      47.688   6.135  13.024  0.00  0.00    +0.000 A 
ATOM     20  C   UNL     1      46.992   5.368  13.962  0.00  0.00    +0.000 A 
ATOM     21  C   UNL     1      45.633   5.156  13.673  0.00  0.00    +0.000 A 
BRANCH  20  22
ATOM     22  C   UNL     1      47.644   4.807  15.168  0.00  0.00    +0.000 A 
ATOM     23  C   UNL     1      47.567   3.435  15.477  0.00  0.00    +0.000 A 
ATOM     24  C   UNL     1      48.182   2.902  16.616  0.00  0.00    +0.000 A 
ATOM     25  C   UNL     1      48.901   3.729  17.472  0.00  0.00    +0.000 A 
ATOM     26  C   UNL     1      48.994   5.086  17.188  0.00  0.00    +0.000 A 
ATOM     27 CL   UNL     1      49.886   6.118  18.237  0.00  0.00    +0.000 Cl
ATOM     28  C   UNL     1      48.370   5.623  16.058  0.00  0.00    +0.000 A 
ENDBRANCH  20  22
ENDBRANCH  15  16
ENDBRANCH   1  15
TORSDOF 5
ENDMDL
MODEL 4
REMARK VINA RESULT:    -8.536      3.848      7.302
REMARK INTER + INTRA:         -11.748
REMARK INTER:                 -11.041
REMARK INTRA:                  -0.707
REMARK UNBOUND:                -0.716
REMARK  Name = 
REMARK  5 active torsions:
REMARK  status: ('A' for Active; 'I' for Inactive)
REMARK    1  A    between atoms: C_2  and  C_4
REMARK    2  A    between atoms: N_8  and  C_9
REMARK    3  A    between atoms: C_9  and  C_10
REMARK    4  A    between atoms: C_10  and  C_11
REMARK    5  A    between atoms: C_15  and  C_16
REMARK                            x       y       z     vdW  Elec       q    Type
REMARK                         _______ _______ _______ _____ _____    ______ ____
ROOT
ATOM      1  C   UNL     1      47.147   7.029  11.761  0.00  0.00    +0.000 C 
ENDROOT
BRANCH   1   6
ATOM      2  C   UNL     1      47.634   4.248  16.015  0.00  0.00    +0.000 A 
ATOM      3  C   UNL     1      46.986   3.993  14.814  0.00  0.00    +0.000 A 
ATOM      4  C   UNL     1      46.997   4.968  13.820  0.00  0.00    +0.000 A 
ATOM      5  C   UNL     1      47.649   6.181  14.036  0.00  0.00    +0.000 A 
ATOM      6  N   UNL     1      47.708   7.172  13.086  0.00  0.00    +0.000 N 
ATOM      7  N   UNL     1      48.260   6.446  15.207  0.00  0.00    +0.000 NA
ATOM      8  C   UNL     1      48.233   5.489  16.173  0.00  0.00    +0.000 A 
ATOM      9  H   UNL     1      48.229   7.993  13.369  0.00  0.00    +0.000 HD
BRANCH   2  11
ATOM     10  N   UNL     1      48.925   2.921  17.581  0.00  0.00    +0.000 N 
ATOM     11  C   UNL     1      47.687   3.254  17.105  0.00  0.00    +0.000 C 
ATOM     12  O   UNL     1      46.668   2.776  17.585  0.00  0.00    +0.000 OA
ATOM     13  H   UNL     1      48.953   2.314  18.390  0.00  0.00    +0.000 HD
ATOM     14  H   UNL     1      49.750   3.470  17.382  0.00  0.00    +0.000 HD
ENDBRANCH   2  11
ENDBRANCH   1   6
BRANCH   1  15
ATOM     15  C   UNL     1      45.630   7.215  11.743  0.00  0.00    +0.000 C 
BRANCH  15  16
ATOM     16  C   UNL     1      44.977   6.042  11.055  0.00  0.00    +0.000 A 
ATOM     17  C   UNL     1      43.730   5.581  11.455  0.00  0.00    +0.000 A 
ATOM     18  N   UNL     1      43.135   4.488  10.938  0.00  0.00    +0.000 NA
ATOM     19  C   UNL     1      43.817   3.818   9.976  0.00  0.00    +0.000 A 
ATOM     20  C   UNL     1      45.073   4.174   9.477  0.00  0.00    +0.000 A 
ATOM     21  C   UNL     1      45.643   5.323  10.050  0.00  0.00    +0.000 A 
BRANCH  20  22
ATOM     22  C   UNL     1      45.760   3.387   8.426  0.00  0.00    +0.000 A 
ATOM     23  C   UNL     1      46.319   4.003   7.289  0.00  0.00    +0.000 A 
ATOM     24  C   UNL     1      46.968   3.262   6.296  0.00  0.00    +0.000 A 
ATOM     25  C   UNL     1      47.086   1.882   6.419  0.00  0.00    +0.000 A 
ATOM     26  C   UNL     1      46.545   1.250   7.533  0.00  0.00    +0.000 A 
ATOM     27 CL   UNL     1      46.690  -0.457   7.700  0.00  0.00    +0.000 Cl
ATOM     28  C   UNL     1      45.885   1.987   8.521  0.00  0.00    +0.000 A 
ENDBRANCH  20  22
ENDBRANCH  15  16
ENDBRANCH   1  15
TORSDOF 5
ENDMDL
MODEL 5
REMARK VINA RESULT:    -8.426      4.272      7.873
REMARK INTER + INTRA:         -11.606
REMARK INTER:                 -11.045
REMARK INTRA:                  -0.561
REMARK UNBOUND:                -0.716
REMARK  Name = 
REMARK  5 active torsions:
REMARK  status: ('A' for Active; 'I' for Inactive)
REMARK    1  A    between atoms: C_2  and  C_4
REMARK    2  A    between atoms: N_8  and  C_9
REMARK    3  A    between atoms: C_9  and  C_10
REMARK    4  A    between atoms: C_10  and  C_11
REMARK    5  A    between atoms: C_15  and  C_16
REMARK                            x       y       z     vdW  Elec       q    Type
REMARK                         _______ _______ _______ _____ _____    ______ ____
ROOT
ATOM      1  C   UNL     1      46.553   6.366  13.129  0.00  0.00    +0.000 C 
ENDROOT
BRANCH   1   6
ATOM      2  C   UNL     1      48.505   4.400  17.418  0.00  0.00    +0.000 A 
ATOM      3  C   UNL     1      48.830   5.538  16.691  0.00  0.00    +0.000 A 
ATOM      4  C   UNL     1      48.130   5.815  15.520  0.00  0.00    +0.000 A 
ATOM      5  C   UNL     1      47.121   4.956  15.087  0.00  0.00    +0.000 A 
ATOM      6  N   UNL     1      46.386   5.188  13.950  0.00  0.00    +0.000 N 
ATOM      7  N   UNL     1      46.815   3.838  15.773  0.00  0.00    +0.000 NA
ATOM      8  C   UNL     1      47.514   3.573  16.910  0.00  0.00    +0.000 A 
ATOM      9  H   UNL     1      45.673   4.493  13.763  0.00  0.00    +0.000 HD
BRANCH   2  11
ATOM     10  N   UNL     1      48.422   3.481  19.659  0.00  0.00    +0.000 N 
ATOM     11  C   UNL     1      49.185   4.054  18.681  0.00  0.00    +0.000 C 
ATOM     12  O   UNL     1      50.385   4.239  18.833  0.00  0.00    +0.000 OA
ATOM     13  H   UNL     1      48.908   3.158  20.486  0.00  0.00    +0.000 HD
ATOM     14  H   UNL     1      47.505   3.097  19.478  0.00  0.00    +0.000 HD
ENDBRANCH   2  11
ENDBRANCH   1   6
BRANCH   1  15
ATOM     15  C   UNL     1      45.256   6.786  12.435  0.00  0.00    +0.000 C 
BRANCH  15  16
ATOM     16  C   UNL     1      44.682   5.618  11.672  0.00  0.00    +0.000 A 
ATOM     17  C   UNL     1      43.503   5.008  12.078  0.00  0.00    +0.000 A 
ATOM     18  N   UNL     1      42.987   3.910  11.491  0.00  0.00    +0.000 NA
ATOM     19  C   UNL     1      43.682   3.392  10.447  0.00  0.00    +0.000 A 
ATOM     20  C   UNL     1      44.874   3.907   9.932  0.00  0.00    +0.000 A 
ATOM     21  C   UNL     1      45.363   5.053  10.582  0.00  0.00    +0.000 A 
BRANCH  20  22
ATOM     22  C   UNL     1      45.581   3.281   8.790  0.00  0.00    +0.000 A 
ATOM     23  C   UNL     1      46.089   4.050   7.725  0.00  0.00    +0.000 A 
ATOM     24  C   UNL     1      46.756   3.462   6.645  0.00  0.00    +0.000 A 
ATOM     25  C   UNL     1      46.942   2.084   6.607  0.00  0.00    +0.000 A 
ATOM     26  C   UNL     1      46.453   1.302   7.647  0.00  0.00    +0.000 A 
ATOM     27 CL   UNL     1      46.683  -0.403   7.615  0.00  0.00    +0.000 Cl
ATOM     28  C   UNL     1      45.775   1.887   8.721  0.00  0.00    +0.000 A 
ENDBRANCH  20  22
ENDBRANCH  15  16
ENDBRANCH   1  15
TORSDOF 5
ENDMDL
MODEL 6
REMARK VINA RESULT:    -8.373      1.713      2.222
REMARK INTER + INTRA:         -11.536
REMARK INTER:                 -10.613
REMARK INTRA:                  -0.924
REMARK UNBOUND:                -0.716
REMARK  Name = 
REMARK  5 active torsions:
REMARK  status: ('A' for Active; 'I' for Inactive)
REMARK    1  A    between atoms: C_2  and  C_4
REMARK    2  A    between atoms: N_8  and  C_9
REMARK    3  A    between atoms: C_9  and  C_10
REMARK    4  A    between atoms: C_10  and  C_11
REMARK    5  A    between atoms: C_15  and  C_16
REMARK                            x       y       z     vdW  Elec       q    Type
REMARK                         _______ _______ _______ _____ _____    ______ ____
ROOT
ATOM      1  C   UNL     1      43.390   3.458  11.382  0.00  0.00    +0.000 C 
ENDROOT
BRANCH   1   6
ATOM      2  C   UNL     1      46.432   2.748   7.343  0.00  0.00    +0.000 A 
ATOM      3  C   UNL     1      45.841   3.891   7.864  0.00  0.00    +0.000 A 
ATOM      4  C   UNL     1      45.020   3.776   8.983  0.00  0.00    +0.000 A 
ATOM      5  C   UNL     1      44.798   2.529   9.565  0.00  0.00    +0.000 A 
ATOM      6  N   UNL     1      44.013   2.358  10.679  0.00  0.00    +0.000 N 
ATOM      7  N   UNL     1      45.348   1.412   9.051  0.00  0.00    +0.000 NA
ATOM      8  C   UNL     1      46.140   1.537   7.951  0.00  0.00    +0.000 A 
ATOM      9  H   UNL     1      43.951   1.402  11.007  0.00  0.00    +0.000 HD
BRANCH   2  11
ATOM     10  N   UNL     1      48.661   2.566   6.407  0.00  0.00    +0.000 N 
ATOM     11  C   UNL     1      47.333   2.793   6.175  0.00  0.00    +0.000 C 
ATOM     12  O   UNL     1      46.907   2.991   5.045  0.00  0.00    +0.000 OA
ATOM     13  H   UNL     1      49.261   2.503   5.595  0.00  0.00    +0.000 HD
ATOM     14  H   UNL     1      49.001   2.163   7.270  0.00  0.00    +0.000 HD
ENDBRANCH   2  11
ENDBRANCH   1   6
BRANCH   1  15
ATOM     15  C   UNL     1      44.201   3.912  12.596  0.00  0.00    +0.000 C 
BRANCH  15  16
ATOM     16  C   UNL     1      44.726   5.308  12.369  0.00  0.00    +0.000 A 
ATOM     17  C   UNL     1      43.960   6.262  11.713  0.00  0.00    +0.000 A 
ATOM     18  N   UNL     1      44.405   7.496  11.404  0.00  0.00    +0.000 NA
ATOM     19  C   UNL     1      45.678   7.795  11.765  0.00  0.00    +0.000 A 
ATOM     20  C   UNL     1      46.553   6.935  12.434  0.00  0.00    +0.000 A 
ATOM     21  C   UNL     1      46.034   5.664  12.731  0.00  0.00    +0.000 A 
BRANCH  20  22
ATOM     22  C   UNL     1      47.936   7.331  12.790  0.00  0.00    +0.000 A 
ATOM     23  C   UNL     1      48.492   7.017  14.046  0.00  0.00    +0.000 A 
ATOM     24  C   UNL     1      49.797   7.390  14.386  0.00  0.00    +0.000 A 
ATOM     25  C   UNL     1      50.586   8.080  13.471  0.00  0.00    +0.000 A 
ATOM     26  C   UNL     1      50.061   8.400  12.224  0.00  0.00    +0.000 A 
ATOM     27 CL   UNL     1      51.030   9.247  11.082  0.00  0.00    +0.000 Cl
ATOM     28  C   UNL     1      48.753   8.039  11.887  0.00  0.00    +0.000 A 
ENDBRANCH  20  22
ENDBRANCH  15  16
ENDBRANCH   1  15
TORSDOF 5
ENDMDL
MODEL 7
REMARK VINA RESULT:    -7.720      3.752      7.435
REMARK INTER + INTRA:         -10.693
REMARK INTER:                  -9.817
REMARK INTRA:                  -0.876
REMARK UNBOUND:                -0.716
REMARK  Name = 
REMARK  5 active torsions:
REMARK  status: ('A' for Active; 'I' for Inactive)
REMARK    1  A    between atoms: C_2  and  C_4
REMARK    2  A    between atoms: N_8  and  C_9
REMARK    3  A    between atoms: C_9  and  C_10
REMARK    4  A    between atoms: C_10  and  C_11
REMARK    5  A    between atoms: C_15  and  C_16
REMARK                            x       y       z     vdW  Elec       q    Type
REMARK                         _______ _______ _______ _____ _____    ______ ____
ROOT
ATOM      1  C   UNL     1      48.292   7.126  12.205  0.00  0.00    +0.000 C 
ENDROOT
BRANCH   1   6
ATOM      2  C   UNL     1      47.732   4.462  16.525  0.00  0.00    +0.000 A 
ATOM      3  C   UNL     1      47.096   4.372  15.294  0.00  0.00    +0.000 A 
ATOM      4  C   UNL     1      47.441   5.268  14.286  0.00  0.00    +0.000 A 
ATOM      5  C   UNL     1      48.412   6.242  14.517  0.00  0.00    +0.000 A 
ATOM      6  N   UNL     1      48.806   7.140  13.556  0.00  0.00    +0.000 N 
ATOM      7  N   UNL     1      49.018   6.352  15.716  0.00  0.00    +0.000 NA
ATOM      8  C   UNL     1      48.663   5.476  16.695  0.00  0.00    +0.000 A 
ATOM      9  H   UNL     1      49.533   7.780  13.853  0.00  0.00    +0.000 HD
BRANCH   2  11
ATOM     10  N   UNL     1      48.192   3.658  18.765  0.00  0.00    +0.000 N 
ATOM     11  C   UNL     1      47.437   3.532  17.632  0.00  0.00    +0.000 C 
ATOM     12  O   UNL     1      46.535   2.710  17.554  0.00  0.00    +0.000 OA
ATOM     13  H   UNL     1      47.926   3.086  19.556  0.00  0.00    +0.000 HD
ATOM     14  H   UNL     1      48.764   4.471  18.950  0.00  0.00    +0.000 HD
ENDBRANCH   2  11
ENDBRANCH   1   6
BRANCH   1  15
ATOM     15  C   UNL     1      47.020   7.959  12.053  0.00  0.00    +0.000 C 
BRANCH  15  16
ATOM     16  C   UNL     1      45.896   7.091  11.542  0.00  0.00    +0.000 A 
ATOM     17  C   UNL     1      44.591   7.284  11.973  0.00  0.00    +0.000 A 
ATOM     18  N   UNL     1      43.561   6.490  11.621  0.00  0.00    +0.000 NA
ATOM     19  C   UNL     1      43.845   5.449  10.800  0.00  0.00    +0.000 A 
ATOM     20  C   UNL     1      45.109   5.144  10.287  0.00  0.00    +0.000 A 
ATOM     21  C   UNL     1      46.143   6.007  10.686  0.00  0.00    +0.000 A 
BRANCH  20  22
ATOM     22  C   UNL     1      45.345   3.982   9.398  0.00  0.00    +0.000 A 
ATOM     23  C   UNL     1      44.967   2.677   9.773  0.00  0.00    +0.000 A 
ATOM     24  C   UNL     1      45.188   1.578   8.936  0.00  0.00    +0.000 A 
ATOM     25  C   UNL     1      45.784   1.757   7.692  0.00  0.00    +0.000 A 
ATOM     26  C   UNL     1      46.164   3.035   7.297  0.00  0.00    +0.000 A 
ATOM     27 CL   UNL     1      46.897   3.270   5.758  0.00  0.00    +0.000 Cl
ATOM     28  C   UNL     1      45.956   4.133   8.138  0.00  0.00    +0.000 A 
ENDBRANCH  20  22
ENDBRANCH  15  16
ENDBRANCH   1  15
TORSDOF 5
ENDMDL
MODEL 8
REMARK VINA RESULT:    -7.612      3.739      7.064
REMARK INTER + INTRA:         -10.553
REMARK INTER:                  -9.801
REMARK INTRA:                  -0.753
REMARK UNBOUND:                -0.716
REMARK  Name = 
REMARK  5 active torsions:
REMARK  status: ('A' for Active; 'I' for Inactive)
REMARK    1  A    between atoms: C_2  and  C_4
REMARK    2  A    between atoms: N_8  and  C_9
REMARK    3  A    between atoms: C_9  and  C_10
REMARK    4  A    between atoms: C_10  and  C_11
REMARK    5  A    between atoms: C_15  and  C_16
REMARK                            x       y       z     vdW  Elec       q    Type
REMARK                         _______ _______ _______ _____ _____    ______ ____
ROOT
ATOM      1  C   UNL     1      45.475   6.970  12.992  0.00  0.00    +0.000 C 
ENDROOT
BRANCH   1   6
ATOM      2  C   UNL     1      50.249   8.452  11.954  0.00  0.00    +0.000 A 
ATOM      3  C   UNL     1      49.594   7.243  11.760  0.00  0.00    +0.000 A 
ATOM      4  C   UNL     1      48.271   7.117  12.176  0.00  0.00    +0.000 A 
ATOM      5  C   UNL     1      47.621   8.192  12.779  0.00  0.00    +0.000 A 
ATOM      6  N   UNL     1      46.312   8.132  13.193  0.00  0.00    +0.000 N 
ATOM      7  N   UNL     1      48.256   9.361  12.994  0.00  0.00    +0.000 NA
ATOM      8  C   UNL     1      49.552   9.467  12.592  0.00  0.00    +0.000 A 
ATOM      9  H   UNL     1      45.961   8.990  13.599  0.00  0.00    +0.000 HD
BRANCH   2  11
ATOM     10  N   UNL     1      52.628   8.147  12.310  0.00  0.00    +0.000 N 
ATOM     11  C   UNL     1      51.643   8.669  11.519  0.00  0.00    +0.000 C 
ATOM     12  O   UNL     1      51.903   9.258  10.479  0.00  0.00    +0.000 OA
ATOM     13  H   UNL     1      53.576   8.214  11.961  0.00  0.00    +0.000 HD
ATOM     14  H   UNL     1      52.443   7.458  13.026  0.00  0.00    +0.000 HD
ENDBRANCH   2  11
ENDBRANCH   1   6
BRANCH   1  15
ATOM     15  C   UNL     1      44.604   7.085  11.741  0.00  0.00    +0.000 C 
BRANCH  15  16
ATOM     16  C   UNL     1      44.295   5.709  11.204  0.00  0.00    +0.000 A 
ATOM     17  C   UNL     1      43.304   4.924  11.778  0.00  0.00    +0.000 A 
ATOM     18  N   UNL     1      43.040   3.657  11.400  0.00  0.00    +0.000 NA
ATOM     19  C   UNL     1      43.803   3.146  10.402  0.00  0.00    +0.000 A 
ATOM     20  C   UNL     1      44.826   3.826   9.735  0.00  0.00    +0.000 A 
ATOM     21  C   UNL     1      45.053   5.142  10.169  0.00  0.00    +0.000 A 
BRANCH  20  22
ATOM     22  C   UNL     1      45.623   3.196   8.655  0.00  0.00    +0.000 A 
ATOM     23  C   UNL     1      46.224   3.964   7.639  0.00  0.00    +0.000 A 
ATOM     24  C   UNL     1      46.976   3.374   6.618  0.00  0.00    +0.000 A 
ATOM     25  C   UNL     1      47.157   1.995   6.594  0.00  0.00    +0.000 A 
ATOM     26  C   UNL     1      46.577   1.214   7.587  0.00  0.00    +0.000 A 
ATOM     27 CL   UNL     1      46.799  -0.492   7.570  0.00  0.00    +0.000 Cl
ATOM     28  C   UNL     1      45.814   1.802   8.600  0.00  0.00    +0.000 A 
ENDBRANCH  20  22
ENDBRANCH  15  16
ENDBRANCH   1  15
TORSDOF 5
ENDMDL
MODEL 9
REMARK VINA RESULT:    -7.391      4.191      7.756
REMARK INTER + INTRA:         -10.268
REMARK INTER:                  -9.672
REMARK INTRA:                  -0.596
REMARK UNBOUND:                -0.716
REMARK  Name = 
REMARK  5 active torsions:
REMARK  status: ('A' for Active; 'I' for Inactive)
REMARK    1  A    between atoms: C_2  and  C_4
REMARK    2  A    between atoms: N_8  and  C_9
REMARK    3  A    between atoms: C_9  and  C_10
REMARK    4  A    between atoms: C_10  and  C_11
REMARK    5  A    between atoms: C_15  and  C_16
REMARK                            x       y       z     vdW  Elec       q    Type
REMARK                         _______ _______ _______ _____ _____    ______ ____
ROOT
ATOM      1  C   UNL     1      46.289   6.639  12.704  0.00  0.00    +0.000 C 
ENDROOT
BRANCH   1   6
ATOM      2  C   UNL     1      50.677   7.427  15.193  0.00  0.00    +0.000 A 
ATOM      3  C   UNL     1      50.231   7.852  13.949  0.00  0.00    +0.000 A 
ATOM      4  C   UNL     1      48.973   7.451  13.508  0.00  0.00    +0.000 A 
ATOM      5  C   UNL     1      48.178   6.632  14.309  0.00  0.00    +0.000 A 
ATOM      6  N   UNL     1      46.923   6.220  13.934  0.00  0.00    +0.000 N 
ATOM      7  N   UNL     1      48.613   6.195  15.507  0.00  0.00    +0.000 NA
ATOM      8  C   UNL     1      49.849   6.586  15.921  0.00  0.00    +0.000 A 
ATOM      9  H   UNL     1      46.449   5.643  14.619  0.00  0.00    +0.000 HD
BRANCH   2  11
ATOM     10  N   UNL     1      52.738   6.856  16.334  0.00  0.00    +0.000 N 
ATOM     11  C   UNL     1      51.988   7.830  15.737  0.00  0.00    +0.000 C 
ATOM     12  O   UNL     1      52.400   8.977  15.629  0.00  0.00    +0.000 OA
ATOM     13  H   UNL     1      53.674   7.112  16.621  0.00  0.00    +0.000 HD
ATOM     14  H   UNL     1      52.539   5.871  16.222  0.00  0.00    +0.000 HD
ENDBRANCH   2  11
ENDBRANCH   1   6
BRANCH   1  15
ATOM     15  C   UNL     1      44.770   6.471  12.741  0.00  0.00    +0.000 C 
BRANCH  15  16
ATOM     16  C   UNL     1      44.371   5.240  11.966  0.00  0.00    +0.000 A 
ATOM     17  C   UNL     1      43.345   4.417  12.409  0.00  0.00    +0.000 A 
ATOM     18  N   UNL     1      43.000   3.260  11.809  0.00  0.00    +0.000 NA
ATOM     19  C   UNL     1      43.716   2.904  10.714  0.00  0.00    +0.000 A 
ATOM     20  C   UNL     1      44.766   3.639  10.157  0.00  0.00    +0.000 A 
ATOM     21  C   UNL     1      45.078   4.836  10.823  0.00  0.00    +0.000 A 
BRANCH  20  22
ATOM     22  C   UNL     1      45.507   3.181   8.958  0.00  0.00    +0.000 A 
ATOM     23  C   UNL     1      45.975   4.089   7.989  0.00  0.00    +0.000 A 
ATOM     24  C   UNL     1      46.674   3.660   6.856  0.00  0.00    +0.000 A 
ATOM     25  C   UNL     1      46.934   2.306   6.668  0.00  0.00    +0.000 A 
ATOM     26  C   UNL     1      46.485   1.390   7.611  0.00  0.00    +0.000 A 
ATOM     27 CL   UNL     1      46.806  -0.287   7.393  0.00  0.00    +0.000 Cl
ATOM     28  C   UNL     1      45.775   1.815   8.738  0.00  0.00    +0.000 A 
ENDBRANCH  20  22
ENDBRANCH  15  16
ENDBRANCH   1  15
TORSDOF 5
ENDMDL
