MODEL 1
REMARK VINA RESULT:    -8.787      0.000      0.000
REMARK INTER + INTRA:         -12.379
REMARK INTER:                 -11.355
REMARK INTRA:                  -1.024
REMARK UNBOUND:                -1.024
REMARK  Name = 
REMARK  5 active torsions:
REMARK  status: ('A' for Active; 'I' for Inactive)
REMARK    1  A    between atoms: C_2  and  C_4
REMARK    2  A    between atoms: C_7  and  N_8
REMARK    3  A    between atoms: N_8  and  C_9
REMARK    4  A    between atoms: C_9  and  C_10
REMARK    5  A    between atoms: C_14  and  C_15
REMARK                            x       y       z     vdW  Elec       q    Type
REMARK                         _______ _______ _______ _____ _____    ______ ____
ROOT
ATOM      1  C   UNL     1      43.794   4.843  11.395  0.00  0.00    +0.000 C 
ATOM      2  C   UNL     1      42.477   5.244  12.053  0.00  0.00    +0.000 C 
ATOM      3  C   UNL     1      43.036   6.087  10.961  0.00  0.00    +0.000 C 
ENDROOT
BRANCH   1   4
ATOM      4  C   UNL     1      45.076   5.060  12.199  0.00  0.00    +0.000 A 
ATOM      5  C   UNL     1      45.613   4.059  13.020  0.00  0.00    +0.000 A 
ATOM      6  C   UNL     1      46.835   4.235  13.669  0.00  0.00    +0.000 A 
ATOM      7  C   UNL     1      47.559   5.414  13.487  0.00  0.00    +0.000 A 
ATOM      8  C   UNL     1      47.076   6.445  12.666  0.00  0.00    +0.000 A 
ATOM      9  C   UNL     1      45.810   6.257  12.080  0.00  0.00    +0.000 A 
BRANCH   8  10
ATOM     10  C   UNL     1      47.903   7.624  12.318  0.00  0.00    +0.000 A 
ATOM     11  C   UNL     1      49.222   7.450  11.847  0.00  0.00    +0.000 A 
ATOM     12  C   UNL     1      49.989   8.533  11.407  0.00  0.00    +0.000 A 
ATOM     13  C   UNL     1      49.443   9.808  11.423  0.00  0.00    +0.000 A 
ATOM     14  F   UNL     1      50.168  10.841  10.971  0.00  0.00    +0.000 F 
ATOM     15  C   UNL     1      48.158  10.027  11.889  0.00  0.00    +0.000 A 
ATOM     16  C   UNL     1      47.406   8.942  12.338  0.00  0.00    +0.000 A 
ATOM     17  F   UNL     1      46.164   9.196  12.782  0.00  0.00    +0.000 F 
ENDBRANCH   8  10
ENDBRANCH   1   4
BRANCH   1  18
ATOM     18  N   UNL     1      43.770   3.599  10.604  0.00  0.00    +0.000 N 
ATOM     19  H   UNL     1      43.635   2.728  11.116  0.00  0.00    +0.000 HD
BRANCH  18  23
ATOM     20  C   UNL     1      46.415   2.775   7.571  0.00  0.00    +0.000 A 
ATOM     21  C   UNL     1      45.921   1.780   8.399  0.00  0.00    +0.000 A 
ATOM     22  N   UNL     1      45.049   2.041   9.413  0.00  0.00    +0.000 NA
ATOM     23  C   UNL     1      44.684   3.333   9.577  0.00  0.00    +0.000 A 
ATOM     24  C   UNL     1      45.181   4.315   8.715  0.00  0.00    +0.000 A 
ATOM     25  N   UNL     1      46.055   4.078   7.705  0.00  0.00    +0.000 NA
BRANCH  20  27
ATOM     26  N   UNL     1      47.275   3.215   5.361  0.00  0.00    +0.000 N 
ATOM     27  C   UNL     1      47.391   2.459   6.495  0.00  0.00    +0.000 C 
ATOM     28  O   UNL     1      48.241   1.589   6.616  0.00  0.00    +0.000 OA
ATOM     29  H   UNL     1      47.913   3.068   4.590  0.00  0.00    +0.000 HD
ATOM     30  H   UNL     1      46.558   3.928   5.302  0.00  0.00    +0.000 HD
ENDBRANCH  20  27
ENDBRANCH  18  23
ENDBRANCH   1  18
TORSDOF 5
ENDMDL
MODEL 2
REMARK VINA RESULT:    -8.769      2.454      4.032
REMARK INTER + INTRA:         -12.356
REMARK INTER:                 -12.276
REMARK INTRA:                  -0.080
REMARK UNBOUND:                -1.024
REMARK  Name = 
REMARK  5 active torsions:
REMARK  status: ('A' for Active; 'I' for Inactive)
REMARK    1  A    between atoms: C_2  and  C_4
REMARK    2  A    between atoms: C_7  and  N_8
REMARK    3  A    between atoms: N_8  and  C_9
REMARK    4  A    between atoms: C_9  and  C_10
REMARK    5  A    between atoms: C_14  and  C_15
REMARK                            x       y       z     vdW  Elec       q    Type
REMARK                         _______ _______ _______ _____ _____    ______ ____
ROOT
ATOM      1  C   UNL     1      43.952   5.043  11.357  0.00  0.00    +0.000 C 
ATOM      2  C   UNL     1      43.191   4.054  12.235  0.00  0.00    +0.000 C 
ATOM      3  C   UNL     1      42.762   5.479  12.196  0.00  0.00    +0.000 C 
ENDROOT
BRANCH   1   4
ATOM      4  C   UNL     1      45.335   5.487  11.834  0.00  0.00    +0.000 A 
ATOM      5  C   UNL     1      46.060   6.487  11.171  0.00  0.00    +0.000 A 
ATOM      6  C   UNL     1      47.275   6.952  11.675  0.00  0.00    +0.000 A 
ATOM      7  C   UNL     1      47.776   6.441  12.872  0.00  0.00    +0.000 A 
ATOM      8  C   UNL     1      47.086   5.449  13.586  0.00  0.00    +0.000 A 
ATOM      9  C   UNL     1      45.897   4.958  13.013  0.00  0.00    +0.000 A 
BRANCH   8  10
ATOM     10  C   UNL     1      47.506   5.020  14.941  0.00  0.00    +0.000 A 
ATOM     11  C   UNL     1      47.219   3.713  15.391  0.00  0.00    +0.000 A 
ATOM     12  C   UNL     1      47.696   3.242  16.617  0.00  0.00    +0.000 A 
ATOM     13  C   UNL     1      48.477   4.071  17.410  0.00  0.00    +0.000 A 
ATOM     14  F   UNL     1      48.960   3.607  18.571  0.00  0.00    +0.000 F 
ATOM     15  C   UNL     1      48.771   5.364  17.014  0.00  0.00    +0.000 A 
ATOM     16  C   UNL     1      48.280   5.829  15.795  0.00  0.00    +0.000 A 
ATOM     17  F   UNL     1      48.589   7.088  15.447  0.00  0.00    +0.000 F 
ENDBRANCH   8  10
ENDBRANCH   1   4
BRANCH   1  18
ATOM     18  N   UNL     1      43.845   4.832   9.902  0.00  0.00    +0.000 N 
ATOM     19  H   UNL     1      42.910   4.691   9.522  0.00  0.00    +0.000 HD
BRANCH  18  23
ATOM     20  C   UNL     1      46.419   2.396   7.825  0.00  0.00    +0.000 A 
ATOM     21  C   UNL     1      46.371   3.763   7.605  0.00  0.00    +0.000 A 
ATOM     22  N   UNL     1      45.517   4.581   8.282  0.00  0.00    +0.000 NA
ATOM     23  C   UNL     1      44.707   3.989   9.190  0.00  0.00    +0.000 A 
ATOM     24  C   UNL     1      44.791   2.611   9.408  0.00  0.00    +0.000 A 
ATOM     25  N   UNL     1      45.628   1.778   8.740  0.00  0.00    +0.000 NA
BRANCH  20  27
ATOM     26  N   UNL     1      48.414   2.167   6.488  0.00  0.00    +0.000 N 
ATOM     27  C   UNL     1      47.340   1.528   7.045  0.00  0.00    +0.000 C 
ATOM     28  O   UNL     1      47.155   0.326   6.915  0.00  0.00    +0.000 OA
ATOM     29  H   UNL     1      49.092   1.640   5.954  0.00  0.00    +0.000 HD
ATOM     30  H   UNL     1      48.532   3.164   6.623  0.00  0.00    +0.000 HD
ENDBRANCH  20  27
ENDBRANCH  18  23
ENDBRANCH   1  18
TORSDOF 5
ENDMDL
MODEL 3
REMARK VINA RESULT:    -8.528      4.471      7.387
REMARK INTER + INTRA:         -12.044
REMARK INTER:                 -11.211
REMARK INTRA:                  -0.834
REMARK UNBOUND:                -1.024
REMARK  Name = 
REMARK  5 active torsions:
REMARK  status: ('A' for Active; 'I' for Inactive)
REMARK    1  A    between atoms: C_2  and  C_4
REMARK    2  A    between atoms: C_7  and  N_8
REMARK    3  A    between atoms: N_8  and  C_9
REMARK    4  A    between atoms: C_9  and  C_10
REMARK    5  A    between atoms: C_14  and  C_15
REMARK                            x       y       z     vdW  Elec       q    Type
REMARK                         _______ _______ _______ _____ _____    ______ ____
ROOT
ATOM      1  C   UNL     1      46.369   7.329  12.446  0.00  0.00    +0.000 C 
ATOM      2  C   UNL     1      46.582   8.724  11.864  0.00  0.00    +0.000 C 
ATOM      3  C   UNL     1      45.808   8.568  13.126  0.00  0.00    +0.000 C 
ENDROOT
BRANCH   1   4
ATOM      4  C   UNL     1      45.368   6.417  11.738  0.00  0.00    +0.000 A 
ATOM      5  C   UNL     1      43.983   6.584  11.882  0.00  0.00    +0.000 A 
ATOM      6  C   UNL     1      43.083   5.809  11.153  0.00  0.00    +0.000 A 
ATOM      7  C   UNL     1      43.553   4.865  10.240  0.00  0.00    +0.000 A 
ATOM      8  C   UNL     1      44.928   4.664  10.044  0.00  0.00    +0.000 A 
ATOM      9  C   UNL     1      45.806   5.418  10.845  0.00  0.00    +0.000 A 
BRANCH   8  10
ATOM     10  C   UNL     1      45.449   3.798   8.959  0.00  0.00    +0.000 A 
ATOM     11  C   UNL     1      46.201   4.359   7.905  0.00  0.00    +0.000 A 
ATOM     12  C   UNL     1      46.799   3.558   6.929  0.00  0.00    +0.000 A 
ATOM     13  C   UNL     1      46.660   2.179   6.997  0.00  0.00    +0.000 A 
ATOM     14  F   UNL     1      47.260   1.410   6.077  0.00  0.00    +0.000 F 
ATOM     15  C   UNL     1      45.919   1.587   8.006  0.00  0.00    +0.000 A 
ATOM     16  C   UNL     1      45.317   2.396   8.968  0.00  0.00    +0.000 A 
ATOM     17  F   UNL     1      44.608   1.783   9.930  0.00  0.00    +0.000 F 
ENDBRANCH   8  10
ENDBRANCH   1   4
BRANCH   1  18
ATOM     18  N   UNL     1      47.576   6.645  12.945  0.00  0.00    +0.000 N 
ATOM     19  H   UNL     1      48.180   6.208  12.251  0.00  0.00    +0.000 HD
BRANCH  18  23
ATOM     20  C   UNL     1      47.538   4.229  16.267  0.00  0.00    +0.000 A 
ATOM     21  C   UNL     1      48.317   5.373  16.205  0.00  0.00    +0.000 A 
ATOM     22  N   UNL     1      48.344   6.179  15.107  0.00  0.00    +0.000 NA
ATOM     23  C   UNL     1      47.566   5.805  14.065  0.00  0.00    +0.000 A 
ATOM     24  C   UNL     1      46.773   4.658  14.162  0.00  0.00    +0.000 A 
ATOM     25  N   UNL     1      46.737   3.838  15.242  0.00  0.00    +0.000 NA
BRANCH  20  27
ATOM     26  N   UNL     1      48.638   3.517  18.293  0.00  0.00    +0.000 N 
ATOM     27  C   UNL     1      47.557   3.355  17.469  0.00  0.00    +0.000 C 
ATOM     28  O   UNL     1      46.668   2.550  17.709  0.00  0.00    +0.000 OA
ATOM     29  H   UNL     1      48.714   2.967  19.138  0.00  0.00    +0.000 HD
ATOM     30  H   UNL     1      49.351   4.197  18.059  0.00  0.00    +0.000 HD
ENDBRANCH  20  27
ENDBRANCH  18  23
ENDBRANCH   1  18
TORSDOF 5
ENDMDL
MODEL 4
REMARK VINA RESULT:    -7.862      4.466      7.493
REMARK INTER + INTRA:         -11.184
REMARK INTER:                 -10.328
REMARK INTRA:                  -0.856
REMARK UNBOUND:                -1.024
REMARK  Name = 
REMARK  5 active torsions:
REMARK  status: ('A' for Active; 'I' for Inactive)
REMARK    1  A    between atoms: C_2  and  C_4
REMARK    2  A    between atoms: C_7  and  N_8
REMARK    3  A    between atoms: N_8  and  C_9
REMARK    4  A    between atoms: C_9  and  C_10
REMARK    5  A    between atoms: C_14  and  C_15
REMARK                            x       y       z     vdW  Elec       q    Type
REMARK                         _______ _______ _______ _____ _____    ______ ____
ROOT
ATOM      1  C   UNL     1      46.363   7.278  12.473  0.00  0.00    +0.000 C 
ATOM      2  C   UNL     1      46.552   8.682  11.904  0.00  0.00    +0.000 C 
ATOM      3  C   UNL     1      45.770   8.500  13.157  0.00  0.00    +0.000 C 
ENDROOT
BRANCH   1   4
ATOM      4  C   UNL     1      45.389   6.351  11.748  0.00  0.00    +0.000 A 
ATOM      5  C   UNL     1      44.004   6.572  11.765  0.00  0.00    +0.000 A 
ATOM      6  C   UNL     1      43.136   5.777  11.018  0.00  0.00    +0.000 A 
ATOM      7  C   UNL     1      43.642   4.755  10.214  0.00  0.00    +0.000 A 
ATOM      8  C   UNL     1      45.020   4.497  10.147  0.00  0.00    +0.000 A 
ATOM      9  C   UNL     1      45.859   5.277  10.965  0.00  0.00    +0.000 A 
BRANCH   8  10
ATOM     10  C   UNL     1      45.593   3.539   9.171  0.00  0.00    +0.000 A 
ATOM     11  C   UNL     1      45.288   2.164   9.265  0.00  0.00    +0.000 A 
ATOM     12  C   UNL     1      45.722   1.253   8.299  0.00  0.00    +0.000 A 
ATOM     13  C   UNL     1      46.462   1.706   7.216  0.00  0.00    +0.000 A 
ATOM     14  F   UNL     1      46.850   0.836   6.273  0.00  0.00    +0.000 F 
ATOM     15  C   UNL     1      46.796   3.044   7.091  0.00  0.00    +0.000 A 
ATOM     16  C   UNL     1      46.369   3.943   8.067  0.00  0.00    +0.000 A 
ATOM     17  F   UNL     1      46.713   5.231   7.909  0.00  0.00    +0.000 F 
ENDBRANCH   8  10
ENDBRANCH   1   4
BRANCH   1  18
ATOM     18  N   UNL     1      47.580   6.616  12.977  0.00  0.00    +0.000 N 
ATOM     19  H   UNL     1      48.143   6.105  12.299  0.00  0.00    +0.000 HD
BRANCH  18  23
ATOM     20  C   UNL     1      47.659   4.514  16.505  0.00  0.00    +0.000 A 
ATOM     21  C   UNL     1      48.487   5.602  16.285  0.00  0.00    +0.000 A 
ATOM     22  N   UNL     1      48.475   6.304  15.118  0.00  0.00    +0.000 NA
ATOM     23  C   UNL     1      47.608   5.882  14.169  0.00  0.00    +0.000 A 
ATOM     24  C   UNL     1      46.769   4.793  14.424  0.00  0.00    +0.000 A 
ATOM     25  N   UNL     1      46.769   4.077  15.576  0.00  0.00    +0.000 NA
BRANCH  20  27
ATOM     26  N   UNL     1      46.996   2.590  17.801  0.00  0.00    +0.000 N 
ATOM     27  C   UNL     1      47.720   3.751  17.779  0.00  0.00    +0.000 C 
ATOM     28  O   UNL     1      48.376   4.130  18.739  0.00  0.00    +0.000 OA
ATOM     29  H   UNL     1      47.000   2.010  18.629  0.00  0.00    +0.000 HD
ATOM     30  H   UNL     1      46.469   2.310  16.983  0.00  0.00    +0.000 HD
ENDBRANCH  20  27
ENDBRANCH  18  23
ENDBRANCH   1  18
TORSDOF 5
ENDMDL
MODEL 5
REMARK VINA RESULT:    -7.357      4.806      7.944
REMARK INTER + INTRA:         -10.531
REMARK INTER:                  -9.442
REMARK INTRA:                  -1.089
REMARK UNBOUND:                -1.024
REMARK  Name = 
REMARK  5 active torsions:
REMARK  status: ('A' for Active; 'I' for Inactive)
REMARK    1  A    between atoms: C_2  and  C_4
REMARK    2  A    between atoms: C_7  and  N_8
REMARK    3  A    between atoms: N_8  and  C_9
REMARK    4  A    between atoms: C_9  and  C_10
REMARK    5  A    between atoms: C_14  and  C_15
REMARK                            x       y       z     vdW  Elec       q    Type
REMARK                         _______ _______ _______ _____ _____    ______ ____
ROOT
ATOM      1  C   UNL     1      48.656   8.140  12.671  0.00  0.00    +0.000 C 
ATOM      2  C   UNL     1      49.529   8.878  11.660  0.00  0.00    +0.000 C 
ATOM      3  C   UNL     1      49.098   9.577  12.901  0.00  0.00    +0.000 C 
ENDROOT
BRANCH   1   4
ATOM      4  C   UNL     1      47.189   7.919  12.305  0.00  0.00    +0.000 A 
ATOM      5  C   UNL     1      46.251   8.960  12.345  0.00  0.00    +0.000 A 
ATOM      6  C   UNL     1      44.939   8.766  11.914  0.00  0.00    +0.000 A 
ATOM      7  C   UNL     1      44.546   7.528  11.406  0.00  0.00    +0.000 A 
ATOM      8  C   UNL     1      45.446   6.454  11.330  0.00  0.00    +0.000 A 
ATOM      9  C   UNL     1      46.742   6.667  11.836  0.00  0.00    +0.000 A 
BRANCH   8  10
ATOM     10  C   UNL     1      45.104   5.189  10.636  0.00  0.00    +0.000 A 
ATOM     11  C   UNL     1      45.545   4.965   9.314  0.00  0.00    +0.000 A 
ATOM     12  C   UNL     1      45.334   3.742   8.672  0.00  0.00    +0.000 A 
ATOM     13  C   UNL     1      44.684   2.719   9.347  0.00  0.00    +0.000 A 
ATOM     14  F   UNL     1      44.511   1.536   8.741  0.00  0.00    +0.000 F 
ATOM     15  C   UNL     1      44.222   2.900  10.640  0.00  0.00    +0.000 A 
ATOM     16  C   UNL     1      44.426   4.128  11.267  0.00  0.00    +0.000 A 
ATOM     17  F   UNL     1      43.964   4.262  12.521  0.00  0.00    +0.000 F 
ENDBRANCH   8  10
ENDBRANCH   1   4
BRANCH   1  18
ATOM     18  N   UNL     1      49.292   7.008  13.369  0.00  0.00    +0.000 N 
ATOM     19  H   UNL     1      49.415   6.147  12.838  0.00  0.00    +0.000 HD
BRANCH  18  23
ATOM     20  C   UNL     1      48.337   5.866  17.198  0.00  0.00    +0.000 A 
ATOM     21  C   UNL     1      47.958   5.116  16.096  0.00  0.00    +0.000 A 
ATOM     22  N   UNL     1      48.262   5.487  14.821  0.00  0.00    +0.000 NA
ATOM     23  C   UNL     1      48.959   6.637  14.678  0.00  0.00    +0.000 A 
ATOM     24  C   UNL     1      49.348   7.364  15.807  0.00  0.00    +0.000 A 
ATOM     25  N   UNL     1      49.049   7.017  17.084  0.00  0.00    +0.000 NA
BRANCH  20  27
ATOM     26  N   UNL     1      46.624   5.525  18.862  0.00  0.00    +0.000 N 
ATOM     27  C   UNL     1      47.959   5.449  18.573  0.00  0.00    +0.000 C 
ATOM     28  O   UNL     1      48.783   5.060  19.390  0.00  0.00    +0.000 OA
ATOM     29  H   UNL     1      46.289   5.244  19.774  0.00  0.00    +0.000 HD
ATOM     30  H   UNL     1      45.974   5.849  18.156  0.00  0.00    +0.000 HD
ENDBRANCH  20  27
ENDBRANCH  18  23
ENDBRANCH   1  18
TORSDOF 5
ENDMDL
MODEL 6
REMARK VINA RESULT:    -7.067      4.359      7.113
REMARK INTER + INTRA:         -10.157
REMARK INTER:                  -9.485
REMARK INTRA:                  -0.672
REMARK UNBOUND:                -1.024
REMARK  Name = 
REMARK  5 active torsions:
REMARK  status: ('A' for Active; 'I' for Inactive)
REMARK    1  A    between atoms: C_2  and  C_4
REMARK    2  A    between atoms: C_7  and  N_8
REMARK    3  A    between atoms: N_8  and  C_9
REMARK    4  A    between atoms: C_9  and  C_10
REMARK    5  A    between atoms: C_14  and  C_15
REMARK                            x       y       z     vdW  Elec       q    Type
REMARK                         _______ _______ _______ _____ _____    ______ ____
ROOT
ATOM      1  C   UNL     1      44.049   5.677  11.615  0.00  0.00    +0.000 C 
ATOM      2  C   UNL     1      42.690   6.357  11.477  0.00  0.00    +0.000 C 
ATOM      3  C   UNL     1      43.118   5.842  12.806  0.00  0.00    +0.000 C 
ENDROOT
BRANCH   1   4
ATOM      4  C   UNL     1      44.192   4.268  11.040  0.00  0.00    +0.000 A 
ATOM      5  C   UNL     1      43.413   3.198  11.501  0.00  0.00    +0.000 A 
ATOM      6  C   UNL     1      43.484   1.942  10.900  0.00  0.00    +0.000 A 
ATOM      7  C   UNL     1      44.321   1.738   9.802  0.00  0.00    +0.000 A 
ATOM      8  C   UNL     1      45.113   2.777   9.289  0.00  0.00    +0.000 A 
ATOM      9  C   UNL     1      45.064   4.012   9.963  0.00  0.00    +0.000 A 
BRANCH   8  10
ATOM     10  C   UNL     1      45.872   2.635   8.024  0.00  0.00    +0.000 A 
ATOM     11  C   UNL     1      46.085   3.759   7.196  0.00  0.00    +0.000 A 
ATOM     12  C   UNL     1      46.888   3.682   6.055  0.00  0.00    +0.000 A 
ATOM     13  C   UNL     1      47.498   2.480   5.727  0.00  0.00    +0.000 A 
ATOM     14  F   UNL     1      48.292   2.416   4.650  0.00  0.00    +0.000 F 
ATOM     15  C   UNL     1      47.305   1.349   6.504  0.00  0.00    +0.000 A 
ATOM     16  C   UNL     1      46.492   1.432   7.633  0.00  0.00    +0.000 A 
ATOM     17  F   UNL     1      46.331   0.314   8.359  0.00  0.00    +0.000 F 
ENDBRANCH   8  10
ENDBRANCH   1   4
BRANCH   1  18
ATOM     18  N   UNL     1      45.227   6.541  11.421  0.00  0.00    +0.000 N 
ATOM     19  H   UNL     1      45.644   6.553  10.491  0.00  0.00    +0.000 HD
BRANCH  18  23
ATOM     20  C   UNL     1      48.280   6.785  14.158  0.00  0.00    +0.000 A 
ATOM     21  C   UNL     1      47.644   7.916  13.672  0.00  0.00    +0.000 A 
ATOM     22  N   UNL     1      46.635   7.849  12.758  0.00  0.00    +0.000 NA
ATOM     23  C   UNL     1      46.279   6.612  12.342  0.00  0.00    +0.000 A 
ATOM     24  C   UNL     1      46.922   5.487  12.865  0.00  0.00    +0.000 A 
ATOM     25  N   UNL     1      47.934   5.531  13.769  0.00  0.00    +0.000 NA
BRANCH  20  27
ATOM     26  N   UNL     1      50.244   7.954  14.930  0.00  0.00    +0.000 N 
ATOM     27  C   UNL     1      49.399   6.897  15.130  0.00  0.00    +0.000 C 
ATOM     28  O   UNL     1      49.553   6.102  16.047  0.00  0.00    +0.000 OA
ATOM     29  H   UNL     1      51.021   8.103  15.559  0.00  0.00    +0.000 HD
ATOM     30  H   UNL     1      50.079   8.591  14.160  0.00  0.00    +0.000 HD
ENDBRANCH  20  27
ENDBRANCH  18  23
ENDBRANCH   1  18
TORSDOF 5
ENDMDL
MODEL 7
REMARK VINA RESULT:    -6.929      4.355      6.433
REMARK INTER + INTRA:          -9.979
REMARK INTER:                  -8.977
REMARK INTRA:                  -1.001
REMARK UNBOUND:                -1.024
REMARK  Name = 
REMARK  5 active torsions:
REMARK  status: ('A' for Active; 'I' for Inactive)
REMARK    1  A    between atoms: C_2  and  C_4
REMARK    2  A    between atoms: C_7  and  N_8
REMARK    3  A    between atoms: N_8  and  C_9
REMARK    4  A    between atoms: C_9  and  C_10
REMARK    5  A    between atoms: C_14  and  C_15
REMARK                            x       y       z     vdW  Elec       q    Type
REMARK                         _______ _______ _______ _____ _____    ______ ____
ROOT
ATOM      1  C   UNL     1      47.582   7.861  13.259  0.00  0.00    +0.000 C 
ATOM      2  C   UNL     1      48.114   8.943  12.323  0.00  0.00    +0.000 C 
ATOM      3  C   UNL     1      48.503   7.525  12.097  0.00  0.00    +0.000 C 
ENDROOT
BRANCH   1   4
ATOM      4  C   UNL     1      48.184   7.787  14.662  0.00  0.00    +0.000 A 
ATOM      5  C   UNL     1      48.066   8.844  15.575  0.00  0.00    +0.000 A 
ATOM      6  C   UNL     1      48.533   8.724  16.883  0.00  0.00    +0.000 A 
ATOM      7  C   UNL     1      49.106   7.527  17.313  0.00  0.00    +0.000 A 
ATOM      8  C   UNL     1      49.238   6.431  16.447  0.00  0.00    +0.000 A 
ATOM      9  C   UNL     1      48.815   6.612  15.116  0.00  0.00    +0.000 A 
BRANCH   8  10
ATOM     10  C   UNL     1      49.678   5.099  16.926  0.00  0.00    +0.000 A 
ATOM     11  C   UNL     1      48.778   4.012  16.924  0.00  0.00    +0.000 A 
ATOM     12  C   UNL     1      49.192   2.722  17.264  0.00  0.00    +0.000 A 
ATOM     13  C   UNL     1      50.518   2.496  17.605  0.00  0.00    +0.000 A 
ATOM     14  F   UNL     1      50.920   1.252  17.900  0.00  0.00    +0.000 F 
ATOM     15  C   UNL     1      51.432   3.536  17.633  0.00  0.00    +0.000 A 
ATOM     16  C   UNL     1      51.007   4.822  17.304  0.00  0.00    +0.000 A 
ATOM     17  F   UNL     1      51.924   5.802  17.343  0.00  0.00    +0.000 F 
ENDBRANCH   8  10
ENDBRANCH   1   4
BRANCH   1  18
ATOM     18  N   UNL     1      46.130   7.612  13.201  0.00  0.00    +0.000 N 
ATOM     19  H   UNL     1      45.583   7.875  14.019  0.00  0.00    +0.000 HD
BRANCH  18  23
ATOM     20  C   UNL     1      44.553   4.130  11.698  0.00  0.00    +0.000 A 
ATOM     21  C   UNL     1      44.583   5.298  10.954  0.00  0.00    +0.000 A 
ATOM     22  N   UNL     1      45.097   6.461  11.443  0.00  0.00    +0.000 NA
ATOM     23  C   UNL     1      45.581   6.423  12.706  0.00  0.00    +0.000 A 
ATOM     24  C   UNL     1      45.558   5.226  13.427  0.00  0.00    +0.000 A 
ATOM     25  N   UNL     1      45.044   4.060  12.962  0.00  0.00    +0.000 NA
BRANCH  20  27
ATOM     26  N   UNL     1      44.598   2.362  10.058  0.00  0.00    +0.000 N 
ATOM     27  C   UNL     1      43.954   2.887  11.145  0.00  0.00    +0.000 C 
ATOM     28  O   UNL     1      42.959   2.366  11.630  0.00  0.00    +0.000 OA
ATOM     29  H   UNL     1      44.258   1.508   9.635  0.00  0.00    +0.000 HD
ATOM     30  H   UNL     1      45.421   2.822   9.689  0.00  0.00    +0.000 HD
ENDBRANCH  20  27
ENDBRANCH  18  23
ENDBRANCH   1  18
TORSDOF 5
ENDMDL
MODEL 8
REMARK VINA RESULT:    -6.632      4.253      6.906
REMARK INTER + INTRA:          -9.594
REMARK INTER:                  -8.485
REMARK INTRA:                  -1.109
REMARK UNBOUND:                -1.024
REMARK  Name = 
REMARK  5 active torsions:
REMARK  status: ('A' for Active; 'I' for Inactive)
REMARK    1  A    between atoms: C_2  and  C_4
REMARK    2  A    between atoms: C_7  and  N_8
REMARK    3  A    between atoms: N_8  and  C_9
REMARK    4  A    between atoms: C_9  and  C_10
REMARK    5  A    between atoms: C_14  and  C_15
REMARK                            x       y       z     vdW  Elec       q    Type
REMARK                         _______ _______ _______ _____ _____    ______ ____
ROOT
ATOM      1  C   UNL     1      46.393   5.163  13.843  0.00  0.00    +0.000 C 
ATOM      2  C   UNL     1      46.257   4.353  15.129  0.00  0.00    +0.000 C 
ATOM      3  C   UNL     1      47.318   3.995  14.148  0.00  0.00    +0.000 C 
ENDROOT
BRANCH   1   4
ATOM      4  C   UNL     1      45.338   4.944  12.759  0.00  0.00    +0.000 A 
ATOM      5  C   UNL     1      44.037   5.452  12.880  0.00  0.00    +0.000 A 
ATOM      6  C   UNL     1      43.115   5.331  11.841  0.00  0.00    +0.000 A 
ATOM      7  C   UNL     1      43.488   4.718  10.644  0.00  0.00    +0.000 A 
ATOM      8  C   UNL     1      44.781   4.203  10.463  0.00  0.00    +0.000 A 
ATOM      9  C   UNL     1      45.663   4.285  11.556  0.00  0.00    +0.000 A 
BRANCH   8  10
ATOM     10  C   UNL     1      45.252   3.709   9.147  0.00  0.00    +0.000 A 
ATOM     11  C   UNL     1      45.945   4.574   8.273  0.00  0.00    +0.000 A 
ATOM     12  C   UNL     1      46.498   4.111   7.076  0.00  0.00    +0.000 A 
ATOM     13  C   UNL     1      46.372   2.772   6.737  0.00  0.00    +0.000 A 
ATOM     14  F   UNL     1      46.930   2.324   5.604  0.00  0.00    +0.000 F 
ATOM     15  C   UNL     1      45.688   1.891   7.558  0.00  0.00    +0.000 A 
ATOM     16  C   UNL     1      45.129   2.365   8.744  0.00  0.00    +0.000 A 
ATOM     17  F   UNL     1      44.475   1.479   9.512  0.00  0.00    +0.000 F 
ENDBRANCH   8  10
ENDBRANCH   1   4
BRANCH   1  18
ATOM     18  N   UNL     1      46.827   6.563  14.003  0.00  0.00    +0.000 N 
ATOM     19  H   UNL     1      46.109   7.281  13.923  0.00  0.00    +0.000 HD
BRANCH  18  23
ATOM     20  C   UNL     1      50.257   8.018  12.275  0.00  0.00    +0.000 A 
ATOM     21  C   UNL     1      50.182   7.745  13.631  0.00  0.00    +0.000 A 
ATOM     22  N   UNL     1      49.049   7.269  14.218  0.00  0.00    +0.000 NA
ATOM     23  C   UNL     1      47.985   7.074  13.405  0.00  0.00    +0.000 A 
ATOM     24  C   UNL     1      48.094   7.337  12.036  0.00  0.00    +0.000 A 
ATOM     25  N   UNL     1      49.210   7.818  11.434  0.00  0.00    +0.000 NA
BRANCH  20  27
ATOM     26  N   UNL     1      52.667   8.128  12.237  0.00  0.00    +0.000 N 
ATOM     27  C   UNL     1      51.500   8.568  11.674  0.00  0.00    +0.000 C 
ATOM     28  O   UNL     1      51.483   9.355  10.737  0.00  0.00    +0.000 OA
ATOM     29  H   UNL     1      53.554   8.448  11.872  0.00  0.00    +0.000 HD
ATOM     30  H   UNL     1      52.637   7.474  13.009  0.00  0.00    +0.000 HD
ENDBRANCH  20  27
ENDBRANCH  18  23
ENDBRANCH   1  18
TORSDOF 5
ENDMDL
MODEL 9
REMARK VINA RESULT:    -6.527      4.297      6.396
REMARK INTER + INTRA:          -9.459
REMARK INTER:                  -8.743
REMARK INTRA:                  -0.716
REMARK UNBOUND:                -1.024
REMARK  Name = 
REMARK  5 active torsions:
REMARK  status: ('A' for Active; 'I' for Inactive)
REMARK    1  A    between atoms: C_2  and  C_4
REMARK    2  A    between atoms: C_7  and  N_8
REMARK    3  A    between atoms: N_8  and  C_9
REMARK    4  A    between atoms: C_9  and  C_10
REMARK    5  A    between atoms: C_14  and  C_15
REMARK                            x       y       z     vdW  Elec       q    Type
REMARK                         _______ _______ _______ _____ _____    ______ ____
ROOT
ATOM      1  C   UNL     1      47.842   7.657  12.968  0.00  0.00    +0.000 C 
ATOM      2  C   UNL     1      47.901   8.980  12.210  0.00  0.00    +0.000 C 
ATOM      3  C   UNL     1      48.261   7.718  11.507  0.00  0.00    +0.000 C 
ENDROOT
BRANCH   1   4
ATOM      4  C   UNL     1      48.943   7.382  13.992  0.00  0.00    +0.000 A 
ATOM      5  C   UNL     1      50.222   7.945  13.871  0.00  0.00    +0.000 A 
ATOM      6  C   UNL     1      51.185   7.767  14.864  0.00  0.00    +0.000 A 
ATOM      7  C   UNL     1      50.877   7.040  16.014  0.00  0.00    +0.000 A 
ATOM      8  C   UNL     1      49.609   6.466  16.194  0.00  0.00    +0.000 A 
ATOM      9  C   UNL     1      48.685   6.611  15.143  0.00  0.00    +0.000 A 
BRANCH   8  10
ATOM     10  C   UNL     1      49.203   5.844  17.477  0.00  0.00    +0.000 A 
ATOM     11  C   UNL     1      49.214   4.440  17.618  0.00  0.00    +0.000 A 
ATOM     12  C   UNL     1      48.944   3.828  18.845  0.00  0.00    +0.000 A 
ATOM     13  C   UNL     1      48.667   4.614  19.955  0.00  0.00    +0.000 A 
ATOM     14  F   UNL     1      48.439   4.026  21.138  0.00  0.00    +0.000 F 
ATOM     15  C   UNL     1      48.633   5.995  19.858  0.00  0.00    +0.000 A 
ATOM     16  C   UNL     1      48.891   6.595  18.627  0.00  0.00    +0.000 A 
ATOM     17  F   UNL     1      48.848   7.936  18.577  0.00  0.00    +0.000 F 
ENDBRANCH   8  10
ENDBRANCH   1   4
BRANCH   1  18
ATOM     18  N   UNL     1      46.499   7.205  13.376  0.00  0.00    +0.000 N 
ATOM     19  H   UNL     1      46.292   7.212  14.374  0.00  0.00    +0.000 HD
BRANCH  18  23
ATOM     20  C   UNL     1      44.710   3.887  11.744  0.00  0.00    +0.000 A 
ATOM     21  C   UNL     1      44.525   5.152  11.211  0.00  0.00    +0.000 A 
ATOM     22  N   UNL     1      45.107   6.261  11.747  0.00  0.00    +0.000 NA
ATOM     23  C   UNL     1      45.883   6.068  12.838  0.00  0.00    +0.000 A 
ATOM     24  C   UNL     1      46.070   4.778  13.343  0.00  0.00    +0.000 A 
ATOM     25  N   UNL     1      45.494   3.662  12.830  0.00  0.00    +0.000 NA
BRANCH  20  27
ATOM     26  N   UNL     1      44.620   2.195  10.026  0.00  0.00    +0.000 N 
ATOM     27  C   UNL     1      44.034   2.702  11.153  0.00  0.00    +0.000 C 
ATOM     28  O   UNL     1      43.026   2.212  11.642  0.00  0.00    +0.000 OA
ATOM     29  H   UNL     1      44.225   1.381   9.575  0.00  0.00    +0.000 HD
ATOM     30  H   UNL     1      45.456   2.630   9.655  0.00  0.00    +0.000 HD
ENDBRANCH  20  27
ENDBRANCH  18  23
ENDBRANCH   1  18
TORSDOF 5
ENDMDL
