MODEL 1
REMARK VINA RESULT:    -9.651      0.000      0.000
REMARK INTER + INTRA:         -13.791
REMARK INTER:                 -13.037
REMARK INTRA:                  -0.755
REMARK UNBOUND:                -0.755
REMARK  Name = 
REMARK  6 active torsions:
REMARK  status: ('A' for Active; 'I' for Inactive)
REMARK    1  A    between atoms: C_2  and  C_4
REMARK    2  A    between atoms: N_8  and  C_9
REMARK    3  A    between atoms: C_9  and  C_10
REMARK    4  A    between atoms: C_10  and  C_13
REMARK    5  A    between atoms: C_17  and  N_18
REMARK    6  A    between atoms: N_18  and  C_19
REMARK                            x       y       z     vdW  Elec       q    Type
REMARK                         _______ _______ _______ _____ _____    ______ ____
ROOT
ATOM      1  C   UNL     1      43.281   5.542  12.167  0.00  0.00    +0.000 C 
ATOM      2  F   UNL     1      42.758   6.734  11.750  0.00  0.00    +0.000 F 
ATOM      3  F   UNL     1      42.453   5.121  13.170  0.00  0.00    +0.000 F 
ENDROOT
BRANCH   1   4
ATOM      4  C   UNL     1      44.716   5.689  12.638  0.00  0.00    +0.000 A 
ATOM      5  C   UNL     1      45.506   6.762  12.209  0.00  0.00    +0.000 A 
ATOM      6  C   UNL     1      46.835   6.866  12.624  0.00  0.00    +0.000 A 
ATOM      7  C   UNL     1      47.391   5.893  13.460  0.00  0.00    +0.000 A 
ATOM      8  C   UNL     1      46.619   4.820  13.908  0.00  0.00    +0.000 A 
ATOM      9  C   UNL     1      45.285   4.727  13.489  0.00  0.00    +0.000 A 
BRANCH   8  10
ATOM     10  N   UNL     1      47.122   3.792  14.734  0.00  0.00    +0.000 N 
ATOM     11  H   UNL     1      46.830   2.885  14.368  0.00  0.00    +0.000 HD
BRANCH  10  12
ATOM     12  C   UNL     1      47.260   3.824  16.158  0.00  0.00    +0.000 C 
ATOM     13  C   UNL     1      48.259   4.901  16.621  0.00  0.00    +0.000 C 
ATOM     14  C   UNL     1      48.988   3.830  17.451  0.00  0.00    +0.000 C 
ATOM     15  F   UNL     1      50.337   3.820  17.333  0.00  0.00    +0.000 F 
ATOM     16  F   UNL     1      48.716   3.843  18.776  0.00  0.00    +0.000 F 
ATOM     17  C   UNL     1      48.251   2.749  16.642  0.00  0.00    +0.000 C 
ENDBRANCH  10  12
ENDBRANCH   8  10
ENDBRANCH   1   4
BRANCH   1  18
ATOM     18  C   UNL     1      43.198   4.530  10.999  0.00  0.00    +0.000 C 
BRANCH  18  23
ATOM     19  C   UNL     1      46.397   2.269   7.660  0.00  0.00    +0.000 A 
ATOM     20  C   UNL     1      45.706   1.760   8.756  0.00  0.00    +0.000 A 
ATOM     21  C   UNL     1      44.911   2.617   9.512  0.00  0.00    +0.000 A 
ATOM     22  C   UNL     1      44.821   3.968   9.174  0.00  0.00    +0.000 A 
ATOM     23  N   UNL     1      44.059   4.863   9.868  0.00  0.00    +0.000 N 
ATOM     24  N   UNL     1      45.500   4.470   8.128  0.00  0.00    +0.000 NA
ATOM     25  C   UNL     1      46.277   3.623   7.398  0.00  0.00    +0.000 A 
ATOM     26  H   UNL     1      44.083   5.813   9.510  0.00  0.00    +0.000 HD
BRANCH  19  28
ATOM     27  N   UNL     1      48.304   2.049   6.174  0.00  0.00    +0.000 N 
ATOM     28  C   UNL     1      47.253   1.434   6.796  0.00  0.00    +0.000 C 
ATOM     29  O   UNL     1      47.057   0.234   6.669  0.00  0.00    +0.000 OA
ATOM     30  H   UNL     1      48.944   1.445   5.673  0.00  0.00    +0.000 HD
ATOM     31  H   UNL     1      48.646   2.958   6.454  0.00  0.00    +0.000 HD
ENDBRANCH  19  28
ENDBRANCH  18  23
ENDBRANCH   1  18
TORSDOF 6
ENDMDL
MODEL 2
REMARK VINA RESULT:    -8.896      3.036      5.294
REMARK INTER + INTRA:         -12.771
REMARK INTER:                 -12.109
REMARK INTRA:                  -0.662
REMARK UNBOUND:                -0.755
REMARK  Name = 
REMARK  6 active torsions:
REMARK  status: ('A' for Active; 'I' for Inactive)
REMARK    1  A    between atoms: C_2  and  C_4
REMARK    2  A    between atoms: N_8  and  C_9
REMARK    3  A    between atoms: C_9  and  C_10
REMARK    4  A    between atoms: C_10  and  C_13
REMARK    5  A    between atoms: C_17  and  N_18
REMARK    6  A    between atoms: N_18  and  C_19
REMARK                            x       y       z     vdW  Elec       q    Type
REMARK                         _______ _______ _______ _____ _____    ______ ____
ROOT
ATOM      1  C   UNL     1      43.735   4.651  12.415  0.00  0.00    +0.000 C 
ATOM      2  F   UNL     1      42.738   4.947  13.303  0.00  0.00    +0.000 F 
ATOM      3  F   UNL     1      44.065   3.349  12.670  0.00  0.00    +0.000 F 
ENDROOT
BRANCH   1   4
ATOM      4  C   UNL     1      44.924   5.581  12.571  0.00  0.00    +0.000 A 
ATOM      5  C   UNL     1      46.217   5.070  12.737  0.00  0.00    +0.000 A 
ATOM      6  C   UNL     1      47.297   5.937  12.913  0.00  0.00    +0.000 A 
ATOM      7  C   UNL     1      47.094   7.320  12.938  0.00  0.00    +0.000 A 
ATOM      8  C   UNL     1      45.816   7.852  12.765  0.00  0.00    +0.000 A 
ATOM      9  C   UNL     1      44.739   6.973  12.585  0.00  0.00    +0.000 A 
BRANCH   8  10
ATOM     10  N   UNL     1      45.537   9.234  12.801  0.00  0.00    +0.000 N 
ATOM     11  H   UNL     1      45.848   9.623  13.692  0.00  0.00    +0.000 HD
BRANCH  10  12
ATOM     12  C   UNL     1      44.394   9.896  12.249  0.00  0.00    +0.000 C 
ATOM     13  C   UNL     1      44.102   9.442  10.807  0.00  0.00    +0.000 C 
ATOM     14  C   UNL     1      44.071  10.919  10.376  0.00  0.00    +0.000 C 
ATOM     15  F   UNL     1      44.767  11.213   9.253  0.00  0.00    +0.000 F 
ATOM     16  F   UNL     1      42.836  11.447  10.214  0.00  0.00    +0.000 F 
ATOM     17  C   UNL     1      44.770  11.283  11.697  0.00  0.00    +0.000 C 
ENDBRANCH  10  12
ENDBRANCH   8  10
ENDBRANCH   1   4
BRANCH   1  18
ATOM     18  C   UNL     1      43.162   4.744  10.979  0.00  0.00    +0.000 C 
BRANCH  18  23
ATOM     19  C   UNL     1      46.444   2.526   7.692  0.00  0.00    +0.000 A 
ATOM     20  C   UNL     1      45.608   1.980   8.661  0.00  0.00    +0.000 A 
ATOM     21  C   UNL     1      44.826   2.831   9.439  0.00  0.00    +0.000 A 
ATOM     22  C   UNL     1      44.894   4.211   9.248  0.00  0.00    +0.000 A 
ATOM     23  N   UNL     1      44.155   5.103   9.971  0.00  0.00    +0.000 N 
ATOM     24  N   UNL     1      45.714   4.747   8.327  0.00  0.00    +0.000 NA
ATOM     25  C   UNL     1      46.476   3.905   7.576  0.00  0.00    +0.000 A 
ATOM     26  H   UNL     1      44.301   6.077   9.726  0.00  0.00    +0.000 HD
BRANCH  19  28
ATOM     27  N   UNL     1      48.345   2.327   6.195  0.00  0.00    +0.000 N 
ATOM     28  C   UNL     1      47.298   1.702   6.816  0.00  0.00    +0.000 C 
ATOM     29  O   UNL     1      47.105   0.502   6.678  0.00  0.00    +0.000 OA
ATOM     30  H   UNL     1      48.984   1.729   5.685  0.00  0.00    +0.000 HD
ATOM     31  H   UNL     1      48.685   3.234   6.482  0.00  0.00    +0.000 HD
ENDBRANCH  19  28
ENDBRANCH  18  23
ENDBRANCH   1  18
TORSDOF 6
ENDMDL
MODEL 3
REMARK VINA RESULT:    -8.807      3.081      3.933
REMARK INTER + INTRA:         -12.651
REMARK INTER:                 -11.590
REMARK INTRA:                  -1.061
REMARK UNBOUND:                -0.755
REMARK  Name = 
REMARK  6 active torsions:
REMARK  status: ('A' for Active; 'I' for Inactive)
REMARK    1  A    between atoms: C_2  and  C_4
REMARK    2  A    between atoms: N_8  and  C_9
REMARK    3  A    between atoms: C_9  and  C_10
REMARK    4  A    between atoms: C_10  and  C_13
REMARK    5  A    between atoms: C_17  and  N_18
REMARK    6  A    between atoms: N_18  and  C_19
REMARK                            x       y       z     vdW  Elec       q    Type
REMARK                         _______ _______ _______ _____ _____    ______ ____
ROOT
ATOM      1  C   UNL     1      44.117   4.028  12.497  0.00  0.00    +0.000 C 
ATOM      2  F   UNL     1      43.242   3.885  13.538  0.00  0.00    +0.000 F 
ATOM      3  F   UNL     1      45.109   3.119  12.738  0.00  0.00    +0.000 F 
ENDROOT
BRANCH   1   4
ATOM      4  C   UNL     1      44.654   5.444  12.401  0.00  0.00    +0.000 A 
ATOM      5  C   UNL     1      44.091   6.367  11.512  0.00  0.00    +0.000 A 
ATOM      6  C   UNL     1      44.617   7.655  11.410  0.00  0.00    +0.000 A 
ATOM      7  C   UNL     1      45.719   8.031  12.184  0.00  0.00    +0.000 A 
ATOM      8  C   UNL     1      46.292   7.131  13.084  0.00  0.00    +0.000 A 
ATOM      9  C   UNL     1      45.753   5.840  13.182  0.00  0.00    +0.000 A 
BRANCH   8  10
ATOM     10  N   UNL     1      47.417   7.435  13.879  0.00  0.00    +0.000 N 
ATOM     11  H   UNL     1      47.146   8.075  14.626  0.00  0.00    +0.000 HD
BRANCH  10  12
ATOM     12  C   UNL     1      48.765   7.610  13.429  0.00  0.00    +0.000 C 
ATOM     13  C   UNL     1      49.139   9.096  13.283  0.00  0.00    +0.000 C 
ATOM     14  C   UNL     1      49.627   8.806  11.853  0.00  0.00    +0.000 C 
ATOM     15  F   UNL     1      49.212   9.681  10.907  0.00  0.00    +0.000 F 
ATOM     16  F   UNL     1      50.968   8.693  11.712  0.00  0.00    +0.000 F 
ATOM     17  C   UNL     1      48.860   7.473  11.898  0.00  0.00    +0.000 C 
ENDBRANCH  10  12
ENDBRANCH   8  10
ENDBRANCH   1   4
BRANCH   1  18
ATOM     18  C   UNL     1      43.394   3.636  11.186  0.00  0.00    +0.000 C 
BRANCH  18  23
ATOM     19  C   UNL     1      46.604   2.491   7.329  0.00  0.00    +0.000 A 
ATOM     20  C   UNL     1      46.102   3.711   7.772  0.00  0.00    +0.000 A 
ATOM     21  C   UNL     1      45.216   3.728   8.846  0.00  0.00    +0.000 A 
ATOM     22  C   UNL     1      44.836   2.533   9.458  0.00  0.00    +0.000 A 
ATOM     23  N   UNL     1      43.975   2.476  10.516  0.00  0.00    +0.000 N 
ATOM     24  N   UNL     1      45.303   1.350   9.023  0.00  0.00    +0.000 NA
ATOM     25  C   UNL     1      46.165   1.345   7.970  0.00  0.00    +0.000 A 
ATOM     26  H   UNL     1      43.789   1.541  10.865  0.00  0.00    +0.000 HD
BRANCH  19  28
ATOM     27  N   UNL     1      47.454   3.305   5.205  0.00  0.00    +0.000 N 
ATOM     28  C   UNL     1      47.555   2.378   6.206  0.00  0.00    +0.000 C 
ATOM     29  O   UNL     1      48.422   1.516   6.186  0.00  0.00    +0.000 OA
ATOM     30  H   UNL     1      48.179   3.281   4.498  0.00  0.00    +0.000 HD
ATOM     31  H   UNL     1      46.936   4.166   5.312  0.00  0.00    +0.000 HD
ENDBRANCH  19  28
ENDBRANCH  18  23
ENDBRANCH   1  18
TORSDOF 6
ENDMDL
MODEL 4
REMARK VINA RESULT:    -8.799      2.720      3.727
REMARK INTER + INTRA:         -12.641
REMARK INTER:                 -11.432
REMARK INTRA:                  -1.208
REMARK UNBOUND:                -0.755
REMARK  Name = 
REMARK  6 active torsions:
REMARK  status: ('A' for Active; 'I' for Inactive)
REMARK    1  A    between atoms: C_2  and  C_4
REMARK    2  A    between atoms: N_8  and  C_9
REMARK    3  A    between atoms: C_9  and  C_10
REMARK    4  A    between atoms: C_10  and  C_13
REMARK    5  A    between atoms: C_17  and  N_18
REMARK    6  A    between atoms: N_18  and  C_19
REMARK                            x       y       z     vdW  Elec       q    Type
REMARK                         _______ _______ _______ _____ _____    ______ ____
ROOT
ATOM      1  C   UNL     1      43.375   5.260  12.230  0.00  0.00    +0.000 C 
ATOM      2  F   UNL     1      43.061   6.576  12.033  0.00  0.00    +0.000 F 
ATOM      3  F   UNL     1      42.486   4.817  13.169  0.00  0.00    +0.000 F 
ENDROOT
BRANCH   1   4
ATOM      4  C   UNL     1      44.813   5.083  12.680  0.00  0.00    +0.000 A 
ATOM      5  C   UNL     1      45.307   3.819  13.025  0.00  0.00    +0.000 A 
ATOM      6  C   UNL     1      46.622   3.676  13.470  0.00  0.00    +0.000 A 
ATOM      7  C   UNL     1      47.453   4.795  13.587  0.00  0.00    +0.000 A 
ATOM      8  C   UNL     1      46.985   6.063  13.239  0.00  0.00    +0.000 A 
ATOM      9  C   UNL     1      45.664   6.195  12.790  0.00  0.00    +0.000 A 
BRANCH   8  10
ATOM     10  N   UNL     1      47.760   7.236  13.354  0.00  0.00    +0.000 N 
ATOM     11  H   UNL     1      47.163   8.055  13.237  0.00  0.00    +0.000 HD
BRANCH  10  12
ATOM     12  C   UNL     1      49.102   7.429  12.892  0.00  0.00    +0.000 C 
ATOM     13  C   UNL     1      49.646   8.823  13.257  0.00  0.00    +0.000 C 
ATOM     14  C   UNL     1      50.040   9.026  11.784  0.00  0.00    +0.000 C 
ATOM     15  F   UNL     1      49.698  10.221  11.249  0.00  0.00    +0.000 F 
ATOM     16  F   UNL     1      51.352   8.841  11.507  0.00  0.00    +0.000 F 
ATOM     17  C   UNL     1      49.121   7.851  11.411  0.00  0.00    +0.000 C 
ENDBRANCH  10  12
ENDBRANCH   8  10
ENDBRANCH   1   4
BRANCH   1  18
ATOM     18  C   UNL     1      43.124   4.489  10.910  0.00  0.00    +0.000 C 
BRANCH  18  23
ATOM     19  C   UNL     1      46.494   2.418   7.616  0.00  0.00    +0.000 A 
ATOM     20  C   UNL     1      45.780   1.857   8.672  0.00  0.00    +0.000 A 
ATOM     21  C   UNL     1      44.937   2.670   9.426  0.00  0.00    +0.000 A 
ATOM     22  C   UNL     1      44.823   4.027   9.126  0.00  0.00    +0.000 A 
ATOM     23  N   UNL     1      44.015   4.880   9.822  0.00  0.00    +0.000 N 
ATOM     24  N   UNL     1      45.524   4.579   8.121  0.00  0.00    +0.000 NA
ATOM     25  C   UNL     1      46.348   3.777   7.393  0.00  0.00    +0.000 A 
ATOM     26  H   UNL     1      44.026   5.841   9.494  0.00  0.00    +0.000 HD
BRANCH  19  28
ATOM     27  N   UNL     1      48.424   2.306   6.147  0.00  0.00    +0.000 N 
ATOM     28  C   UNL     1      47.400   1.633   6.758  0.00  0.00    +0.000 C 
ATOM     29  O   UNL     1      47.270   0.425   6.624  0.00  0.00    +0.000 OA
ATOM     30  H   UNL     1      49.099   1.738   5.650  0.00  0.00    +0.000 HD
ATOM     31  H   UNL     1      48.714   3.230   6.434  0.00  0.00    +0.000 HD
ENDBRANCH  19  28
ENDBRANCH  18  23
ENDBRANCH   1  18
TORSDOF 6
ENDMDL
MODEL 5
REMARK VINA RESULT:    -8.656      1.659      2.118
REMARK INTER + INTRA:         -12.447
REMARK INTER:                 -11.478
REMARK INTRA:                  -0.969
REMARK UNBOUND:                -0.755
REMARK  Name = 
REMARK  6 active torsions:
REMARK  status: ('A' for Active; 'I' for Inactive)
REMARK    1  A    between atoms: C_2  and  C_4
REMARK    2  A    between atoms: N_8  and  C_9
REMARK    3  A    between atoms: C_9  and  C_10
REMARK    4  A    between atoms: C_10  and  C_13
REMARK    5  A    between atoms: C_17  and  N_18
REMARK    6  A    between atoms: N_18  and  C_19
REMARK                            x       y       z     vdW  Elec       q    Type
REMARK                         _______ _______ _______ _____ _____    ______ ____
ROOT
ATOM      1  C   UNL     1      43.775   5.055  12.515  0.00  0.00    +0.000 C 
ATOM      2  F   UNL     1      42.673   5.465  13.213  0.00  0.00    +0.000 F 
ATOM      3  F   UNL     1      44.166   3.891  13.118  0.00  0.00    +0.000 F 
ENDROOT
BRANCH   1   4
ATOM      4  C   UNL     1      44.875   6.100  12.531  0.00  0.00    +0.000 A 
ATOM      5  C   UNL     1      44.742   7.292  11.809  0.00  0.00    +0.000 A 
ATOM      6  C   UNL     1      45.776   8.229  11.805  0.00  0.00    +0.000 A 
ATOM      7  C   UNL     1      46.957   7.980  12.511  0.00  0.00    +0.000 A 
ATOM      8  C   UNL     1      47.108   6.803  13.245  0.00  0.00    +0.000 A 
ATOM      9  C   UNL     1      46.062   5.870  13.245  0.00  0.00    +0.000 A 
BRANCH   8  10
ATOM     10  N   UNL     1      48.279   6.478  13.960  0.00  0.00    +0.000 N 
ATOM     11  H   UNL     1      48.522   5.500  13.795  0.00  0.00    +0.000 HD
BRANCH  10  12
ATOM     12  C   UNL     1      48.656   6.955  15.256  0.00  0.00    +0.000 C 
ATOM     13  C   UNL     1      50.185   7.028  15.425  0.00  0.00    +0.000 C 
ATOM     14  C   UNL     1      50.054   6.217  16.726  0.00  0.00    +0.000 C 
ATOM     15  F   UNL     1      50.927   5.192  16.864  0.00  0.00    +0.000 F 
ATOM     16  F   UNL     1      50.125   6.940  17.867  0.00  0.00    +0.000 F 
ATOM     17  C   UNL     1      48.633   5.816  16.293  0.00  0.00    +0.000 C 
ENDBRANCH  10  12
ENDBRANCH   8  10
ENDBRANCH   1   4
BRANCH   1  18
ATOM     18  C   UNL     1      43.351   4.740  11.060  0.00  0.00    +0.000 C 
BRANCH  18  23
ATOM     19  C   UNL     1      46.487   2.717   7.515  0.00  0.00    +0.000 A 
ATOM     20  C   UNL     1      46.115   4.035   7.766  0.00  0.00    +0.000 A 
ATOM     21  C   UNL     1      45.217   4.301   8.796  0.00  0.00    +0.000 A 
ATOM     22  C   UNL     1      44.694   3.253   9.554  0.00  0.00    +0.000 A 
ATOM     23  N   UNL     1      43.811   3.441  10.580  0.00  0.00    +0.000 N 
ATOM     24  N   UNL     1      45.033   1.976   9.305  0.00  0.00    +0.000 NA
ATOM     25  C   UNL     1      45.909   1.729   8.294  0.00  0.00    +0.000 A 
ATOM     26  H   UNL     1      43.514   2.591  11.048  0.00  0.00    +0.000 HD
BRANCH  19  28
ATOM     27  N   UNL     1      47.424   3.090   5.307  0.00  0.00    +0.000 N 
ATOM     28  C   UNL     1      47.440   2.343   6.454  0.00  0.00    +0.000 C 
ATOM     29  O   UNL     1      48.238   1.429   6.602  0.00  0.00    +0.000 OA
ATOM     30  H   UNL     1      48.155   2.892   4.633  0.00  0.00    +0.000 HD
ATOM     31  H   UNL     1      46.974   3.993   5.252  0.00  0.00    +0.000 HD
ENDBRANCH  19  28
ENDBRANCH  18  23
ENDBRANCH   1  18
TORSDOF 6
ENDMDL
MODEL 6
REMARK VINA RESULT:    -8.526      3.672      7.651
REMARK INTER + INTRA:         -12.271
REMARK INTER:                 -11.537
REMARK INTRA:                  -0.734
REMARK UNBOUND:                -0.755
REMARK  Name = 
REMARK  6 active torsions:
REMARK  status: ('A' for Active; 'I' for Inactive)
REMARK    1  A    between atoms: C_2  and  C_4
REMARK    2  A    between atoms: N_8  and  C_9
REMARK    3  A    between atoms: C_9  and  C_10
REMARK    4  A    between atoms: C_10  and  C_13
REMARK    5  A    between atoms: C_17  and  N_18
REMARK    6  A    between atoms: N_18  and  C_19
REMARK                            x       y       z     vdW  Elec       q    Type
REMARK                         _______ _______ _______ _____ _____    ______ ____
ROOT
ATOM      1  C   UNL     1      45.618   7.068  12.068  0.00  0.00    +0.000 C 
ATOM      2  F   UNL     1      45.364   7.785  13.204  0.00  0.00    +0.000 F 
ATOM      3  F   UNL     1      45.298   7.907  11.037  0.00  0.00    +0.000 F 
ENDROOT
BRANCH   1   4
ATOM      4  C   UNL     1      44.818   5.780  12.023  0.00  0.00    +0.000 A 
ATOM      5  C   UNL     1      43.714   5.591  12.863  0.00  0.00    +0.000 A 
ATOM      6  C   UNL     1      43.007   4.388  12.835  0.00  0.00    +0.000 A 
ATOM      7  C   UNL     1      43.404   3.357  11.977  0.00  0.00    +0.000 A 
ATOM      8  C   UNL     1      44.495   3.526  11.124  0.00  0.00    +0.000 A 
ATOM      9  C   UNL     1      45.195   4.740  11.158  0.00  0.00    +0.000 A 
BRANCH   8  10
ATOM     10  N   UNL     1      44.963   2.521  10.252  0.00  0.00    +0.000 N 
ATOM     11  H   UNL     1      45.814   2.105  10.632  0.00  0.00    +0.000 HD
BRANCH  10  12
ATOM     12  C   UNL     1      44.917   2.536   8.821  0.00  0.00    +0.000 C 
ATOM     13  C   UNL     1      46.024   1.665   8.197  0.00  0.00    +0.000 C 
ATOM     14  C   UNL     1      46.436   2.862   7.322  0.00  0.00    +0.000 C 
ATOM     15  F   UNL     1      47.765   3.114   7.270  0.00  0.00    +0.000 F 
ATOM     16  F   UNL     1      46.001   2.819   6.042  0.00  0.00    +0.000 F 
ATOM     17  C   UNL     1      45.629   3.779   8.257  0.00  0.00    +0.000 C 
ENDBRANCH  10  12
ENDBRANCH   8  10
ENDBRANCH   1   4
BRANCH   1  18
ATOM     18  C   UNL     1      47.135   6.763  12.005  0.00  0.00    +0.000 C 
BRANCH  18  23
ATOM     19  C   UNL     1      47.871   4.342  16.487  0.00  0.00    +0.000 A 
ATOM     20  C   UNL     1      47.080   4.017  15.388  0.00  0.00    +0.000 A 
ATOM     21  C   UNL     1      47.053   4.880  14.295  0.00  0.00    +0.000 A 
ATOM     22  C   UNL     1      47.804   6.055  14.314  0.00  0.00    +0.000 A 
ATOM     23  N   UNL     1      47.826   6.944  13.277  0.00  0.00    +0.000 N 
ATOM     24  N   UNL     1      48.555   6.384  15.379  0.00  0.00    +0.000 NA
ATOM     25  C   UNL     1      48.571   5.536  16.443  0.00  0.00    +0.000 A 
ATOM     26  H   UNL     1      48.418   7.756  13.424  0.00  0.00    +0.000 HD
BRANCH  19  28
ATOM     27  N   UNL     1      46.975   2.565  17.878  0.00  0.00    +0.000 N 
ATOM     28  C   UNL     1      47.970   3.483  17.682  0.00  0.00    +0.000 C 
ATOM     29  O   UNL     1      48.920   3.560  18.448  0.00  0.00    +0.000 OA
ATOM     30  H   UNL     1      47.111   1.912  18.640  0.00  0.00    +0.000 HD
ATOM     31  H   UNL     1      46.329   2.300  17.148  0.00  0.00    +0.000 HD
ENDBRANCH  19  28
ENDBRANCH  18  23
ENDBRANCH   1  18
TORSDOF 6
ENDMDL
MODEL 7
REMARK VINA RESULT:    -8.407      3.862      8.318
REMARK INTER + INTRA:         -12.111
REMARK INTER:                 -11.461
REMARK INTRA:                  -0.649
REMARK UNBOUND:                -0.755
REMARK  Name = 
REMARK  6 active torsions:
REMARK  status: ('A' for Active; 'I' for Inactive)
REMARK    1  A    between atoms: C_2  and  C_4
REMARK    2  A    between atoms: N_8  and  C_9
REMARK    3  A    between atoms: C_9  and  C_10
REMARK    4  A    between atoms: C_10  and  C_13
REMARK    5  A    between atoms: C_17  and  N_18
REMARK    6  A    between atoms: N_18  and  C_19
REMARK                            x       y       z     vdW  Elec       q    Type
REMARK                         _______ _______ _______ _____ _____    ______ ____
ROOT
ATOM      1  C   UNL     1      46.133   6.646  12.476  0.00  0.00    +0.000 C 
ATOM      2  F   UNL     1      45.683   7.562  13.387  0.00  0.00    +0.000 F 
ATOM      3  F   UNL     1      46.568   7.386  11.412  0.00  0.00    +0.000 F 
ENDROOT
BRANCH   1   4
ATOM      4  C   UNL     1      45.047   5.664  12.080  0.00  0.00    +0.000 A 
ATOM      5  C   UNL     1      43.728   5.837  12.516  0.00  0.00    +0.000 A 
ATOM      6  C   UNL     1      42.746   4.907  12.172  0.00  0.00    +0.000 A 
ATOM      7  C   UNL     1      43.073   3.789  11.399  0.00  0.00    +0.000 A 
ATOM      8  C   UNL     1      44.379   3.600  10.945  0.00  0.00    +0.000 A 
ATOM      9  C   UNL     1      45.357   4.542  11.294  0.00  0.00    +0.000 A 
BRANCH   8  10
ATOM     10  N   UNL     1      44.784   2.485  10.182  0.00  0.00    +0.000 N 
ATOM     11  H   UNL     1      45.557   2.011  10.651  0.00  0.00    +0.000 HD
BRANCH  10  12
ATOM     12  C   UNL     1      44.828   2.389   8.755  0.00  0.00    +0.000 C 
ATOM     13  C   UNL     1      46.192   1.881   8.250  0.00  0.00    +0.000 C 
ATOM     14  C   UNL     1      46.258   3.087   7.297  0.00  0.00    +0.000 C 
ATOM     15  F   UNL     1      47.439   3.749   7.276  0.00  0.00    +0.000 F 
ATOM     16  F   UNL     1      45.943   2.822   6.008  0.00  0.00    +0.000 F 
ATOM     17  C   UNL     1      45.144   3.756   8.118  0.00  0.00    +0.000 C 
ENDBRANCH  10  12
ENDBRANCH   8  10
ENDBRANCH   1   4
BRANCH   1  18
ATOM     18  C   UNL     1      47.342   5.896  13.085  0.00  0.00    +0.000 C 
BRANCH  18  23
ATOM     19  C   UNL     1      48.367   4.538  17.943  0.00  0.00    +0.000 A 
ATOM     20  C   UNL     1      48.909   5.534  17.136  0.00  0.00    +0.000 A 
ATOM     21  C   UNL     1      48.451   5.668  15.827  0.00  0.00    +0.000 A 
ATOM     22  C   UNL     1      47.469   4.806  15.339  0.00  0.00    +0.000 A 
ATOM     23  N   UNL     1      46.973   4.883  14.069  0.00  0.00    +0.000 N 
ATOM     24  N   UNL     1      46.955   3.830  16.107  0.00  0.00    +0.000 NA
ATOM     25  C   UNL     1      47.413   3.706  17.382  0.00  0.00    +0.000 A 
ATOM     26  H   UNL     1      46.259   4.195  13.848  0.00  0.00    +0.000 HD
BRANCH  19  28
ATOM     27  N   UNL     1      48.315   3.209  19.974  0.00  0.00    +0.000 N 
ATOM     28  C   UNL     1      48.783   4.329  19.343  0.00  0.00    +0.000 C 
ATOM     29  O   UNL     1      49.544   5.102  19.907  0.00  0.00    +0.000 OA
ATOM     30  H   UNL     1      48.694   3.023  20.895  0.00  0.00    +0.000 HD
ATOM     31  H   UNL     1      47.909   2.432  19.473  0.00  0.00    +0.000 HD
ENDBRANCH  19  28
ENDBRANCH  18  23
ENDBRANCH   1  18
TORSDOF 6
ENDMDL
MODEL 8
REMARK VINA RESULT:    -8.383      3.942      8.275
REMARK INTER + INTRA:         -12.078
REMARK INTER:                 -11.220
REMARK INTRA:                  -0.858
REMARK UNBOUND:                -0.755
REMARK  Name = 
REMARK  6 active torsions:
REMARK  status: ('A' for Active; 'I' for Inactive)
REMARK    1  A    between atoms: C_2  and  C_4
REMARK    2  A    between atoms: N_8  and  C_9
REMARK    3  A    between atoms: C_9  and  C_10
REMARK    4  A    between atoms: C_10  and  C_13
REMARK    5  A    between atoms: C_17  and  N_18
REMARK    6  A    between atoms: N_18  and  C_19
REMARK                            x       y       z     vdW  Elec       q    Type
REMARK                         _______ _______ _______ _____ _____    ______ ____
ROOT
ATOM      1  C   UNL     1      46.600   5.306  13.639  0.00  0.00    +0.000 C 
ATOM      2  F   UNL     1      46.670   6.668  13.734  0.00  0.00    +0.000 F 
ATOM      3  F   UNL     1      47.767   4.930  13.035  0.00  0.00    +0.000 F 
ENDROOT
BRANCH   1   4
ATOM      4  C   UNL     1      45.382   4.857  12.853  0.00  0.00    +0.000 A 
ATOM      5  C   UNL     1      44.127   5.433  13.083  0.00  0.00    +0.000 A 
ATOM      6  C   UNL     1      43.009   4.986  12.377  0.00  0.00    +0.000 A 
ATOM      7  C   UNL     1      43.131   3.951  11.445  0.00  0.00    +0.000 A 
ATOM      8  C   UNL     1      44.374   3.368  11.192  0.00  0.00    +0.000 A 
ATOM      9  C   UNL     1      45.491   3.827  11.904  0.00  0.00    +0.000 A 
BRANCH   8  10
ATOM     10  N   UNL     1      44.565   2.306  10.284  0.00  0.00    +0.000 N 
ATOM     11  H   UNL     1      45.226   1.634  10.675  0.00  0.00    +0.000 HD
BRANCH  10  12
ATOM     12  C   UNL     1      44.608   2.394   8.855  0.00  0.00    +0.000 C 
ATOM     13  C   UNL     1      45.923   1.838   8.280  0.00  0.00    +0.000 C 
ATOM     14  C   UNL     1      46.101   3.147   7.491  0.00  0.00    +0.000 C 
ATOM     15  F   UNL     1      47.335   3.699   7.549  0.00  0.00    +0.000 F 
ATOM     16  F   UNL     1      45.769   3.081   6.181  0.00  0.00    +0.000 F 
ATOM     17  C   UNL     1      45.045   3.799   8.400  0.00  0.00    +0.000 C 
ENDBRANCH  10  12
ENDBRANCH   8  10
ENDBRANCH   1   4
BRANCH   1  18
ATOM     18  C   UNL     1      46.569   4.712  15.068  0.00  0.00    +0.000 C 
BRANCH  18  23
ATOM     19  C   UNL     1      50.632   2.578  17.399  0.00  0.00    +0.000 A 
ATOM     20  C   UNL     1      49.569   2.008  16.704  0.00  0.00    +0.000 A 
ATOM     21  C   UNL     1      48.578   2.836  16.185  0.00  0.00    +0.000 A 
ATOM     22  C   UNL     1      48.652   4.216  16.371  0.00  0.00    +0.000 A 
ATOM     23  N   UNL     1      47.718   5.087  15.887  0.00  0.00    +0.000 N 
ATOM     24  N   UNL     1      49.665   4.772  17.058  0.00  0.00    +0.000 NA
ATOM     25  C   UNL     1      50.626   3.953  17.564  0.00  0.00    +0.000 A 
ATOM     26  H   UNL     1      47.898   6.065  16.094  0.00  0.00    +0.000 HD
BRANCH  19  28
ATOM     27  N   UNL     1      51.569   0.422  18.006  0.00  0.00    +0.000 N 
ATOM     28  C   UNL     1      51.732   1.780  17.974  0.00  0.00    +0.000 C 
ATOM     29  O   UNL     1      52.763   2.304  18.371  0.00  0.00    +0.000 OA
ATOM     30  H   UNL     1      52.373  -0.118  18.303  0.00  0.00    +0.000 HD
ATOM     31  H   UNL     1      50.863  -0.054  17.463  0.00  0.00    +0.000 HD
ENDBRANCH  19  28
ENDBRANCH  18  23
ENDBRANCH   1  18
TORSDOF 6
ENDMDL
MODEL 9
REMARK VINA RESULT:    -7.673      3.279      6.077
REMARK INTER + INTRA:         -11.119
REMARK INTER:                 -10.046
REMARK INTRA:                  -1.074
REMARK UNBOUND:                -0.755
REMARK  Name = 
REMARK  6 active torsions:
REMARK  status: ('A' for Active; 'I' for Inactive)
REMARK    1  A    between atoms: C_2  and  C_4
REMARK    2  A    between atoms: N_8  and  C_9
REMARK    3  A    between atoms: C_9  and  C_10
REMARK    4  A    between atoms: C_10  and  C_13
REMARK    5  A    between atoms: C_17  and  N_18
REMARK    6  A    between atoms: N_18  and  C_19
REMARK                            x       y       z     vdW  Elec       q    Type
REMARK                         _______ _______ _______ _____ _____    ______ ____
ROOT
ATOM      1  C   UNL     1      44.362   5.661  12.367  0.00  0.00    +0.000 C 
ATOM      2  F   UNL     1      43.462   5.578  13.394  0.00  0.00    +0.000 F 
ATOM      3  F   UNL     1      45.281   4.682  12.619  0.00  0.00    +0.000 F 
ENDROOT
BRANCH   1   4
ATOM      4  C   UNL     1      45.002   7.035  12.287  0.00  0.00    +0.000 A 
ATOM      5  C   UNL     1      46.029   7.400  13.165  0.00  0.00    +0.000 A 
ATOM      6  C   UNL     1      46.586   8.678  13.102  0.00  0.00    +0.000 A 
ATOM      7  C   UNL     1      46.113   9.609  12.172  0.00  0.00    +0.000 A 
ATOM      8  C   UNL     1      45.096   9.264  11.281  0.00  0.00    +0.000 A 
ATOM      9  C   UNL     1      44.547   7.976  11.350  0.00  0.00    +0.000 A 
BRANCH   8  10
ATOM     10  N   UNL     1      44.556  10.159  10.333  0.00  0.00    +0.000 N 
ATOM     11  H   UNL     1      45.313  10.627   9.834  0.00  0.00    +0.000 HD
BRANCH  10  12
ATOM     12  C   UNL     1      43.378  10.960  10.480  0.00  0.00    +0.000 C 
ATOM     13  C   UNL     1      42.655  10.689  11.812  0.00  0.00    +0.000 C 
ATOM     14  C   UNL     1      41.349  10.472  11.029  0.00  0.00    +0.000 C 
ATOM     15  F   UNL     1      40.633   9.378  11.382  0.00  0.00    +0.000 F 
ATOM     16  F   UNL     1      40.488  11.516  11.041  0.00  0.00    +0.000 F 
ATOM     17  C   UNL     1      42.183  10.326   9.745  0.00  0.00    +0.000 C 
ENDBRANCH  10  12
ENDBRANCH   8  10
ENDBRANCH   1   4
BRANCH   1  18
ATOM     18  C   UNL     1      43.633   5.328  11.043  0.00  0.00    +0.000 C 
BRANCH  18  23
ATOM     19  C   UNL     1      46.503   2.782   7.611  0.00  0.00    +0.000 A 
ATOM     20  C   UNL     1      46.367   4.145   7.862  0.00  0.00    +0.000 A 
ATOM     21  C   UNL     1      45.487   4.565   8.856  0.00  0.00    +0.000 A 
ATOM     22  C   UNL     1      44.748   3.628   9.577  0.00  0.00    +0.000 A 
ATOM     23  N   UNL     1      43.870   3.969  10.566  0.00  0.00    +0.000 N 
ATOM     24  N   UNL     1      44.860   2.312   9.327  0.00  0.00    +0.000 NA
ATOM     25  C   UNL     1      45.720   1.912   8.351  0.00  0.00    +0.000 A 
ATOM     26  H   UNL     1      43.402   3.185  11.011  0.00  0.00    +0.000 HD
BRANCH  19  28
ATOM     27  N   UNL     1      47.781   3.086   5.570  0.00  0.00    +0.000 N 
ATOM     28  C   UNL     1      47.418   2.245   6.587  0.00  0.00    +0.000 C 
ATOM     29  O   UNL     1      47.866   1.110   6.660  0.00  0.00    +0.000 OA
ATOM     30  H   UNL     1      48.492   2.741   4.936  0.00  0.00    +0.000 HD
ATOM     31  H   UNL     1      47.645   4.086   5.615  0.00  0.00    +0.000 HD
ENDBRANCH  19  28
ENDBRANCH  18  23
ENDBRANCH   1  18
TORSDOF 6
ENDMDL
