MODEL 1
REMARK VINA RESULT:    -9.298      0.000      0.000
REMARK INTER + INTRA:         -13.962
REMARK INTER:                 -12.831
REMARK INTRA:                  -1.131
REMARK UNBOUND:                -1.131
REMARK  Name = 
REMARK  9 active torsions:
REMARK  status: ('A' for Active; 'I' for Inactive)
REMARK    1  A    between atoms: C_1  and  C_2
REMARK    2  A    between atoms: C_2  and  C_3
REMARK    3  A    between atoms: C_2  and  C_4
REMARK    4  A    between atoms: C_2  and  C_19
REMARK    5  A    between atoms: C_4  and  C_5
REMARK    6  A    between atoms: C_5  and  C_6
REMARK    7  A    between atoms: C_10  and  C_11
REMARK    8  A    between atoms: C_11  and  O_12
REMARK    9  A    between atoms: C_22  and  C_23
REMARK                            x       y       z     vdW  Elec       q    Type
REMARK                         _______ _______ _______ _____ _____    ______ ____
ROOT
ATOM      1  C   UNL     1      45.210   4.888  11.953  0.00  0.00    +0.000 C 
ENDROOT
BRANCH   1   3
ATOM      2  C   UNL     1      43.539   2.975  11.706  0.00  0.00    +0.000 C 
ATOM      3  C   UNL     1      44.226   4.162  10.987  0.00  0.00    +0.000 C 
ATOM      4  C   UNL     1      43.085   5.160  10.652  0.00  0.00    +0.000 C 
BRANCH   3   5
ATOM      5  C   UNL     1      44.984   3.701   9.726  0.00  0.00    +0.000 A 
ATOM      6  C   UNL     1      45.628   4.603   8.860  0.00  0.00    +0.000 A 
ATOM      7  C   UNL     1      46.377   4.150   7.762  0.00  0.00    +0.000 A 
ATOM      8  C   UNL     1      46.517   2.783   7.508  0.00  0.00    +0.000 A 
ATOM      9  C   UNL     1      45.884   1.883   8.354  0.00  0.00    +0.000 A 
ATOM     10  F   UNL     1      45.997   0.557   8.181  0.00  0.00    +0.000 F 
ATOM     11  C   UNL     1      45.126   2.331   9.436  0.00  0.00    +0.000 A 
BRANCH   8  12
ATOM     12  C   UNL     1      47.353   2.346   6.358  0.00  0.00    +0.000 C 
ATOM     13  N   UNL     1      47.167   2.960   5.155  0.00  0.00    +0.000 N 
ATOM     14  O   UNL     1      48.179   1.451   6.479  0.00  0.00    +0.000 OA
ATOM     15  H   UNL     1      46.484   3.698   5.008  0.00  0.00    +0.000 HD
ATOM     16  H   UNL     1      47.726   2.652   4.372  0.00  0.00    +0.000 HD
ENDBRANCH   8  12
ENDBRANCH   3   5
ENDBRANCH   1   3
BRANCH   1  17
ATOM     17  C   UNL     1      46.026   3.975  12.886  0.00  0.00    +0.000 C 
BRANCH  17  18
ATOM     18  C   UNL     1      46.825   4.771  13.884  0.00  0.00    +0.000 A 
ATOM     19  C   UNL     1      47.486   5.941  13.512  0.00  0.00    +0.000 A 
ATOM     20  C   UNL     1      48.262   6.621  14.444  0.00  0.00    +0.000 A 
ATOM     21  C   UNL     1      48.416   6.110  15.737  0.00  0.00    +0.000 A 
ATOM     22  C   UNL     1      47.779   4.919  16.139  0.00  0.00    +0.000 A 
ATOM     23  C   UNL     1      46.946   4.297  15.198  0.00  0.00    +0.000 A 
BRANCH  22  24
ATOM     24  C   UNL     1      48.035   4.318  17.529  0.00  0.00    +0.000 C 
ATOM     25  C   UNL     1      49.334   4.885  18.144  0.00  0.00    +0.000 C 
ATOM     26  C   UNL     1      50.584   4.352  17.446  0.00  0.00    +0.000 C 
ATOM     27  C   UNL     1      50.656   2.832  17.536  0.00  0.00    +0.000 C 
ATOM     28  C   UNL     1      49.388   2.156  17.027  0.00  0.00    +0.000 C 
ATOM     29  C   UNL     1      48.110   2.772  17.611  0.00  0.00    +0.000 C 
BRANCH  24  30
ATOM     30  O   UNL     1      46.959   4.702  18.402  0.00  0.00    +0.000 OA
ATOM     31  H   UNL     1      46.940   5.671  18.464  0.00  0.00    +0.000 HD
ENDBRANCH  24  30
ENDBRANCH  22  24
ENDBRANCH  17  18
ENDBRANCH   1  17
TORSDOF 7
ENDMDL
MODEL 2
REMARK VINA RESULT:    -8.756      1.688      3.376
REMARK INTER + INTRA:         -13.215
REMARK INTER:                 -11.878
REMARK INTRA:                  -1.337
REMARK UNBOUND:                -1.131
REMARK  Name = 
REMARK  9 active torsions:
REMARK  status: ('A' for Active; 'I' for Inactive)
REMARK    1  A    between atoms: C_1  and  C_2
REMARK    2  A    between atoms: C_2  and  C_3
REMARK    3  A    between atoms: C_2  and  C_4
REMARK    4  A    between atoms: C_2  and  C_19
REMARK    5  A    between atoms: C_4  and  C_5
REMARK    6  A    between atoms: C_5  and  C_6
REMARK    7  A    between atoms: C_10  and  C_11
REMARK    8  A    between atoms: C_11  and  O_12
REMARK    9  A    between atoms: C_22  and  C_23
REMARK                            x       y       z     vdW  Elec       q    Type
REMARK                         _______ _______ _______ _____ _____    ______ ____
ROOT
ATOM      1  C   UNL     1      45.058   4.722  12.083  0.00  0.00    +0.000 C 
ENDROOT
BRANCH   1   3
ATOM      2  C   UNL     1      43.373   2.834  11.745  0.00  0.00    +0.000 C 
ATOM      3  C   UNL     1      44.081   4.040  11.079  0.00  0.00    +0.000 C 
ATOM      4  C   UNL     1      42.953   5.060  10.765  0.00  0.00    +0.000 C 
BRANCH   3   5
ATOM      5  C   UNL     1      44.851   3.616   9.812  0.00  0.00    +0.000 A 
ATOM      6  C   UNL     1      45.483   4.547   8.966  0.00  0.00    +0.000 A 
ATOM      7  C   UNL     1      46.244   4.128   7.863  0.00  0.00    +0.000 A 
ATOM      8  C   UNL     1      46.409   2.769   7.583  0.00  0.00    +0.000 A 
ATOM      9  C   UNL     1      45.789   1.843   8.409  0.00  0.00    +0.000 A 
ATOM     10  F   UNL     1      45.925   0.522   8.211  0.00  0.00    +0.000 F 
ATOM     11  C   UNL     1      45.018   2.255   9.496  0.00  0.00    +0.000 A 
BRANCH   8  12
ATOM     12  C   UNL     1      47.257   2.370   6.428  0.00  0.00    +0.000 C 
ATOM     13  N   UNL     1      47.067   3.006   5.238  0.00  0.00    +0.000 N 
ATOM     14  O   UNL     1      48.096   1.486   6.535  0.00  0.00    +0.000 OA
ATOM     15  H   UNL     1      46.374   3.737   5.103  0.00  0.00    +0.000 HD
ATOM     16  H   UNL     1      47.634   2.724   4.452  0.00  0.00    +0.000 HD
ENDBRANCH   8  12
ENDBRANCH   3   5
ENDBRANCH   1   3
BRANCH   1  17
ATOM     17  C   UNL     1      45.925   3.768  12.924  0.00  0.00    +0.000 C 
BRANCH  17  18
ATOM     18  C   UNL     1      46.820   4.521  13.872  0.00  0.00    +0.000 A 
ATOM     19  C   UNL     1      47.194   3.976  15.099  0.00  0.00    +0.000 A 
ATOM     20  C   UNL     1      47.975   4.721  15.977  0.00  0.00    +0.000 A 
ATOM     21  C   UNL     1      48.345   6.029  15.649  0.00  0.00    +0.000 A 
ATOM     22  C   UNL     1      47.965   6.618  14.426  0.00  0.00    +0.000 A 
ATOM     23  C   UNL     1      47.241   5.815  13.534  0.00  0.00    +0.000 A 
BRANCH  22  24
ATOM     24  C   UNL     1      48.295   8.087  14.123  0.00  0.00    +0.000 C 
ATOM     25  C   UNL     1      48.210   8.370  12.606  0.00  0.00    +0.000 C 
ATOM     26  C   UNL     1      49.360   7.727  11.833  0.00  0.00    +0.000 C 
ATOM     27  C   UNL     1      50.707   8.245  12.323  0.00  0.00    +0.000 C 
ATOM     28  C   UNL     1      50.878   8.093  13.830  0.00  0.00    +0.000 C 
ATOM     29  C   UNL     1      49.668   8.606  14.622  0.00  0.00    +0.000 C 
BRANCH  24  30
ATOM     30  O   UNL     1      47.311   8.921  14.758  0.00  0.00    +0.000 OA
ATOM     31  H   UNL     1      47.767   9.628  15.240  0.00  0.00    +0.000 HD
ENDBRANCH  24  30
ENDBRANCH  22  24
ENDBRANCH  17  18
ENDBRANCH   1  17
TORSDOF 7
ENDMDL
MODEL 3
REMARK VINA RESULT:    -8.606      2.864      3.768
REMARK INTER + INTRA:         -13.007
REMARK INTER:                 -11.509
REMARK INTRA:                  -1.498
REMARK UNBOUND:                -1.131
REMARK  Name = 
REMARK  9 active torsions:
REMARK  status: ('A' for Active; 'I' for Inactive)
REMARK    1  A    between atoms: C_1  and  C_2
REMARK    2  A    between atoms: C_2  and  C_3
REMARK    3  A    between atoms: C_2  and  C_4
REMARK    4  A    between atoms: C_2  and  C_19
REMARK    5  A    between atoms: C_4  and  C_5
REMARK    6  A    between atoms: C_5  and  C_6
REMARK    7  A    between atoms: C_10  and  C_11
REMARK    8  A    between atoms: C_11  and  O_12
REMARK    9  A    between atoms: C_22  and  C_23
REMARK                            x       y       z     vdW  Elec       q    Type
REMARK                         _______ _______ _______ _____ _____    ______ ____
ROOT
ATOM      1  C   UNL     1      45.134   4.249  12.214  0.00  0.00    +0.000 C 
ENDROOT
BRANCH   1   3
ATOM      2  C   UNL     1      43.344   2.536  11.602  0.00  0.00    +0.000 C 
ATOM      3  C   UNL     1      44.126   3.783  11.121  0.00  0.00    +0.000 C 
ATOM      4  C   UNL     1      43.064   4.903  10.962  0.00  0.00    +0.000 C 
BRANCH   3   5
ATOM      5  C   UNL     1      44.880   3.506   9.804  0.00  0.00    +0.000 A 
ATOM      6  C   UNL     1      45.385   4.538   8.992  0.00  0.00    +0.000 A 
ATOM      7  C   UNL     1      46.135   4.257   7.839  0.00  0.00    +0.000 A 
ATOM      8  C   UNL     1      46.418   2.938   7.475  0.00  0.00    +0.000 A 
ATOM      9  C   UNL     1      45.924   1.912   8.267  0.00  0.00    +0.000 A 
ATOM     10  F   UNL     1      46.177   0.624   7.987  0.00  0.00    +0.000 F 
ATOM     11  C   UNL     1      45.163   2.187   9.404  0.00  0.00    +0.000 A 
BRANCH   8  12
ATOM     12  C   UNL     1      47.251   2.687   6.269  0.00  0.00    +0.000 C 
ATOM     13  N   UNL     1      48.580   2.442   6.442  0.00  0.00    +0.000 N 
ATOM     14  O   UNL     1      46.763   2.711   5.146  0.00  0.00    +0.000 OA
ATOM     15  H   UNL     1      49.028   2.425   7.354  0.00  0.00    +0.000 HD
ATOM     16  H   UNL     1      49.147   2.285   5.620  0.00  0.00    +0.000 HD
ENDBRANCH   8  12
ENDBRANCH   3   5
ENDBRANCH   1   3
BRANCH   1  17
ATOM     17  C   UNL     1      44.669   5.425  13.092  0.00  0.00    +0.000 C 
BRANCH  17  18
ATOM     18  C   UNL     1      45.514   6.651  12.871  0.00  0.00    +0.000 A 
ATOM     19  C   UNL     1      45.001   7.775  12.226  0.00  0.00    +0.000 A 
ATOM     20  C   UNL     1      45.824   8.870  11.985  0.00  0.00    +0.000 A 
ATOM     21  C   UNL     1      47.174   8.827  12.349  0.00  0.00    +0.000 A 
ATOM     22  C   UNL     1      47.730   7.698  12.983  0.00  0.00    +0.000 A 
ATOM     23  C   UNL     1      46.857   6.641  13.276  0.00  0.00    +0.000 A 
BRANCH  22  24
ATOM     24  C   UNL     1      49.234   7.625  13.288  0.00  0.00    +0.000 C 
ATOM     25  C   UNL     1      49.480   7.234  14.762  0.00  0.00    +0.000 C 
ATOM     26  C   UNL     1      49.120   8.363  15.726  0.00  0.00    +0.000 C 
ATOM     27  C   UNL     1      49.941   9.614  15.438  0.00  0.00    +0.000 C 
ATOM     28  C   UNL     1      49.841  10.055  13.983  0.00  0.00    +0.000 C 
ATOM     29  C   UNL     1      50.061   8.903  12.994  0.00  0.00    +0.000 C 
BRANCH  24  30
ATOM     30  O   UNL     1      49.817   6.590  12.479  0.00  0.00    +0.000 OA
ATOM     31  H   UNL     1      50.772   6.560  12.654  0.00  0.00    +0.000 HD
ENDBRANCH  24  30
ENDBRANCH  22  24
ENDBRANCH  17  18
ENDBRANCH   1  17
TORSDOF 7
ENDMDL
MODEL 4
REMARK VINA RESULT:    -8.558      1.180      1.921
REMARK INTER + INTRA:         -12.941
REMARK INTER:                 -11.690
REMARK INTRA:                  -1.250
REMARK UNBOUND:                -1.131
REMARK  Name = 
REMARK  9 active torsions:
REMARK  status: ('A' for Active; 'I' for Inactive)
REMARK    1  A    between atoms: C_1  and  C_2
REMARK    2  A    between atoms: C_2  and  C_3
REMARK    3  A    between atoms: C_2  and  C_4
REMARK    4  A    between atoms: C_2  and  C_19
REMARK    5  A    between atoms: C_4  and  C_5
REMARK    6  A    between atoms: C_5  and  C_6
REMARK    7  A    between atoms: C_10  and  C_11
REMARK    8  A    between atoms: C_11  and  O_12
REMARK    9  A    between atoms: C_22  and  C_23
REMARK                            x       y       z     vdW  Elec       q    Type
REMARK                         _______ _______ _______ _____ _____    ______ ____
ROOT
ATOM      1  C   UNL     1      45.183   5.162  12.109  0.00  0.00    +0.000 C 
ENDROOT
BRANCH   1   3
ATOM      2  C   UNL     1      43.595   3.165  12.041  0.00  0.00    +0.000 C 
ATOM      3  C   UNL     1      44.188   4.345  11.232  0.00  0.00    +0.000 C 
ATOM      4  C   UNL     1      42.985   5.272  10.910  0.00  0.00    +0.000 C 
BRANCH   3   5
ATOM      5  C   UNL     1      44.902   3.855   9.955  0.00  0.00    +0.000 A 
ATOM      6  C   UNL     1      45.568   4.732   9.080  0.00  0.00    +0.000 A 
ATOM      7  C   UNL     1      46.276   4.251   7.967  0.00  0.00    +0.000 A 
ATOM      8  C   UNL     1      46.355   2.881   7.708  0.00  0.00    +0.000 A 
ATOM      9  C   UNL     1      45.700   2.006   8.564  0.00  0.00    +0.000 A 
ATOM     10  F   UNL     1      45.754   0.677   8.386  0.00  0.00    +0.000 F 
ATOM     11  C   UNL     1      44.981   2.482   9.660  0.00  0.00    +0.000 A 
BRANCH   8  12
ATOM     12  C   UNL     1      47.150   2.413   6.541  0.00  0.00    +0.000 C 
ATOM     13  N   UNL     1      46.973   3.042   5.346  0.00  0.00    +0.000 N 
ATOM     14  O   UNL     1      47.935   1.479   6.644  0.00  0.00    +0.000 OA
ATOM     15  H   UNL     1      46.324   3.812   5.214  0.00  0.00    +0.000 HD
ATOM     16  H   UNL     1      47.504   2.713   4.552  0.00  0.00    +0.000 HD
ENDBRANCH   8  12
ENDBRANCH   3   5
ENDBRANCH   1   3
BRANCH   1  17
ATOM     17  C   UNL     1      46.003   4.346  13.124  0.00  0.00    +0.000 C 
BRANCH  17  18
ATOM     18  C   UNL     1      46.978   5.213  13.876  0.00  0.00    +0.000 A 
ATOM     19  C   UNL     1      47.517   6.362  13.299  0.00  0.00    +0.000 A 
ATOM     20  C   UNL     1      48.459   7.109  13.998  0.00  0.00    +0.000 A 
ATOM     21  C   UNL     1      48.899   6.685  15.256  0.00  0.00    +0.000 A 
ATOM     22  C   UNL     1      48.390   5.517  15.859  0.00  0.00    +0.000 A 
ATOM     23  C   UNL     1      47.390   4.827  15.160  0.00  0.00    +0.000 A 
BRANCH  22  24
ATOM     24  C   UNL     1      48.952   5.010  17.196  0.00  0.00    +0.000 C 
ATOM     25  C   UNL     1      47.833   4.400  18.070  0.00  0.00    +0.000 C 
ATOM     26  C   UNL     1      46.888   5.465  18.623  0.00  0.00    +0.000 C 
ATOM     27  C   UNL     1      47.642   6.476  19.480  0.00  0.00    +0.000 C 
ATOM     28  C   UNL     1      48.828   7.093  18.747  0.00  0.00    +0.000 C 
ATOM     29  C   UNL     1      49.716   6.045  18.062  0.00  0.00    +0.000 C 
BRANCH  24  30
ATOM     30  O   UNL     1      49.894   3.957  16.929  0.00  0.00    +0.000 OA
ATOM     31  H   UNL     1      49.936   3.813  15.970  0.00  0.00    +0.000 HD
ENDBRANCH  24  30
ENDBRANCH  22  24
ENDBRANCH  17  18
ENDBRANCH   1  17
TORSDOF 7
ENDMDL
MODEL 5
REMARK VINA RESULT:    -8.325      3.413      4.266
REMARK INTER + INTRA:         -12.619
REMARK INTER:                 -11.277
REMARK INTRA:                  -1.342
REMARK UNBOUND:                -1.131
REMARK  Name = 
REMARK  9 active torsions:
REMARK  status: ('A' for Active; 'I' for Inactive)
REMARK    1  A    between atoms: C_1  and  C_2
REMARK    2  A    between atoms: C_2  and  C_3
REMARK    3  A    between atoms: C_2  and  C_4
REMARK    4  A    between atoms: C_2  and  C_19
REMARK    5  A    between atoms: C_4  and  C_5
REMARK    6  A    between atoms: C_5  and  C_6
REMARK    7  A    between atoms: C_10  and  C_11
REMARK    8  A    between atoms: C_11  and  O_12
REMARK    9  A    between atoms: C_22  and  C_23
REMARK                            x       y       z     vdW  Elec       q    Type
REMARK                         _______ _______ _______ _____ _____    ______ ____
ROOT
ATOM      1  C   UNL     1      45.292   4.928  11.905  0.00  0.00    +0.000 C 
ENDROOT
BRANCH   1   3
ATOM      2  C   UNL     1      43.700   2.937  11.761  0.00  0.00    +0.000 C 
ATOM      3  C   UNL     1      44.309   4.135  10.992  0.00  0.00    +0.000 C 
ATOM      4  C   UNL     1      43.113   5.074  10.675  0.00  0.00    +0.000 C 
BRANCH   3   5
ATOM      5  C   UNL     1      45.042   3.677   9.715  0.00  0.00    +0.000 A 
ATOM      6  C   UNL     1      45.649   4.583   8.826  0.00  0.00    +0.000 A 
ATOM      7  C   UNL     1      46.377   4.134   7.713  0.00  0.00    +0.000 A 
ATOM      8  C   UNL     1      46.535   2.768   7.466  0.00  0.00    +0.000 A 
ATOM      9  C   UNL     1      45.939   1.864   8.335  0.00  0.00    +0.000 A 
ATOM     10  F   UNL     1      46.070   0.539   8.170  0.00  0.00    +0.000 F 
ATOM     11  C   UNL     1      45.200   2.307   9.432  0.00  0.00    +0.000 A 
BRANCH   8  12
ATOM     12  C   UNL     1      47.349   2.336   6.298  0.00  0.00    +0.000 C 
ATOM     13  N   UNL     1      47.147   2.962   5.105  0.00  0.00    +0.000 N 
ATOM     14  O   UNL     1      48.171   1.434   6.399  0.00  0.00    +0.000 OA
ATOM     15  H   UNL     1      46.468   3.706   4.976  0.00  0.00    +0.000 HD
ATOM     16  H   UNL     1      47.691   2.658   4.310  0.00  0.00    +0.000 HD
ENDBRANCH   8  12
ENDBRANCH   3   5
ENDBRANCH   1   3
BRANCH   1  17
ATOM     17  C   UNL     1      44.646   5.969  12.836  0.00  0.00    +0.000 C 
BRANCH  17  18
ATOM     18  C   UNL     1      45.188   7.351  12.584  0.00  0.00    +0.000 A 
ATOM     19  C   UNL     1      44.546   8.233  11.717  0.00  0.00    +0.000 A 
ATOM     20  C   UNL     1      45.104   9.481  11.462  0.00  0.00    +0.000 A 
ATOM     21  C   UNL     1      46.330   9.833  12.037  0.00  0.00    +0.000 A 
ATOM     22  C   UNL     1      47.016   8.957  12.902  0.00  0.00    +0.000 A 
ATOM     23  C   UNL     1      46.391   7.737  13.195  0.00  0.00    +0.000 A 
BRANCH  22  24
ATOM     24  C   UNL     1      48.406   9.316  13.448  0.00  0.00    +0.000 C 
ATOM     25  C   UNL     1      49.156  10.254  12.476  0.00  0.00    +0.000 C 
ATOM     26  C   UNL     1      49.604   9.531  11.207  0.00  0.00    +0.000 C 
ATOM     27  C   UNL     1      50.535   8.370  11.537  0.00  0.00    +0.000 C 
ATOM     28  C   UNL     1      49.932   7.411  12.557  0.00  0.00    +0.000 C 
ATOM     29  C   UNL     1      49.347   8.130  13.779  0.00  0.00    +0.000 C 
BRANCH  24  30
ATOM     30  O   UNL     1      48.243  10.039  14.681  0.00  0.00    +0.000 OA
ATOM     31  H   UNL     1      47.416   9.753  15.101  0.00  0.00    +0.000 HD
ENDBRANCH  24  30
ENDBRANCH  22  24
ENDBRANCH  17  18
ENDBRANCH   1  17
TORSDOF 7
ENDMDL
MODEL 6
REMARK VINA RESULT:    -7.850      2.790      4.204
REMARK INTER + INTRA:         -11.964
REMARK INTER:                  -9.849
REMARK INTRA:                  -2.114
REMARK UNBOUND:                -1.131
REMARK  Name = 
REMARK  9 active torsions:
REMARK  status: ('A' for Active; 'I' for Inactive)
REMARK    1  A    between atoms: C_1  and  C_2
REMARK    2  A    between atoms: C_2  and  C_3
REMARK    3  A    between atoms: C_2  and  C_4
REMARK    4  A    between atoms: C_2  and  C_19
REMARK    5  A    between atoms: C_4  and  C_5
REMARK    6  A    between atoms: C_5  and  C_6
REMARK    7  A    between atoms: C_10  and  C_11
REMARK    8  A    between atoms: C_11  and  O_12
REMARK    9  A    between atoms: C_22  and  C_23
REMARK                            x       y       z     vdW  Elec       q    Type
REMARK                         _______ _______ _______ _____ _____    ______ ____
ROOT
ATOM      1  C   UNL     1      48.868   6.748  13.488  0.00  0.00    +0.000 C 
ENDROOT
BRANCH   1   3
ATOM      2  C   UNL     1      47.001   8.489  13.486  0.00  0.00    +0.000 C 
ATOM      3  C   UNL     1      47.704   7.379  12.666  0.00  0.00    +0.000 C 
ATOM      4  C   UNL     1      48.338   8.103  11.447  0.00  0.00    +0.000 C 
BRANCH   3   5
ATOM      5  C   UNL     1      46.714   6.277  12.237  0.00  0.00    +0.000 A 
ATOM      6  C   UNL     1      45.881   6.407  11.111  0.00  0.00    +0.000 A 
ATOM      7  C   UNL     1      45.046   5.357  10.697  0.00  0.00    +0.000 A 
ATOM      8  C   UNL     1      45.032   4.142  11.387  0.00  0.00    +0.000 A 
ATOM      9  C   UNL     1      45.848   4.002  12.501  0.00  0.00    +0.000 A 
ATOM     10  F   UNL     1      45.900   2.855  13.195  0.00  0.00    +0.000 F 
ATOM     11  C   UNL     1      46.666   5.050  12.924  0.00  0.00    +0.000 A 
BRANCH   8  12
ATOM     12  C   UNL     1      44.162   3.042  10.890  0.00  0.00    +0.000 C 
ATOM     13  N   UNL     1      44.624   2.264   9.870  0.00  0.00    +0.000 N 
ATOM     14  O   UNL     1      43.055   2.844  11.373  0.00  0.00    +0.000 OA
ATOM     15  H   UNL     1      45.531   2.402   9.434  0.00  0.00    +0.000 HD
ATOM     16  H   UNL     1      44.026   1.527   9.526  0.00  0.00    +0.000 HD
ENDBRANCH   8  12
ENDBRANCH   3   5
ENDBRANCH   1   3
BRANCH   1  17
ATOM     17  C   UNL     1      49.654   7.719  14.386  0.00  0.00    +0.000 C 
BRANCH  17  18
ATOM     18  C   UNL     1      49.498   7.377  15.844  0.00  0.00    +0.000 A 
ATOM     19  C   UNL     1      50.229   8.044  16.826  0.00  0.00    +0.000 A 
ATOM     20  C   UNL     1      50.104   7.665  18.158  0.00  0.00    +0.000 A 
ATOM     21  C   UNL     1      49.282   6.588  18.507  0.00  0.00    +0.000 A 
ATOM     22  C   UNL     1      48.546   5.878  17.537  0.00  0.00    +0.000 A 
ATOM     23  C   UNL     1      48.638   6.332  16.214  0.00  0.00    +0.000 A 
BRANCH  22  24
ATOM     24  C   UNL     1      47.726   4.638  17.922  0.00  0.00    +0.000 C 
ATOM     25  C   UNL     1      48.592   3.624  18.703  0.00  0.00    +0.000 C 
ATOM     26  C   UNL     1      49.620   2.934  17.809  0.00  0.00    +0.000 C 
ATOM     27  C   UNL     1      48.940   2.179  16.673  0.00  0.00    +0.000 C 
ATOM     28  C   UNL     1      47.991   3.062  15.872  0.00  0.00    +0.000 C 
ATOM     29  C   UNL     1      47.040   3.875  16.760  0.00  0.00    +0.000 C 
BRANCH  24  30
ATOM     30  O   UNL     1      46.664   5.043  18.802  0.00  0.00    +0.000 OA
ATOM     31  H   UNL     1      46.275   5.865  18.461  0.00  0.00    +0.000 HD
ENDBRANCH  24  30
ENDBRANCH  22  24
ENDBRANCH  17  18
ENDBRANCH   1  17
TORSDOF 7
ENDMDL
MODEL 7
REMARK VINA RESULT:    -7.451      4.565      8.676
REMARK INTER + INTRA:         -11.414
REMARK INTER:                  -9.994
REMARK INTRA:                  -1.420
REMARK UNBOUND:                -1.131
REMARK  Name = 
REMARK  9 active torsions:
REMARK  status: ('A' for Active; 'I' for Inactive)
REMARK    1  A    between atoms: C_1  and  C_2
REMARK    2  A    between atoms: C_2  and  C_3
REMARK    3  A    between atoms: C_2  and  C_4
REMARK    4  A    between atoms: C_2  and  C_19
REMARK    5  A    between atoms: C_4  and  C_5
REMARK    6  A    between atoms: C_5  and  C_6
REMARK    7  A    between atoms: C_10  and  C_11
REMARK    8  A    between atoms: C_11  and  O_12
REMARK    9  A    between atoms: C_22  and  C_23
REMARK                            x       y       z     vdW  Elec       q    Type
REMARK                         _______ _______ _______ _____ _____    ______ ____
ROOT
ATOM      1  C   UNL     1      47.580   4.187  15.802  0.00  0.00    +0.000 C 
ENDROOT
BRANCH   1   3
ATOM      2  C   UNL     1      47.440   5.119  18.175  0.00  0.00    +0.000 C 
ATOM      3  C   UNL     1      47.900   3.923  17.304  0.00  0.00    +0.000 C 
ATOM      4  C   UNL     1      47.029   2.721  17.759  0.00  0.00    +0.000 C 
BRANCH   3   5
ATOM      5  C   UNL     1      49.407   3.646  17.473  0.00  0.00    +0.000 A 
ATOM      6  C   UNL     1      50.299   4.606  17.987  0.00  0.00    +0.000 A 
ATOM      7  C   UNL     1      51.652   4.301  18.203  0.00  0.00    +0.000 A 
ATOM      8  C   UNL     1      52.149   3.024  17.930  0.00  0.00    +0.000 A 
ATOM      9  C   UNL     1      51.280   2.069  17.420  0.00  0.00    +0.000 A 
ATOM     10  F   UNL     1      51.686   0.818  17.157  0.00  0.00    +0.000 F 
ATOM     11  C   UNL     1      49.939   2.374  17.188  0.00  0.00    +0.000 A 
BRANCH   8  12
ATOM     12  C   UNL     1      53.580   2.732  18.213  0.00  0.00    +0.000 C 
ATOM     13  N   UNL     1      53.896   2.138  19.397  0.00  0.00    +0.000 N 
ATOM     14  O   UNL     1      54.456   3.028  17.411  0.00  0.00    +0.000 OA
ATOM     15  H   UNL     1      53.201   1.887  20.096  0.00  0.00    +0.000 HD
ATOM     16  H   UNL     1      54.869   1.954  19.593  0.00  0.00    +0.000 HD
ENDBRANCH   8  12
ENDBRANCH   3   5
ENDBRANCH   1   3
BRANCH   1  17
ATOM     17  C   UNL     1      48.094   5.522  15.234  0.00  0.00    +0.000 C 
BRANCH  17  18
ATOM     18  C   UNL     1      47.329   5.934  14.004  0.00  0.00    +0.000 A 
ATOM     19  C   UNL     1      47.785   6.960  13.179  0.00  0.00    +0.000 A 
ATOM     20  C   UNL     1      47.026   7.355  12.083  0.00  0.00    +0.000 A 
ATOM     21  C   UNL     1      45.786   6.756  11.836  0.00  0.00    +0.000 A 
ATOM     22  C   UNL     1      45.286   5.730  12.662  0.00  0.00    +0.000 A 
ATOM     23  C   UNL     1      46.108   5.306  13.715  0.00  0.00    +0.000 A 
BRANCH  22  24
ATOM     24  C   UNL     1      43.881   5.150  12.437  0.00  0.00    +0.000 C 
ATOM     25  C   UNL     1      43.842   3.646  12.786  0.00  0.00    +0.000 C 
ATOM     26  C   UNL     1      44.593   2.796  11.763  0.00  0.00    +0.000 C 
ATOM     27  C   UNL     1      43.997   2.961  10.370  0.00  0.00    +0.000 C 
ATOM     28  C   UNL     1      43.908   4.421   9.942  0.00  0.00    +0.000 C 
ATOM     29  C   UNL     1      43.283   5.320  11.016  0.00  0.00    +0.000 C 
BRANCH  24  30
ATOM     30  O   UNL     1      42.963   5.808  13.326  0.00  0.00    +0.000 OA
ATOM     31  H   UNL     1      42.133   5.305  13.344  0.00  0.00    +0.000 HD
ENDBRANCH  24  30
ENDBRANCH  22  24
ENDBRANCH  17  18
ENDBRANCH   1  17
TORSDOF 7
ENDMDL
MODEL 8
REMARK VINA RESULT:    -7.248      3.177      4.890
REMARK INTER + INTRA:         -11.133
REMARK INTER:                  -9.519
REMARK INTRA:                  -1.614
REMARK UNBOUND:                -1.131
REMARK  Name = 
REMARK  9 active torsions:
REMARK  status: ('A' for Active; 'I' for Inactive)
REMARK    1  A    between atoms: C_1  and  C_2
REMARK    2  A    between atoms: C_2  and  C_3
REMARK    3  A    between atoms: C_2  and  C_4
REMARK    4  A    between atoms: C_2  and  C_19
REMARK    5  A    between atoms: C_4  and  C_5
REMARK    6  A    between atoms: C_5  and  C_6
REMARK    7  A    between atoms: C_10  and  C_11
REMARK    8  A    between atoms: C_11  and  O_12
REMARK    9  A    between atoms: C_22  and  C_23
REMARK                            x       y       z     vdW  Elec       q    Type
REMARK                         _______ _______ _______ _____ _____    ______ ____
ROOT
ATOM      1  C   UNL     1      48.438   7.372  14.571  0.00  0.00    +0.000 C 
ENDROOT
BRANCH   1   3
ATOM      2  C   UNL     1      47.154   8.864  12.945  0.00  0.00    +0.000 C 
ATOM      3  C   UNL     1      47.912   7.524  13.111  0.00  0.00    +0.000 C 
ATOM      4  C   UNL     1      49.151   7.630  12.182  0.00  0.00    +0.000 C 
BRANCH   3   5
ATOM      5  C   UNL     1      47.019   6.319  12.753  0.00  0.00    +0.000 A 
ATOM      6  C   UNL     1      46.932   5.175  13.567  0.00  0.00    +0.000 A 
ATOM      7  C   UNL     1      46.052   4.126  13.258  0.00  0.00    +0.000 A 
ATOM      8  C   UNL     1      45.221   4.198  12.137  0.00  0.00    +0.000 A 
ATOM      9  C   UNL     1      45.299   5.320  11.325  0.00  0.00    +0.000 A 
ATOM     10  F   UNL     1      44.514   5.463  10.246  0.00  0.00    +0.000 F 
ATOM     11  C   UNL     1      46.185   6.356  11.620  0.00  0.00    +0.000 A 
BRANCH   8  12
ATOM     12  C   UNL     1      44.274   3.082  11.869  0.00  0.00    +0.000 C 
ATOM     13  N   UNL     1      44.231   2.560  10.611  0.00  0.00    +0.000 N 
ATOM     14  O   UNL     1      43.543   2.648  12.750  0.00  0.00    +0.000 OA
ATOM     15  H   UNL     1      44.812   2.898   9.849  0.00  0.00    +0.000 HD
ATOM     16  H   UNL     1      43.578   1.812  10.429  0.00  0.00    +0.000 HD
ENDBRANCH   8  12
ENDBRANCH   3   5
ENDBRANCH   1   3
BRANCH   1  17
ATOM     17  C   UNL     1      49.864   7.890  14.824  0.00  0.00    +0.000 C 
BRANCH  17  18
ATOM     18  C   UNL     1      50.605   7.022  15.806  0.00  0.00    +0.000 A 
ATOM     19  C   UNL     1      51.996   6.936  15.789  0.00  0.00    +0.000 A 
ATOM     20  C   UNL     1      52.646   6.080  16.672  0.00  0.00    +0.000 A 
ATOM     21  C   UNL     1      51.904   5.274  17.543  0.00  0.00    +0.000 A 
ATOM     22  C   UNL     1      50.496   5.321  17.570  0.00  0.00    +0.000 A 
ATOM     23  C   UNL     1      49.876   6.246  16.720  0.00  0.00    +0.000 A 
BRANCH  22  24
ATOM     24  C   UNL     1      49.693   4.361  18.461  0.00  0.00    +0.000 C 
ATOM     25  C   UNL     1      49.519   2.987  17.775  0.00  0.00    +0.000 C 
ATOM     26  C   UNL     1      48.550   3.049  16.596  0.00  0.00    +0.000 C 
ATOM     27  C   UNL     1      47.170   3.518  17.044  0.00  0.00    +0.000 C 
ATOM     28  C   UNL     1      47.222   4.836  17.809  0.00  0.00    +0.000 C 
ATOM     29  C   UNL     1      48.290   4.844  18.910  0.00  0.00    +0.000 C 
BRANCH  24  30
ATOM     30  O   UNL     1      50.431   4.131  19.673  0.00  0.00    +0.000 OA
ATOM     31  H   UNL     1      51.316   4.517  19.575  0.00  0.00    +0.000 HD
ENDBRANCH  24  30
ENDBRANCH  22  24
ENDBRANCH  17  18
ENDBRANCH   1  17
TORSDOF 7
ENDMDL
MODEL 9
REMARK VINA RESULT:    -7.065      3.383      5.011
REMARK INTER + INTRA:         -10.881
REMARK INTER:                  -8.824
REMARK INTRA:                  -2.058
REMARK UNBOUND:                -1.131
REMARK  Name = 
REMARK  9 active torsions:
REMARK  status: ('A' for Active; 'I' for Inactive)
REMARK    1  A    between atoms: C_1  and  C_2
REMARK    2  A    between atoms: C_2  and  C_3
REMARK    3  A    between atoms: C_2  and  C_4
REMARK    4  A    between atoms: C_2  and  C_19
REMARK    5  A    between atoms: C_4  and  C_5
REMARK    6  A    between atoms: C_5  and  C_6
REMARK    7  A    between atoms: C_10  and  C_11
REMARK    8  A    between atoms: C_11  and  O_12
REMARK    9  A    between atoms: C_22  and  C_23
REMARK                            x       y       z     vdW  Elec       q    Type
REMARK                         _______ _______ _______ _____ _____    ______ ____
ROOT
ATOM      1  C   UNL     1      49.315   7.850  14.082  0.00  0.00    +0.000 C 
ENDROOT
BRANCH   1   3
ATOM      2  C   UNL     1      47.853   9.370  12.643  0.00  0.00    +0.000 C 
ATOM      3  C   UNL     1      48.517   7.975  12.749  0.00  0.00    +0.000 C 
ATOM      4  C   UNL     1      49.544   7.916  11.587  0.00  0.00    +0.000 C 
BRANCH   3   5
ATOM      5  C   UNL     1      47.474   6.842  12.661  0.00  0.00    +0.000 A 
ATOM      6  C   UNL     1      46.467   6.818  11.679  0.00  0.00    +0.000 A 
ATOM      7  C   UNL     1      45.579   5.736  11.573  0.00  0.00    +0.000 A 
ATOM      8  C   UNL     1      45.684   4.639  12.432  0.00  0.00    +0.000 A 
ATOM      9  C   UNL     1      46.672   4.652  13.406  0.00  0.00    +0.000 A 
ATOM     10  F   UNL     1      46.843   3.622  14.248  0.00  0.00    +0.000 F 
ATOM     11  C   UNL     1      47.545   5.734  13.525  0.00  0.00    +0.000 A 
BRANCH   8  12
ATOM     12  C   UNL     1      44.749   3.496  12.257  0.00  0.00    +0.000 C 
ATOM     13  N   UNL     1      44.897   2.702  11.160  0.00  0.00    +0.000 N 
ATOM     14  O   UNL     1      43.859   3.276  13.069  0.00  0.00    +0.000 OA
ATOM     15  H   UNL     1      45.614   2.856  10.456  0.00  0.00    +0.000 HD
ATOM     16  H   UNL     1      44.253   1.935  11.036  0.00  0.00    +0.000 HD
ENDBRANCH   8  12
ENDBRANCH   3   5
ENDBRANCH   1   3
BRANCH   1  17
ATOM     17  C   UNL     1      49.226   9.060  15.029  0.00  0.00    +0.000 C 
BRANCH  17  18
ATOM     18  C   UNL     1      48.655   8.675  16.368  0.00  0.00    +0.000 A 
ATOM     19  C   UNL     1      48.336   9.640  17.322  0.00  0.00    +0.000 A 
ATOM     20  C   UNL     1      47.865   9.248  18.571  0.00  0.00    +0.000 A 
ATOM     21  C   UNL     1      47.755   7.889  18.885  0.00  0.00    +0.000 A 
ATOM     22  C   UNL     1      48.090   6.888  17.951  0.00  0.00    +0.000 A 
ATOM     23  C   UNL     1      48.492   7.317  16.678  0.00  0.00    +0.000 A 
BRANCH  22  24
ATOM     24  C   UNL     1      48.058   5.403  18.342  0.00  0.00    +0.000 C 
ATOM     25  C   UNL     1      48.689   5.185  19.736  0.00  0.00    +0.000 C 
ATOM     26  C   UNL     1      50.205   5.370  19.718  0.00  0.00    +0.000 C 
ATOM     27  C   UNL     1      50.866   4.391  18.754  0.00  0.00    +0.000 C 
ATOM     28  C   UNL     1      50.268   4.456  17.354  0.00  0.00    +0.000 C 
ATOM     29  C   UNL     1      48.734   4.414  17.358  0.00  0.00    +0.000 C 
BRANCH  24  30
ATOM     30  O   UNL     1      46.686   4.981  18.436  0.00  0.00    +0.000 OA
ATOM     31  H   UNL     1      46.312   5.323  19.263  0.00  0.00    +0.000 HD
ENDBRANCH  24  30
ENDBRANCH  22  24
ENDBRANCH  17  18
ENDBRANCH   1  17
TORSDOF 7
ENDMDL
