MODEL 1
REMARK VINA RESULT:    -9.823      0.000      0.000
REMARK INTER + INTRA:         -12.993
REMARK INTER:                 -12.407
REMARK INTRA:                  -0.586
REMARK UNBOUND:                -0.586
REMARK  Name = 
REMARK  5 active torsions:
REMARK  status: ('A' for Active; 'I' for Inactive)
REMARK    1  A    between atoms: C_2  and  C_4
REMARK    2  A    between atoms: N_8  and  C_9
REMARK    3  A    between atoms: C_9  and  C_10
REMARK    4  A    between atoms: C_14  and  C_15
REMARK    5  A    between atoms: C_19  and  O_20
REMARK                            x       y       z     vdW  Elec       q    Type
REMARK                         _______ _______ _______ _____ _____    ______ ____
ROOT
ATOM      1  C   UNL     1      43.906   4.900  11.477  0.00  0.00    +0.000 C 
ATOM      2  C   UNL     1      42.770   4.981  12.488  0.00  0.00    +0.000 C 
ATOM      3  C   UNL     1      42.819   5.948  11.354  0.00  0.00    +0.000 C 
ENDROOT
BRANCH   1   8
ATOM      4  C   UNL     1      46.460   2.729   7.507  0.00  0.00    +0.000 A 
ATOM      5  C   UNL     1      46.007   4.044   7.624  0.00  0.00    +0.000 A 
ATOM      6  C   UNL     1      45.185   4.388   8.694  0.00  0.00    +0.000 A 
ATOM      7  C   UNL     1      44.818   3.422   9.625  0.00  0.00    +0.000 A 
ATOM      8  N   UNL     1      43.921   3.663  10.670  0.00  0.00    +0.000 N 
ATOM      9  N   UNL     1      45.242   2.143   9.516  0.00  0.00    +0.000 NA
ATOM     10  C   UNL     1      46.044   1.822   8.467  0.00  0.00    +0.000 A 
ATOM     11  H   UNL     1      43.920   2.799  11.211  0.00  0.00    +0.000 HD
BRANCH   4  13
ATOM     12  N   UNL     1      47.192   2.905   5.193  0.00  0.00    +0.000 N 
ATOM     13  C   UNL     1      47.315   2.264   6.393  0.00  0.00    +0.000 C 
ATOM     14  O   UNL     1      48.123   1.359   6.550  0.00  0.00    +0.000 OA
ATOM     15  H   UNL     1      47.851   2.636   4.472  0.00  0.00    +0.000 HD
ATOM     16  H   UNL     1      46.723   3.793   5.092  0.00  0.00    +0.000 HD
ENDBRANCH   4  13
ENDBRANCH   1   8
BRANCH   1  17
ATOM     17  C   UNL     1      45.301   5.348  11.909  0.00  0.00    +0.000 A 
ATOM     18  C   UNL     1      46.034   6.303  11.186  0.00  0.00    +0.000 A 
ATOM     19  C   UNL     1      47.258   6.780  11.652  0.00  0.00    +0.000 A 
ATOM     20  C   UNL     1      47.762   6.333  12.875  0.00  0.00    +0.000 A 
ATOM     21  C   UNL     1      47.057   5.402  13.653  0.00  0.00    +0.000 A 
ATOM     22  C   UNL     1      45.854   4.897  13.123  0.00  0.00    +0.000 A 
BRANCH  21  23
ATOM     23  C   UNL     1      47.477   5.054  15.031  0.00  0.00    +0.000 A 
ATOM     24  C   UNL     1      48.398   5.863  15.726  0.00  0.00    +0.000 A 
ATOM     25  C   UNL     1      48.714   5.628  17.067  0.00  0.00    +0.000 A 
ATOM     26  C   UNL     1      48.105   4.584  17.755  0.00  0.00    +0.000 A 
ATOM     27  C   UNL     1      47.201   3.771  17.083  0.00  0.00    +0.000 A 
ATOM     28  C   UNL     1      46.905   3.981  15.736  0.00  0.00    +0.000 A 
BRANCH  27  29
ATOM     29  O   UNL     1      46.549   2.759  17.726  0.00  0.00    +0.000 OA
ATOM     30  H   UNL     1      45.793   3.139  18.206  0.00  0.00    +0.000 HD
ENDBRANCH  27  29
ENDBRANCH  21  23
ENDBRANCH   1  17
TORSDOF 5
ENDMDL
MODEL 2
REMARK VINA RESULT:    -9.608      2.406      3.677
REMARK INTER + INTRA:         -12.722
REMARK INTER:                 -11.481
REMARK INTRA:                  -1.240
REMARK UNBOUND:                -0.586
REMARK  Name = 
REMARK  5 active torsions:
REMARK  status: ('A' for Active; 'I' for Inactive)
REMARK    1  A    between atoms: C_2  and  C_4
REMARK    2  A    between atoms: N_8  and  C_9
REMARK    3  A    between atoms: C_9  and  C_10
REMARK    4  A    between atoms: C_14  and  C_15
REMARK    5  A    between atoms: C_19  and  O_20
REMARK                            x       y       z     vdW  Elec       q    Type
REMARK                         _______ _______ _______ _____ _____    ______ ____
ROOT
ATOM      1  C   UNL     1      43.816   4.889  11.357  0.00  0.00    +0.000 C 
ATOM      2  C   UNL     1      42.480   5.169  12.033  0.00  0.00    +0.000 C 
ATOM      3  C   UNL     1      43.012   6.131  11.026  0.00  0.00    +0.000 C 
ENDROOT
BRANCH   1   8
ATOM      4  C   UNL     1      46.547   2.751   7.489  0.00  0.00    +0.000 A 
ATOM      5  C   UNL     1      46.157   4.083   7.634  0.00  0.00    +0.000 A 
ATOM      6  C   UNL     1      45.275   4.426   8.655  0.00  0.00    +0.000 A 
ATOM      7  C   UNL     1      44.787   3.443   9.510  0.00  0.00    +0.000 A 
ATOM      8  N   UNL     1      43.827   3.689  10.496  0.00  0.00    +0.000 N 
ATOM      9  N   UNL     1      45.150   2.148   9.373  0.00  0.00    +0.000 NA
ATOM     10  C   UNL     1      46.012   1.828   8.372  0.00  0.00    +0.000 A 
ATOM     11  H   UNL     1      43.738   2.804  10.994  0.00  0.00    +0.000 HD
BRANCH   4  13
ATOM     12  N   UNL     1      47.396   2.925   5.215  0.00  0.00    +0.000 N 
ATOM     13  C   UNL     1      47.459   2.286   6.421  0.00  0.00    +0.000 C 
ATOM     14  O   UNL     1      48.260   1.383   6.620  0.00  0.00    +0.000 OA
ATOM     15  H   UNL     1      48.091   2.656   4.530  0.00  0.00    +0.000 HD
ATOM     16  H   UNL     1      46.930   3.812   5.089  0.00  0.00    +0.000 HD
ENDBRANCH   4  13
ENDBRANCH   1   8
BRANCH   1  17
ATOM     17  C   UNL     1      45.096   5.050  12.174  0.00  0.00    +0.000 A 
ATOM     18  C   UNL     1      45.545   4.056  13.059  0.00  0.00    +0.000 A 
ATOM     19  C   UNL     1      46.768   4.171  13.716  0.00  0.00    +0.000 A 
ATOM     20  C   UNL     1      47.590   5.274  13.474  0.00  0.00    +0.000 A 
ATOM     21  C   UNL     1      47.204   6.282  12.578  0.00  0.00    +0.000 A 
ATOM     22  C   UNL     1      45.936   6.163  11.978  0.00  0.00    +0.000 A 
BRANCH  21  23
ATOM     23  C   UNL     1      48.133   7.362  12.166  0.00  0.00    +0.000 A 
ATOM     24  C   UNL     1      47.673   8.683  12.007  0.00  0.00    +0.000 A 
ATOM     25  C   UNL     1      48.550   9.739  11.743  0.00  0.00    +0.000 A 
ATOM     26  C   UNL     1      49.916   9.502  11.644  0.00  0.00    +0.000 A 
ATOM     27  C   UNL     1      50.388   8.203  11.789  0.00  0.00    +0.000 A 
ATOM     28  C   UNL     1      49.515   7.141  12.022  0.00  0.00    +0.000 A 
BRANCH  27  29
ATOM     29  O   UNL     1      51.724   7.928  11.740  0.00  0.00    +0.000 OA
ATOM     30  H   UNL     1      51.897   7.152  12.299  0.00  0.00    +0.000 HD
ENDBRANCH  27  29
ENDBRANCH  21  23
ENDBRANCH   1  17
TORSDOF 5
ENDMDL
MODEL 3
REMARK VINA RESULT:    -8.058      3.594      7.359
REMARK INTER + INTRA:         -10.765
REMARK INTER:                  -9.693
REMARK INTRA:                  -1.071
REMARK UNBOUND:                -0.586
REMARK  Name = 
REMARK  5 active torsions:
REMARK  status: ('A' for Active; 'I' for Inactive)
REMARK    1  A    between atoms: C_2  and  C_4
REMARK    2  A    between atoms: N_8  and  C_9
REMARK    3  A    between atoms: C_9  and  C_10
REMARK    4  A    between atoms: C_14  and  C_15
REMARK    5  A    between atoms: C_19  and  O_20
REMARK                            x       y       z     vdW  Elec       q    Type
REMARK                         _______ _______ _______ _____ _____    ______ ____
ROOT
ATOM      1  C   UNL     1      46.143   5.196  13.330  0.00  0.00    +0.000 C 
ATOM      2  C   UNL     1      46.102   4.289  14.553  0.00  0.00    +0.000 C 
ATOM      3  C   UNL     1      47.280   4.244  13.640  0.00  0.00    +0.000 C 
ENDROOT
BRANCH   1   8
ATOM      4  C   UNL     1      48.272   9.596  11.570  0.00  0.00    +0.000 A 
ATOM      5  C   UNL     1      48.873   8.345  11.712  0.00  0.00    +0.000 A 
ATOM      6  C   UNL     1      48.184   7.330  12.370  0.00  0.00    +0.000 A 
ATOM      7  C   UNL     1      46.915   7.573  12.884  0.00  0.00    +0.000 A 
ATOM      8  N   UNL     1      46.199   6.639  13.639  0.00  0.00    +0.000 N 
ATOM      9  N   UNL     1      46.326   8.783  12.761  0.00  0.00    +0.000 NA
ATOM     10  C   UNL     1      47.011   9.765  12.116  0.00  0.00    +0.000 A 
ATOM     11  H   UNL     1      45.293   7.078  13.798  0.00  0.00    +0.000 HD
BRANCH   4  13
ATOM     12  N   UNL     1      50.280  10.885  11.092  0.00  0.00    +0.000 N 
ATOM     13  C   UNL     1      48.934  10.742  10.909  0.00  0.00    +0.000 C 
ATOM     14  O   UNL     1      48.304  11.516  10.201  0.00  0.00    +0.000 OA
ATOM     15  H   UNL     1      50.730  11.617  10.557  0.00  0.00    +0.000 HD
ATOM     16  H   UNL     1      50.864  10.148  11.462  0.00  0.00    +0.000 HD
ENDBRANCH   4  13
ENDBRANCH   1   8
BRANCH   1  17
ATOM     17  C   UNL     1      45.227   4.873  12.151  0.00  0.00    +0.000 A 
ATOM     18  C   UNL     1      43.972   5.482  11.993  0.00  0.00    +0.000 A 
ATOM     19  C   UNL     1      43.196   5.257  10.858  0.00  0.00    +0.000 A 
ATOM     20  C   UNL     1      43.677   4.439   9.833  0.00  0.00    +0.000 A 
ATOM     21  C   UNL     1      44.938   3.828   9.925  0.00  0.00    +0.000 A 
ATOM     22  C   UNL     1      45.668   4.030  11.112  0.00  0.00    +0.000 A 
BRANCH  21  23
ATOM     23  C   UNL     1      45.546   3.111   8.779  0.00  0.00    +0.000 A 
ATOM     24  C   UNL     1      46.025   3.821   7.661  0.00  0.00    +0.000 A 
ATOM     25  C   UNL     1      46.714   3.181   6.626  0.00  0.00    +0.000 A 
ATOM     26  C   UNL     1      46.954   1.813   6.690  0.00  0.00    +0.000 A 
ATOM     27  C   UNL     1      46.481   1.095   7.782  0.00  0.00    +0.000 A 
ATOM     28  C   UNL     1      45.766   1.722   8.802  0.00  0.00    +0.000 A 
BRANCH  27  29
ATOM     29  O   UNL     1      46.727  -0.241   7.907  0.00  0.00    +0.000 OA
ATOM     30  H   UNL     1      47.260  -0.526   7.147  0.00  0.00    +0.000 HD
ENDBRANCH  27  29
ENDBRANCH  21  23
ENDBRANCH   1  17
TORSDOF 5
ENDMDL
MODEL 4
REMARK VINA RESULT:    -7.880      2.821      8.369
REMARK INTER + INTRA:         -10.540
REMARK INTER:                 -10.785
REMARK INTRA:                   0.246
REMARK UNBOUND:                -0.586
REMARK  Name = 
REMARK  5 active torsions:
REMARK  status: ('A' for Active; 'I' for Inactive)
REMARK    1  A    between atoms: C_2  and  C_4
REMARK    2  A    between atoms: N_8  and  C_9
REMARK    3  A    between atoms: C_9  and  C_10
REMARK    4  A    between atoms: C_14  and  C_15
REMARK    5  A    between atoms: C_19  and  O_20
REMARK                            x       y       z     vdW  Elec       q    Type
REMARK                         _______ _______ _______ _____ _____    ______ ____
ROOT
ATOM      1  C   UNL     1      46.435   5.511  12.938  0.00  0.00    +0.000 C 
ATOM      2  C   UNL     1      47.570   6.443  12.532  0.00  0.00    +0.000 C 
ATOM      3  C   UNL     1      46.429   6.973  13.334  0.00  0.00    +0.000 C 
ENDROOT
BRANCH   1   8
ATOM      4  C   UNL     1      48.128   4.817  17.801  0.00  0.00    +0.000 A 
ATOM      5  C   UNL     1      48.542   5.773  16.873  0.00  0.00    +0.000 A 
ATOM      6  C   UNL     1      48.093   5.684  15.558  0.00  0.00    +0.000 A 
ATOM      7  C   UNL     1      47.248   4.645  15.183  0.00  0.00    +0.000 A 
ATOM      8  N   UNL     1      46.832   4.431  13.865  0.00  0.00    +0.000 N 
ATOM      9  N   UNL     1      46.848   3.708  16.070  0.00  0.00    +0.000 NA
ATOM     10  C   UNL     1      47.294   3.808  17.350  0.00  0.00    +0.000 A 
ATOM     11  H   UNL     1      46.171   3.657  13.927  0.00  0.00    +0.000 HD
BRANCH   4  13
ATOM     12  N   UNL     1      48.390   3.663  19.927  0.00  0.00    +0.000 N 
ATOM     13  C   UNL     1      48.570   4.814  19.212  0.00  0.00    +0.000 C 
ATOM     14  O   UNL     1      49.105   5.794  19.712  0.00  0.00    +0.000 OA
ATOM     15  H   UNL     1      48.784   3.649  20.860  0.00  0.00    +0.000 HD
ATOM     16  H   UNL     1      48.180   2.776  19.493  0.00  0.00    +0.000 HD
ENDBRANCH   4  13
ENDBRANCH   1   8
BRANCH   1  17
ATOM     17  C   UNL     1      45.453   5.046  11.865  0.00  0.00    +0.000 A 
ATOM     18  C   UNL     1      44.154   5.570  11.766  0.00  0.00    +0.000 A 
ATOM     19  C   UNL     1      43.308   5.214  10.717  0.00  0.00    +0.000 A 
ATOM     20  C   UNL     1      43.758   4.347   9.720  0.00  0.00    +0.000 A 
ATOM     21  C   UNL     1      45.057   3.816   9.753  0.00  0.00    +0.000 A 
ATOM     22  C   UNL     1      45.863   4.150  10.859  0.00  0.00    +0.000 A 
BRANCH  21  23
ATOM     23  C   UNL     1      45.618   3.046   8.618  0.00  0.00    +0.000 A 
ATOM     24  C   UNL     1      46.047   3.702   7.448  0.00  0.00    +0.000 A 
ATOM     25  C   UNL     1      46.693   3.015   6.416  0.00  0.00    +0.000 A 
ATOM     26  C   UNL     1      46.940   1.652   6.534  0.00  0.00    +0.000 A 
ATOM     27  C   UNL     1      46.515   0.985   7.677  0.00  0.00    +0.000 A 
ATOM     28  C   UNL     1      45.843   1.660   8.696  0.00  0.00    +0.000 A 
BRANCH  27  29
ATOM     29  O   UNL     1      46.770  -0.343   7.855  0.00  0.00    +0.000 OA
ATOM     30  H   UNL     1      46.776  -0.529   8.809  0.00  0.00    +0.000 HD
ENDBRANCH  27  29
ENDBRANCH  21  23
ENDBRANCH   1  17
TORSDOF 5
ENDMDL
MODEL 5
REMARK VINA RESULT:    -7.770      3.647      8.273
REMARK INTER + INTRA:         -10.400
REMARK INTER:                  -9.299
REMARK INTRA:                  -1.102
REMARK UNBOUND:                -0.586
REMARK  Name = 
REMARK  5 active torsions:
REMARK  status: ('A' for Active; 'I' for Inactive)
REMARK    1  A    between atoms: C_2  and  C_4
REMARK    2  A    between atoms: N_8  and  C_9
REMARK    3  A    between atoms: C_9  and  C_10
REMARK    4  A    between atoms: C_14  and  C_15
REMARK    5  A    between atoms: C_19  and  O_20
REMARK                            x       y       z     vdW  Elec       q    Type
REMARK                         _______ _______ _______ _____ _____    ______ ____
ROOT
ATOM      1  C   UNL     1      49.065   7.943  12.613  0.00  0.00    +0.000 C 
ATOM      2  C   UNL     1      50.000   8.113  11.423  0.00  0.00    +0.000 C 
ATOM      3  C   UNL     1      49.740   9.269  12.329  0.00  0.00    +0.000 C 
ENDROOT
BRANCH   1   8
ATOM      4  C   UNL     1      48.405   6.804  17.639  0.00  0.00    +0.000 A 
ATOM      5  C   UNL     1      48.535   8.063  17.051  0.00  0.00    +0.000 A 
ATOM      6  C   UNL     1      48.883   8.153  15.706  0.00  0.00    +0.000 A 
ATOM      7  C   UNL     1      49.105   6.995  14.969  0.00  0.00    +0.000 A 
ATOM      8  N   UNL     1      49.550   7.002  13.643  0.00  0.00    +0.000 N 
ATOM      9  N   UNL     1      48.993   5.771  15.530  0.00  0.00    +0.000 NA
ATOM     10  C   UNL     1      48.653   5.699  16.844  0.00  0.00    +0.000 A 
ATOM     11  H   UNL     1      49.541   6.021  13.364  0.00  0.00    +0.000 HD
BRANCH   4  13
ATOM     12  N   UNL     1      47.080   5.707  19.360  0.00  0.00    +0.000 N 
ATOM     13  C   UNL     1      48.064   6.608  19.065  0.00  0.00    +0.000 C 
ATOM     14  O   UNL     1      48.661   7.207  19.948  0.00  0.00    +0.000 OA
ATOM     15  H   UNL     1      46.927   5.517  20.343  0.00  0.00    +0.000 HD
ATOM     16  H   UNL     1      46.739   5.030  18.693  0.00  0.00    +0.000 HD
ENDBRANCH   4  13
ENDBRANCH   1   8
BRANCH   1  17
ATOM     17  C   UNL     1      47.565   7.821  12.352  0.00  0.00    +0.000 A 
ATOM     18  C   UNL     1      46.685   8.898  12.547  0.00  0.00    +0.000 A 
ATOM     19  C   UNL     1      45.338   8.803  12.203  0.00  0.00    +0.000 A 
ATOM     20  C   UNL     1      44.847   7.633  11.620  0.00  0.00    +0.000 A 
ATOM     21  C   UNL     1      45.688   6.537  11.376  0.00  0.00    +0.000 A 
ATOM     22  C   UNL     1      47.029   6.646  11.791  0.00  0.00    +0.000 A 
BRANCH  21  23
ATOM     23  C   UNL     1      45.235   5.361  10.595  0.00  0.00    +0.000 A 
ATOM     24  C   UNL     1      45.684   5.160   9.275  0.00  0.00    +0.000 A 
ATOM     25  C   UNL     1      45.373   3.997   8.564  0.00  0.00    +0.000 A 
ATOM     26  C   UNL     1      44.613   2.997   9.160  0.00  0.00    +0.000 A 
ATOM     27  C   UNL     1      44.153   3.183  10.458  0.00  0.00    +0.000 A 
ATOM     28  C   UNL     1      44.435   4.353  11.162  0.00  0.00    +0.000 A 
BRANCH  27  29
ATOM     29  O   UNL     1      43.438   2.213  11.098  0.00  0.00    +0.000 OA
ATOM     30  H   UNL     1      44.063   1.573  11.478  0.00  0.00    +0.000 HD
ENDBRANCH  27  29
ENDBRANCH  21  23
ENDBRANCH   1  17
TORSDOF 5
ENDMDL
MODEL 6
REMARK VINA RESULT:    -7.434      2.763      4.568
REMARK INTER + INTRA:          -9.976
REMARK INTER:                  -9.480
REMARK INTRA:                  -0.496
REMARK UNBOUND:                -0.586
REMARK  Name = 
REMARK  5 active torsions:
REMARK  status: ('A' for Active; 'I' for Inactive)
REMARK    1  A    between atoms: C_2  and  C_4
REMARK    2  A    between atoms: N_8  and  C_9
REMARK    3  A    between atoms: C_9  and  C_10
REMARK    4  A    between atoms: C_14  and  C_15
REMARK    5  A    between atoms: C_19  and  O_20
REMARK                            x       y       z     vdW  Elec       q    Type
REMARK                         _______ _______ _______ _____ _____    ______ ____
ROOT
ATOM      1  C   UNL     1      47.362   8.557  13.112  0.00  0.00    +0.000 C 
ATOM      2  C   UNL     1      47.506   9.903  12.414  0.00  0.00    +0.000 C 
ATOM      3  C   UNL     1      48.169   8.698  11.837  0.00  0.00    +0.000 C 
ENDROOT
BRANCH   1   8
ATOM      4  C   UNL     1      44.633   4.434  11.517  0.00  0.00    +0.000 A 
ATOM      5  C   UNL     1      45.597   5.154  10.811  0.00  0.00    +0.000 A 
ATOM      6  C   UNL     1      46.090   6.340  11.349  0.00  0.00    +0.000 A 
ATOM      7  C   UNL     1      45.614   6.796  12.573  0.00  0.00    +0.000 A 
ATOM      8  N   UNL     1      45.986   8.022  13.134  0.00  0.00    +0.000 N 
ATOM      9  N   UNL     1      44.673   6.112  13.262  0.00  0.00    +0.000 NA
ATOM     10  C   UNL     1      44.202   4.957  12.724  0.00  0.00    +0.000 A 
ATOM     11  H   UNL     1      45.538   8.031  14.050  0.00  0.00    +0.000 HD
BRANCH   4  13
ATOM     12  N   UNL     1      44.730   2.477  10.073  0.00  0.00    +0.000 N 
ATOM     13  C   UNL     1      44.032   3.178  11.016  0.00  0.00    +0.000 C 
ATOM     14  O   UNL     1      42.966   2.767  11.452  0.00  0.00    +0.000 OA
ATOM     15  H   UNL     1      44.349   1.576   9.813  0.00  0.00    +0.000 HD
ATOM     16  H   UNL     1      45.703   2.652   9.870  0.00  0.00    +0.000 HD
ENDBRANCH   4  13
ENDBRANCH   1   8
BRANCH   1  17
ATOM     17  C   UNL     1      48.112   8.331  14.424  0.00  0.00    +0.000 A 
ATOM     18  C   UNL     1      48.502   9.396  15.251  0.00  0.00    +0.000 A 
ATOM     19  C   UNL     1      49.089   9.168  16.494  0.00  0.00    +0.000 A 
ATOM     20  C   UNL     1      49.269   7.862  16.954  0.00  0.00    +0.000 A 
ATOM     21  C   UNL     1      48.871   6.761  16.180  0.00  0.00    +0.000 A 
ATOM     22  C   UNL     1      48.337   7.027  14.905  0.00  0.00    +0.000 A 
BRANCH  21  23
ATOM     23  C   UNL     1      48.881   5.381  16.720  0.00  0.00    +0.000 A 
ATOM     24  C   UNL     1      50.071   4.811  17.213  0.00  0.00    +0.000 A 
ATOM     25  C   UNL     1      50.081   3.562  17.840  0.00  0.00    +0.000 A 
ATOM     26  C   UNL     1      48.896   2.853  18.003  0.00  0.00    +0.000 A 
ATOM     27  C   UNL     1      47.713   3.395  17.514  0.00  0.00    +0.000 A 
ATOM     28  C   UNL     1      47.701   4.627  16.860  0.00  0.00    +0.000 A 
BRANCH  27  29
ATOM     29  O   UNL     1      46.520   2.756  17.686  0.00  0.00    +0.000 OA
ATOM     30  H   UNL     1      46.656   2.016  18.301  0.00  0.00    +0.000 HD
ENDBRANCH  27  29
ENDBRANCH  21  23
ENDBRANCH   1  17
TORSDOF 5
ENDMDL
MODEL 7
REMARK VINA RESULT:    -7.225      1.853      2.687
REMARK INTER + INTRA:          -9.713
REMARK INTER:                  -8.591
REMARK INTRA:                  -1.121
REMARK UNBOUND:                -0.586
REMARK  Name = 
REMARK  5 active torsions:
REMARK  status: ('A' for Active; 'I' for Inactive)
REMARK    1  A    between atoms: C_2  and  C_4
REMARK    2  A    between atoms: N_8  and  C_9
REMARK    3  A    between atoms: C_9  and  C_10
REMARK    4  A    between atoms: C_14  and  C_15
REMARK    5  A    between atoms: C_19  and  O_20
REMARK                            x       y       z     vdW  Elec       q    Type
REMARK                         _______ _______ _______ _____ _____    ______ ____
ROOT
ATOM      1  C   UNL     1      45.478   8.057  11.996  0.00  0.00    +0.000 C 
ATOM      2  C   UNL     1      44.850   9.314  12.584  0.00  0.00    +0.000 C 
ATOM      3  C   UNL     1      45.373   9.334  11.187  0.00  0.00    +0.000 C 
ENDROOT
BRANCH   1   8
ATOM      4  C   UNL     1      45.130   3.454   9.612  0.00  0.00    +0.000 A 
ATOM      5  C   UNL     1      45.613   4.657   9.096  0.00  0.00    +0.000 A 
ATOM      6  C   UNL     1      45.459   5.826   9.837  0.00  0.00    +0.000 A 
ATOM      7  C   UNL     1      44.822   5.785  11.072  0.00  0.00    +0.000 A 
ATOM      8  N   UNL     1      44.543   6.926  11.831  0.00  0.00    +0.000 N 
ATOM      9  N   UNL     1      44.342   4.627  11.578  0.00  0.00    +0.000 NA
ATOM     10  C   UNL     1      44.499   3.495  10.844  0.00  0.00    +0.000 A 
ATOM     11  H   UNL     1      44.150   6.566  12.700  0.00  0.00    +0.000 HD
BRANCH   4  13
ATOM     12  N   UNL     1      46.280   1.997   8.039  0.00  0.00    +0.000 N 
ATOM     13  C   UNL     1      45.225   2.167   8.889  0.00  0.00    +0.000 C 
ATOM     14  O   UNL     1      44.406   1.277   9.070  0.00  0.00    +0.000 OA
ATOM     15  H   UNL     1      46.380   1.077   7.627  0.00  0.00    +0.000 HD
ATOM     16  H   UNL     1      47.091   2.599   8.045  0.00  0.00    +0.000 HD
ENDBRANCH   4  13
ENDBRANCH   1   8
BRANCH   1  17
ATOM     17  C   UNL     1      46.855   7.626  12.497  0.00  0.00    +0.000 A 
ATOM     18  C   UNL     1      48.041   8.126  11.936  0.00  0.00    +0.000 A 
ATOM     19  C   UNL     1      49.286   7.806  12.474  0.00  0.00    +0.000 A 
ATOM     20  C   UNL     1      49.370   7.001  13.612  0.00  0.00    +0.000 A 
ATOM     21  C   UNL     1      48.215   6.499  14.230  0.00  0.00    +0.000 A 
ATOM     22  C   UNL     1      46.978   6.793  13.625  0.00  0.00    +0.000 A 
BRANCH  21  23
ATOM     23  C   UNL     1      48.267   5.801  15.537  0.00  0.00    +0.000 A 
ATOM     24  C   UNL     1      49.086   6.284  16.577  0.00  0.00    +0.000 A 
ATOM     25  C   UNL     1      49.057   5.719  17.855  0.00  0.00    +0.000 A 
ATOM     26  C   UNL     1      48.197   4.663  18.132  0.00  0.00    +0.000 A 
ATOM     27  C   UNL     1      47.388   4.168  17.116  0.00  0.00    +0.000 A 
ATOM     28  C   UNL     1      47.434   4.706  15.831  0.00  0.00    +0.000 A 
BRANCH  27  29
ATOM     29  O   UNL     1      46.500   3.159  17.351  0.00  0.00    +0.000 OA
ATOM     30  H   UNL     1      46.992   2.322  17.391  0.00  0.00    +0.000 HD
ENDBRANCH  27  29
ENDBRANCH  21  23
ENDBRANCH   1  17
TORSDOF 5
ENDMDL
MODEL 8
REMARK VINA RESULT:    -7.112      3.370      8.021
REMARK INTER + INTRA:          -9.570
REMARK INTER:                  -9.263
REMARK INTRA:                  -0.307
REMARK UNBOUND:                -0.586
REMARK  Name = 
REMARK  5 active torsions:
REMARK  status: ('A' for Active; 'I' for Inactive)
REMARK    1  A    between atoms: C_2  and  C_4
REMARK    2  A    between atoms: N_8  and  C_9
REMARK    3  A    between atoms: C_9  and  C_10
REMARK    4  A    between atoms: C_14  and  C_15
REMARK    5  A    between atoms: C_19  and  O_20
REMARK                            x       y       z     vdW  Elec       q    Type
REMARK                         _______ _______ _______ _____ _____    ______ ____
ROOT
ATOM      1  C   UNL     1      45.611   7.202  11.792  0.00  0.00    +0.000 C 
ATOM      2  C   UNL     1      45.139   8.470  11.092  0.00  0.00    +0.000 C 
ATOM      3  C   UNL     1      44.751   8.222  12.511  0.00  0.00    +0.000 C 
ENDROOT
BRANCH   1   8
ATOM      4  C   UNL     1      49.259   8.088  15.383  0.00  0.00    +0.000 A 
ATOM      5  C   UNL     1      48.170   8.892  15.045  0.00  0.00    +0.000 A 
ATOM      6  C   UNL     1      47.403   8.565  13.931  0.00  0.00    +0.000 A 
ATOM      7  C   UNL     1      47.733   7.453  13.164  0.00  0.00    +0.000 A 
ATOM      8  N   UNL     1      47.073   7.113  11.979  0.00  0.00    +0.000 N 
ATOM      9  N   UNL     1      48.791   6.672  13.475  0.00  0.00    +0.000 NA
ATOM     10  C   UNL     1      49.531   7.004  14.566  0.00  0.00    +0.000 A 
ATOM     11  H   UNL     1      47.487   6.223  11.701  0.00  0.00    +0.000 HD
BRANCH   4  13
ATOM     12  N   UNL     1      50.491   7.317  17.336  0.00  0.00    +0.000 N 
ATOM     13  C   UNL     1      50.147   8.368  16.533  0.00  0.00    +0.000 C 
ATOM     14  O   UNL     1      50.582   9.492  16.739  0.00  0.00    +0.000 OA
ATOM     15  H   UNL     1      51.172   7.510  18.059  0.00  0.00    +0.000 HD
ATOM     16  H   UNL     1      50.352   6.354  17.066  0.00  0.00    +0.000 HD
ENDBRANCH   4  13
ENDBRANCH   1   8
BRANCH   1  17
ATOM     17  C   UNL     1      44.977   5.870  11.395  0.00  0.00    +0.000 A 
ATOM     18  C   UNL     1      43.714   5.476  11.865  0.00  0.00    +0.000 A 
ATOM     19  C   UNL     1      43.105   4.309  11.410  0.00  0.00    +0.000 A 
ATOM     20  C   UNL     1      43.734   3.523  10.442  0.00  0.00    +0.000 A 
ATOM     21  C   UNL     1      44.984   3.885   9.916  0.00  0.00    +0.000 A 
ATOM     22  C   UNL     1      45.597   5.038  10.443  0.00  0.00    +0.000 A 
BRANCH  21  23
ATOM     23  C   UNL     1      45.583   3.173   8.762  0.00  0.00    +0.000 A 
ATOM     24  C   UNL     1      46.060   3.889   7.646  0.00  0.00    +0.000 A 
ATOM     25  C   UNL     1      46.741   3.253   6.604  0.00  0.00    +0.000 A 
ATOM     26  C   UNL     1      46.977   1.884   6.657  0.00  0.00    +0.000 A 
ATOM     27  C   UNL     1      46.507   1.161   7.747  0.00  0.00    +0.000 A 
ATOM     28  C   UNL     1      45.799   1.784   8.774  0.00  0.00    +0.000 A 
BRANCH  27  29
ATOM     29  O   UNL     1      46.749  -0.177   7.862  0.00  0.00    +0.000 OA
ATOM     30  H   UNL     1      46.093  -0.555   8.472  0.00  0.00    +0.000 HD
ENDBRANCH  27  29
ENDBRANCH  21  23
ENDBRANCH   1  17
TORSDOF 5
ENDMDL
MODEL 9
REMARK VINA RESULT:    -7.059      2.624      3.438
REMARK INTER + INTRA:          -9.502
REMARK INTER:                  -9.404
REMARK INTRA:                  -0.098
REMARK UNBOUND:                -0.586
REMARK  Name = 
REMARK  5 active torsions:
REMARK  status: ('A' for Active; 'I' for Inactive)
REMARK    1  A    between atoms: C_2  and  C_4
REMARK    2  A    between atoms: N_8  and  C_9
REMARK    3  A    between atoms: C_9  and  C_10
REMARK    4  A    between atoms: C_14  and  C_15
REMARK    5  A    between atoms: C_19  and  O_20
REMARK                            x       y       z     vdW  Elec       q    Type
REMARK                         _______ _______ _______ _____ _____    ______ ____
ROOT
ATOM      1  C   UNL     1      44.192   3.942  11.800  0.00  0.00    +0.000 C 
ATOM      2  C   UNL     1      45.057   3.250  12.845  0.00  0.00    +0.000 C 
ATOM      3  C   UNL     1      43.617   3.511  13.134  0.00  0.00    +0.000 C 
ENDROOT
BRANCH   1   8
ATOM      4  C   UNL     1      46.538   2.982   7.264  0.00  0.00    +0.000 A 
ATOM      5  C   UNL     1      46.390   4.207   7.915  0.00  0.00    +0.000 A 
ATOM      6  C   UNL     1      45.573   4.286   9.039  0.00  0.00    +0.000 A 
ATOM      7  C   UNL     1      44.909   3.152   9.495  0.00  0.00    +0.000 A 
ATOM      8  N   UNL     1      43.998   3.168  10.556  0.00  0.00    +0.000 N 
ATOM      9  N   UNL     1      45.038   1.962   8.868  0.00  0.00    +0.000 NA
ATOM     10  C   UNL     1      45.838   1.900   7.772  0.00  0.00    +0.000 A 
ATOM     11  H   UNL     1      43.749   2.190  10.696  0.00  0.00    +0.000 HD
BRANCH   4  13
ATOM     12  N   UNL     1      48.684   2.499   6.223  0.00  0.00    +0.000 N 
ATOM     13  C   UNL     1      47.363   2.804   6.050  0.00  0.00    +0.000 C 
ATOM     14  O   UNL     1      46.875   2.897   4.932  0.00  0.00    +0.000 OA
ATOM     15  H   UNL     1      49.209   2.289   5.383  0.00  0.00    +0.000 HD
ATOM     16  H   UNL     1      49.062   2.183   7.105  0.00  0.00    +0.000 HD
ENDBRANCH   4  13
ENDBRANCH   1   8
BRANCH   1  17
ATOM     17  C   UNL     1      44.404   5.433  11.548  0.00  0.00    +0.000 A 
ATOM     18  C   UNL     1      43.345   6.288  11.202  0.00  0.00    +0.000 A 
ATOM     19  C   UNL     1      43.536   7.663  11.082  0.00  0.00    +0.000 A 
ATOM     20  C   UNL     1      44.790   8.220  11.340  0.00  0.00    +0.000 A 
ATOM     21  C   UNL     1      45.876   7.416  11.718  0.00  0.00    +0.000 A 
ATOM     22  C   UNL     1      45.662   6.026  11.771  0.00  0.00    +0.000 A 
BRANCH  21  23
ATOM     23  C   UNL     1      47.160   7.999  12.174  0.00  0.00    +0.000 A 
ATOM     24  C   UNL     1      47.391   9.386  12.088  0.00  0.00    +0.000 A 
ATOM     25  C   UNL     1      48.540   9.973  12.625  0.00  0.00    +0.000 A 
ATOM     26  C   UNL     1      49.485   9.189  13.277  0.00  0.00    +0.000 A 
ATOM     27  C   UNL     1      49.278   7.817  13.364  0.00  0.00    +0.000 A 
ATOM     28  C   UNL     1      48.150   7.221  12.803  0.00  0.00    +0.000 A 
BRANCH  27  29
ATOM     29  O   UNL     1      50.158   7.013  14.029  0.00  0.00    +0.000 OA
ATOM     30  H   UNL     1      51.001   7.488  14.116  0.00  0.00    +0.000 HD
ENDBRANCH  27  29
ENDBRANCH  21  23
ENDBRANCH   1  17
TORSDOF 5
ENDMDL
