MODEL 1
REMARK VINA RESULT:    -9.094      0.000      0.000
REMARK INTER + INTRA:         -13.667
REMARK INTER:                 -12.550
REMARK INTRA:                  -1.118
REMARK UNBOUND:                -1.118
REMARK  Name = 
REMARK  7 active torsions:
REMARK  status: ('A' for Active; 'I' for Inactive)
REMARK    1  A    between atoms: N_1  and  C_2
REMARK    2  A    between atoms: C_2  and  C_3
REMARK    3  A    between atoms: N_7  and  C_8
REMARK    4  A    between atoms: C_8  and  C_9
REMARK    5  A    between atoms: C_12  and  C_13
REMARK    6  A    between atoms: C_13  and  N_14
REMARK    7  A    between atoms: C_15  and  C_17
REMARK                            x       y       z     vdW  Elec       q    Type
REMARK                         _______ _______ _______ _____ _____    ______ ____
ROOT
ATOM      1  C   UNL     1      44.545   5.602  11.509  0.00  0.00    +0.000 A 
ATOM      2  C   UNL     1      44.502   7.003  11.483  0.00  0.00    +0.000 A 
ATOM      3  C   UNL     1      45.474   7.760  12.148  0.00  0.00    +0.000 A 
ATOM      4  C   UNL     1      46.519   7.130  12.834  0.00  0.00    +0.000 A 
ATOM      5  C   UNL     1      46.554   5.729  12.868  0.00  0.00    +0.000 A 
ATOM      6  C   UNL     1      45.584   4.972  12.204  0.00  0.00    +0.000 A 
ENDROOT
BRANCH   1   7
ATOM      7  C   UNL     1      43.499   4.793  10.773  0.00  0.00    +0.000 C 
BRANCH   7  12
ATOM      8  C   UNL     1      46.501   2.104   7.672  0.00  0.00    +0.000 A 
ATOM      9  C   UNL     1      45.692   1.673   8.718  0.00  0.00    +0.000 A 
ATOM     10  C   UNL     1      44.789   2.557   9.312  0.00  0.00    +0.000 A 
ATOM     11  C   UNL     1      44.719   3.870   8.865  0.00  0.00    +0.000 A 
ATOM     12  N   UNL     1      43.795   4.784   9.354  0.00  0.00    +0.000 N 
ATOM     13  N   UNL     1      45.503   4.313   7.864  0.00  0.00    +0.000 NA
ATOM     14  C   UNL     1      46.366   3.433   7.291  0.00  0.00    +0.000 A 
ATOM     15  H   UNL     1      44.010   5.693   8.953  0.00  0.00    +0.000 HD
BRANCH   8  16
ATOM     16  C   UNL     1      47.479   1.186   7.000  0.00  0.00    +0.000 C 
BRANCH  16  17
ATOM     17  N   UNL     1      48.356   1.908   6.082  0.00  0.00    +0.000 NA
ATOM     18  H   UNL     1      49.308   1.562   6.186  0.00  0.00    +0.000 HD
ATOM     19  H   UNL     1      48.379   2.892   6.349  0.00  0.00    +0.000 HD
ENDBRANCH  16  17
ENDBRANCH   8  16
ENDBRANCH   7  12
ENDBRANCH   1   7
BRANCH   4  20
ATOM     20  C   UNL     1      47.580   7.932  13.546  0.00  0.00    +0.000 C 
BRANCH  20  21
ATOM     21  N   UNL     1      47.867   7.382  14.847  0.00  0.00    +0.000 N 
ATOM     22  C   UNL     1      49.137   7.002  15.200  0.00  0.00    +0.000 C 
ATOM     23  O   UNL     1      50.094   7.136  14.442  0.00  0.00    +0.000 OA
ATOM     24  H   UNL     1      47.078   7.026  15.377  0.00  0.00    +0.000 HD
BRANCH  22  25
ATOM     25  C   UNL     1      49.304   6.482  16.563  0.00  0.00    +0.000 A 
ATOM     26  C   UNL     1      50.028   7.212  17.496  0.00  0.00    +0.000 A 
ATOM     27  S   UNL     1      50.081   6.486  19.040  0.00  0.00    +0.000 S 
ATOM     28  C   UNL     1      49.181   5.146  18.501  0.00  0.00    +0.000 A 
ATOM     29  N   UNL     1      48.891   4.115  19.338  0.00  0.00    +0.000 NA
ATOM     30  C   UNL     1      48.227   3.153  18.791  0.00  0.00    +0.000 A 
ATOM     31  N   UNL     1      47.819   3.132  17.482  0.00  0.00    +0.000 N 
ATOM     32  C   UNL     1      48.061   4.164  16.608  0.00  0.00    +0.000 A 
ATOM     33  O   UNL     1      47.637   4.136  15.458  0.00  0.00    +0.000 OA
ATOM     34  C   UNL     1      48.823   5.263  17.169  0.00  0.00    +0.000 A 
ATOM     35  H   UNL     1      47.290   2.353  17.117  0.00  0.00    +0.000 HD
ENDBRANCH  22  25
ENDBRANCH  20  21
ENDBRANCH   4  20
TORSDOF 7
ENDMDL
MODEL 2
REMARK VINA RESULT:    -9.072      1.355      1.551
REMARK INTER + INTRA:         -13.637
REMARK INTER:                 -12.685
REMARK INTRA:                  -0.952
REMARK UNBOUND:                -1.118
REMARK  Name = 
REMARK  7 active torsions:
REMARK  status: ('A' for Active; 'I' for Inactive)
REMARK    1  A    between atoms: N_1  and  C_2
REMARK    2  A    between atoms: C_2  and  C_3
REMARK    3  A    between atoms: N_7  and  C_8
REMARK    4  A    between atoms: C_8  and  C_9
REMARK    5  A    between atoms: C_12  and  C_13
REMARK    6  A    between atoms: C_13  and  N_14
REMARK    7  A    between atoms: C_15  and  C_17
REMARK                            x       y       z     vdW  Elec       q    Type
REMARK                         _______ _______ _______ _____ _____    ______ ____
ROOT
ATOM      1  C   UNL     1      44.774   5.212  11.797  0.00  0.00    +0.000 A 
ATOM      2  C   UNL     1      45.314   6.467  11.481  0.00  0.00    +0.000 A 
ATOM      3  C   UNL     1      46.448   6.947  12.147  0.00  0.00    +0.000 A 
ATOM      4  C   UNL     1      47.075   6.171  13.130  0.00  0.00    +0.000 A 
ATOM      5  C   UNL     1      46.528   4.922  13.453  0.00  0.00    +0.000 A 
ATOM      6  C   UNL     1      45.396   4.442  12.787  0.00  0.00    +0.000 A 
ENDROOT
BRANCH   1   7
ATOM      7  C   UNL     1      43.559   4.697  11.058  0.00  0.00    +0.000 C 
BRANCH   7  12
ATOM      8  C   UNL     1      46.400   2.172   7.680  0.00  0.00    +0.000 A 
ATOM      9  C   UNL     1      45.637   1.687   8.738  0.00  0.00    +0.000 A 
ATOM     10  C   UNL     1      44.768   2.540   9.420  0.00  0.00    +0.000 A 
ATOM     11  C   UNL     1      44.684   3.875   9.048  0.00  0.00    +0.000 A 
ATOM     12  N   UNL     1      43.789   4.764   9.629  0.00  0.00    +0.000 N 
ATOM     13  N   UNL     1      45.424   4.370   8.037  0.00  0.00    +0.000 NA
ATOM     14  C   UNL     1      46.254   3.520   7.378  0.00  0.00    +0.000 A 
ATOM     15  H   UNL     1      43.990   5.692   9.268  0.00  0.00    +0.000 HD
BRANCH   8  16
ATOM     16  C   UNL     1      47.341   1.289   6.914  0.00  0.00    +0.000 C 
BRANCH  16  17
ATOM     17  N   UNL     1      48.416   2.056   6.291  0.00  0.00    +0.000 NA
ATOM     18  H   UNL     1      48.095   3.008   6.125  0.00  0.00    +0.000 HD
ATOM     19  H   UNL     1      48.619   1.658   5.373  0.00  0.00    +0.000 HD
ENDBRANCH  16  17
ENDBRANCH   8  16
ENDBRANCH   7  12
ENDBRANCH   1   7
BRANCH   4  20
ATOM     20  C   UNL     1      48.303   6.669  13.850  0.00  0.00    +0.000 C 
BRANCH  20  21
ATOM     21  N   UNL     1      48.050   6.846  15.257  0.00  0.00    +0.000 N 
ATOM     22  C   UNL     1      49.015   6.592  16.198  0.00  0.00    +0.000 C 
ATOM     23  O   UNL     1      50.149   6.231  15.890  0.00  0.00    +0.000 OA
ATOM     24  H   UNL     1      47.077   6.885  15.545  0.00  0.00    +0.000 HD
BRANCH  22  25
ATOM     25  C   UNL     1      48.642   6.837  17.596  0.00  0.00    +0.000 A 
ATOM     26  C   UNL     1      48.307   8.120  18.007  0.00  0.00    +0.000 A 
ATOM     27  S   UNL     1      47.852   8.216  19.649  0.00  0.00    +0.000 S 
ATOM     28  C   UNL     1      48.135   6.554  19.881  0.00  0.00    +0.000 A 
ATOM     29  N   UNL     1      47.961   5.978  21.100  0.00  0.00    +0.000 NA
ATOM     30  C   UNL     1      48.238   4.718  21.139  0.00  0.00    +0.000 A 
ATOM     31  N   UNL     1      48.666   3.978  20.066  0.00  0.00    +0.000 N 
ATOM     32  C   UNL     1      48.825   4.510  18.810  0.00  0.00    +0.000 A 
ATOM     33  O   UNL     1      49.160   3.810  17.861  0.00  0.00    +0.000 OA
ATOM     34  C   UNL     1      48.546   5.930  18.715  0.00  0.00    +0.000 A 
ATOM     35  H   UNL     1      48.854   2.991  20.160  0.00  0.00    +0.000 HD
ENDBRANCH  22  25
ENDBRANCH  20  21
ENDBRANCH   4  20
TORSDOF 7
ENDMDL
MODEL 3
REMARK VINA RESULT:    -8.944      1.896      2.383
REMARK INTER + INTRA:         -13.460
REMARK INTER:                 -12.338
REMARK INTRA:                  -1.122
REMARK UNBOUND:                -1.118
REMARK  Name = 
REMARK  7 active torsions:
REMARK  status: ('A' for Active; 'I' for Inactive)
REMARK    1  A    between atoms: N_1  and  C_2
REMARK    2  A    between atoms: C_2  and  C_3
REMARK    3  A    between atoms: N_7  and  C_8
REMARK    4  A    between atoms: C_8  and  C_9
REMARK    5  A    between atoms: C_12  and  C_13
REMARK    6  A    between atoms: C_13  and  N_14
REMARK    7  A    between atoms: C_15  and  C_17
REMARK                            x       y       z     vdW  Elec       q    Type
REMARK                         _______ _______ _______ _____ _____    ______ ____
ROOT
ATOM      1  C   UNL     1      44.729   5.190  11.777  0.00  0.00    +0.000 A 
ATOM      2  C   UNL     1      45.203   6.489  11.545  0.00  0.00    +0.000 A 
ATOM      3  C   UNL     1      46.295   6.991  12.263  0.00  0.00    +0.000 A 
ATOM      4  C   UNL     1      46.947   6.196  13.213  0.00  0.00    +0.000 A 
ATOM      5  C   UNL     1      46.465   4.902  13.453  0.00  0.00    +0.000 A 
ATOM      6  C   UNL     1      45.374   4.399  12.736  0.00  0.00    +0.000 A 
ENDROOT
BRANCH   1   7
ATOM      7  C   UNL     1      43.560   4.652  10.984  0.00  0.00    +0.000 C 
BRANCH   7  12
ATOM      8  C   UNL     1      46.572   2.320   7.615  0.00  0.00    +0.000 A 
ATOM      9  C   UNL     1      45.791   1.780   8.632  0.00  0.00    +0.000 A 
ATOM     10  C   UNL     1      44.878   2.585   9.315  0.00  0.00    +0.000 A 
ATOM     11  C   UNL     1      44.768   3.930   8.984  0.00  0.00    +0.000 A 
ATOM     12  N   UNL     1      43.831   4.774   9.565  0.00  0.00    +0.000 N 
ATOM     13  N   UNL     1      45.525   4.478   8.014  0.00  0.00    +0.000 NA
ATOM     14  C   UNL     1      46.398   3.674   7.354  0.00  0.00    +0.000 A 
ATOM     15  H   UNL     1      44.017   5.719   9.242  0.00  0.00    +0.000 HD
BRANCH   8  16
ATOM     16  C   UNL     1      47.561   1.489   6.851  0.00  0.00    +0.000 C 
BRANCH  16  17
ATOM     17  N   UNL     1      48.561   2.317   6.182  0.00  0.00    +0.000 NA
ATOM     18  H   UNL     1      49.454   1.830   6.184  0.00  0.00    +0.000 HD
ATOM     19  H   UNL     1      48.699   3.172   6.722  0.00  0.00    +0.000 HD
ENDBRANCH  16  17
ENDBRANCH   8  16
ENDBRANCH   7  12
ENDBRANCH   1   7
BRANCH   4  20
ATOM     20  C   UNL     1      48.131   6.719  13.988  0.00  0.00    +0.000 C 
BRANCH  20  21
ATOM     21  N   UNL     1      47.976   6.486  15.401  0.00  0.00    +0.000 N 
ATOM     22  C   UNL     1      49.061   6.290  16.218  0.00  0.00    +0.000 C 
ATOM     23  O   UNL     1      50.214   6.333  15.796  0.00  0.00    +0.000 OA
ATOM     24  H   UNL     1      47.059   6.191  15.718  0.00  0.00    +0.000 HD
BRANCH  22  25
ATOM     25  C   UNL     1      48.773   6.090  17.644  0.00  0.00    +0.000 A 
ATOM     26  C   UNL     1      48.993   4.849  18.226  0.00  0.00    +0.000 A 
ATOM     27  S   UNL     1      48.652   4.807  19.897  0.00  0.00    +0.000 S 
ATOM     28  C   UNL     1      48.150   6.433  19.891  0.00  0.00    +0.000 A 
ATOM     29  N   UNL     1      47.695   7.029  21.025  0.00  0.00    +0.000 NA
ATOM     30  C   UNL     1      47.322   8.255  20.871  0.00  0.00    +0.000 A 
ATOM     31  N   UNL     1      47.370   8.943  19.686  0.00  0.00    +0.000 N 
ATOM     32  C   UNL     1      47.851   8.392  18.523  0.00  0.00    +0.000 A 
ATOM     33  O   UNL     1      47.927   9.051  17.492  0.00  0.00    +0.000 OA
ATOM     34  C   UNL     1      48.265   7.007  18.637  0.00  0.00    +0.000 A 
ATOM     35  H   UNL     1      47.074   9.906  19.634  0.00  0.00    +0.000 HD
ENDBRANCH  22  25
ENDBRANCH  20  21
ENDBRANCH   4  20
TORSDOF 7
ENDMDL
MODEL 4
REMARK VINA RESULT:    -8.396      1.647      2.162
REMARK INTER + INTRA:         -12.705
REMARK INTER:                 -11.816
REMARK INTRA:                  -0.888
REMARK UNBOUND:                -1.118
REMARK  Name = 
REMARK  7 active torsions:
REMARK  status: ('A' for Active; 'I' for Inactive)
REMARK    1  A    between atoms: N_1  and  C_2
REMARK    2  A    between atoms: C_2  and  C_3
REMARK    3  A    between atoms: N_7  and  C_8
REMARK    4  A    between atoms: C_8  and  C_9
REMARK    5  A    between atoms: C_12  and  C_13
REMARK    6  A    between atoms: C_13  and  N_14
REMARK    7  A    between atoms: C_15  and  C_17
REMARK                            x       y       z     vdW  Elec       q    Type
REMARK                         _______ _______ _______ _____ _____    ______ ____
ROOT
ATOM      1  C   UNL     1      44.686   4.972  11.504  0.00  0.00    +0.000 A 
ATOM      2  C   UNL     1      45.042   6.285  11.167  0.00  0.00    +0.000 A 
ATOM      3  C   UNL     1      46.017   6.972  11.899  0.00  0.00    +0.000 A 
ATOM      4  C   UNL     1      46.670   6.351  12.971  0.00  0.00    +0.000 A 
ATOM      5  C   UNL     1      46.304   5.042  13.314  0.00  0.00    +0.000 A 
ATOM      6  C   UNL     1      45.331   4.354  12.582  0.00  0.00    +0.000 A 
ENDROOT
BRANCH   1   7
ATOM      7  C   UNL     1      43.643   4.233  10.695  0.00  0.00    +0.000 C 
BRANCH   7  12
ATOM      8  C   UNL     1      46.870   2.229   7.313  0.00  0.00    +0.000 A 
ATOM      9  C   UNL     1      46.134   1.606   8.317  0.00  0.00    +0.000 A 
ATOM     10  C   UNL     1      45.149   2.317   9.005  0.00  0.00    +0.000 A 
ATOM     11  C   UNL     1      44.922   3.651   8.693  0.00  0.00    +0.000 A 
ATOM     12  N   UNL     1      43.911   4.400   9.280  0.00  0.00    +0.000 N 
ATOM     13  N   UNL     1      45.632   4.279   7.736  0.00  0.00    +0.000 NA
ATOM     14  C   UNL     1      46.577   3.565   7.070  0.00  0.00    +0.000 A 
ATOM     15  H   UNL     1      44.014   5.362   8.972  0.00  0.00    +0.000 HD
BRANCH   8  16
ATOM     16  C   UNL     1      47.932   1.500   6.544  0.00  0.00    +0.000 C 
BRANCH  16  17
ATOM     17  N   UNL     1      48.370   2.260   5.376  0.00  0.00    +0.000 NA
ATOM     18  H   UNL     1      48.461   3.241   5.629  0.00  0.00    +0.000 HD
ATOM     19  H   UNL     1      47.646   2.214   4.659  0.00  0.00    +0.000 HD
ENDBRANCH  16  17
ENDBRANCH   8  16
ENDBRANCH   7  12
ENDBRANCH   1   7
BRANCH   4  20
ATOM     20  C   UNL     1      47.730   7.074  13.764  0.00  0.00    +0.000 C 
BRANCH  20  21
ATOM     21  N   UNL     1      48.192   6.276  14.871  0.00  0.00    +0.000 N 
ATOM     22  C   UNL     1      48.971   6.812  15.865  0.00  0.00    +0.000 C 
ATOM     23  O   UNL     1      49.289   7.998  15.879  0.00  0.00    +0.000 OA
ATOM     24  H   UNL     1      48.167   5.269  14.750  0.00  0.00    +0.000 HD
BRANCH  22  25
ATOM     25  C   UNL     1      49.353   5.902  16.952  0.00  0.00    +0.000 A 
ATOM     26  C   UNL     1      48.371   5.283  17.713  0.00  0.00    +0.000 A 
ATOM     27  S   UNL     1      48.990   4.224  18.899  0.00  0.00    +0.000 S 
ATOM     28  C   UNL     1      50.595   4.594  18.470  0.00  0.00    +0.000 A 
ATOM     29  N   UNL     1      51.643   4.035  19.131  0.00  0.00    +0.000 NA
ATOM     30  C   UNL     1      52.802   4.425  18.721  0.00  0.00    +0.000 A 
ATOM     31  N   UNL     1      53.010   5.318  17.702  0.00  0.00    +0.000 N 
ATOM     32  C   UNL     1      51.984   5.883  16.984  0.00  0.00    +0.000 A 
ATOM     33  O   UNL     1      52.206   6.639  16.045  0.00  0.00    +0.000 OA
ATOM     34  C   UNL     1      50.657   5.493  17.420  0.00  0.00    +0.000 A 
ATOM     35  H   UNL     1      53.945   5.573  17.419  0.00  0.00    +0.000 HD
ENDBRANCH  22  25
ENDBRANCH  20  21
ENDBRANCH   4  20
TORSDOF 7
ENDMDL
MODEL 5
REMARK VINA RESULT:    -8.144      1.760      2.183
REMARK INTER + INTRA:         -12.357
REMARK INTER:                 -11.404
REMARK INTRA:                  -0.953
REMARK UNBOUND:                -1.118
REMARK  Name = 
REMARK  7 active torsions:
REMARK  status: ('A' for Active; 'I' for Inactive)
REMARK    1  A    between atoms: N_1  and  C_2
REMARK    2  A    between atoms: C_2  and  C_3
REMARK    3  A    between atoms: N_7  and  C_8
REMARK    4  A    between atoms: C_8  and  C_9
REMARK    5  A    between atoms: C_12  and  C_13
REMARK    6  A    between atoms: C_13  and  N_14
REMARK    7  A    between atoms: C_15  and  C_17
REMARK                            x       y       z     vdW  Elec       q    Type
REMARK                         _______ _______ _______ _____ _____    ______ ____
ROOT
ATOM      1  C   UNL     1      44.391   4.944  11.474  0.00  0.00    +0.000 A 
ATOM      2  C   UNL     1      43.892   6.184  11.052  0.00  0.00    +0.000 A 
ATOM      3  C   UNL     1      44.479   7.378  11.487  0.00  0.00    +0.000 A 
ATOM      4  C   UNL     1      45.591   7.354  12.337  0.00  0.00    +0.000 A 
ATOM      5  C   UNL     1      46.082   6.114  12.768  0.00  0.00    +0.000 A 
ATOM      6  C   UNL     1      45.497   4.921  12.333  0.00  0.00    +0.000 A 
ENDROOT
BRANCH   1   7
ATOM      7  C   UNL     1      43.760   3.660  10.984  0.00  0.00    +0.000 C 
BRANCH   7  12
ATOM      8  C   UNL     1      46.607   2.620   6.900  0.00  0.00    +0.000 A 
ATOM      9  C   UNL     1      46.263   3.849   7.453  0.00  0.00    +0.000 A 
ATOM     10  C   UNL     1      45.637   3.904   8.700  0.00  0.00    +0.000 A 
ATOM     11  C   UNL     1      45.345   2.724   9.374  0.00  0.00    +0.000 A 
ATOM     12  N   UNL     1      44.794   2.702  10.648  0.00  0.00    +0.000 N 
ATOM     13  N   UNL     1      45.655   1.522   8.851  0.00  0.00    +0.000 NA
ATOM     14  C   UNL     1      46.275   1.492   7.642  0.00  0.00    +0.000 A 
ATOM     15  H   UNL     1      44.578   1.736  10.879  0.00  0.00    +0.000 HD
BRANCH   8  16
ATOM     16  C   UNL     1      47.287   2.515   5.567  0.00  0.00    +0.000 C 
BRANCH  16  17
ATOM     17  N   UNL     1      48.579   1.843   5.670  0.00  0.00    +0.000 NA
ATOM     18  H   UNL     1      48.572   1.226   6.480  0.00  0.00    +0.000 HD
ATOM     19  H   UNL     1      49.304   2.539   5.847  0.00  0.00    +0.000 HD
ENDBRANCH  16  17
ENDBRANCH   8  16
ENDBRANCH   7  12
ENDBRANCH   1   7
BRANCH   4  20
ATOM     20  C   UNL     1      46.241   8.631  12.808  0.00  0.00    +0.000 C 
BRANCH  20  21
ATOM     21  N   UNL     1      46.780   8.487  14.136  0.00  0.00    +0.000 N 
ATOM     22  C   UNL     1      47.972   9.064  14.494  0.00  0.00    +0.000 C 
ATOM     23  O   UNL     1      48.623   9.754  13.714  0.00  0.00    +0.000 OA
ATOM     24  H   UNL     1      46.408   7.730  14.700  0.00  0.00    +0.000 HD
BRANCH  22  25
ATOM     25  C   UNL     1      48.398   8.867  15.884  0.00  0.00    +0.000 A 
ATOM     26  C   UNL     1      48.447   9.949  16.752  0.00  0.00    +0.000 A 
ATOM     27  S   UNL     1      48.916   9.533  18.339  0.00  0.00    +0.000 S 
ATOM     28  C   UNL     1      49.120   7.899  17.909  0.00  0.00    +0.000 A 
ATOM     29  N   UNL     1      49.548   6.984  18.818  0.00  0.00    +0.000 NA
ATOM     30  C   UNL     1      49.685   5.789  18.350  0.00  0.00    +0.000 A 
ATOM     31  N   UNL     1      49.426   5.424  17.054  0.00  0.00    +0.000 N 
ATOM     32  C   UNL     1      48.962   6.307  16.108  0.00  0.00    +0.000 A 
ATOM     33  O   UNL     1      48.692   5.937  14.971  0.00  0.00    +0.000 OA
ATOM     34  C   UNL     1      48.810   7.670  16.579  0.00  0.00    +0.000 A 
ATOM     35  H   UNL     1      49.542   4.468  16.752  0.00  0.00    +0.000 HD
ENDBRANCH  22  25
ENDBRANCH  20  21
ENDBRANCH   4  20
TORSDOF 7
ENDMDL
MODEL 6
REMARK VINA RESULT:    -8.115      2.474      4.292
REMARK INTER + INTRA:         -12.316
REMARK INTER:                 -11.125
REMARK INTRA:                  -1.191
REMARK UNBOUND:                -1.118
REMARK  Name = 
REMARK  7 active torsions:
REMARK  status: ('A' for Active; 'I' for Inactive)
REMARK    1  A    between atoms: N_1  and  C_2
REMARK    2  A    between atoms: C_2  and  C_3
REMARK    3  A    between atoms: N_7  and  C_8
REMARK    4  A    between atoms: C_8  and  C_9
REMARK    5  A    between atoms: C_12  and  C_13
REMARK    6  A    between atoms: C_13  and  N_14
REMARK    7  A    between atoms: C_15  and  C_17
REMARK                            x       y       z     vdW  Elec       q    Type
REMARK                         _______ _______ _______ _____ _____    ______ ____
ROOT
ATOM      1  C   UNL     1      44.424   4.359  11.925  0.00  0.00    +0.000 A 
ATOM      2  C   UNL     1      44.636   5.695  12.296  0.00  0.00    +0.000 A 
ATOM      3  C   UNL     1      45.651   6.035  13.198  0.00  0.00    +0.000 A 
ATOM      4  C   UNL     1      46.488   5.047  13.731  0.00  0.00    +0.000 A 
ATOM      5  C   UNL     1      46.267   3.710  13.369  0.00  0.00    +0.000 A 
ATOM      6  C   UNL     1      45.254   3.370  12.467  0.00  0.00    +0.000 A 
ENDROOT
BRANCH   1   7
ATOM      7  C   UNL     1      43.336   4.006  10.936  0.00  0.00    +0.000 C 
BRANCH   7  12
ATOM      8  C   UNL     1      46.639   2.416   7.412  0.00  0.00    +0.000 A 
ATOM      9  C   UNL     1      45.778   1.679   8.219  0.00  0.00    +0.000 A 
ATOM     10  C   UNL     1      44.805   2.330   8.979  0.00  0.00    +0.000 A 
ATOM     11  C   UNL     1      44.715   3.716   8.938  0.00  0.00    +0.000 A 
ATOM     12  N   UNL     1      43.726   4.426   9.605  0.00  0.00    +0.000 N 
ATOM     13  N   UNL     1      45.547   4.451   8.176  0.00  0.00    +0.000 NA
ATOM     14  C   UNL     1      46.479   3.796   7.434  0.00  0.00    +0.000 A 
ATOM     15  H   UNL     1      43.933   5.416   9.510  0.00  0.00    +0.000 HD
BRANCH   8  16
ATOM     16  C   UNL     1      47.694   1.757   6.573  0.00  0.00    +0.000 C 
BRANCH  16  17
ATOM     17  N   UNL     1      48.866   2.612   6.408  0.00  0.00    +0.000 NA
ATOM     18  H   UNL     1      49.075   2.707   5.416  0.00  0.00    +0.000 HD
ATOM     19  H   UNL     1      49.675   2.154   6.829  0.00  0.00    +0.000 HD
ENDBRANCH  16  17
ENDBRANCH   8  16
ENDBRANCH   7  12
ENDBRANCH   1   7
BRANCH   4  20
ATOM     20  C   UNL     1      47.592   5.398  14.697  0.00  0.00    +0.000 C 
BRANCH  20  21
ATOM     21  N   UNL     1      48.056   6.746  14.495  0.00  0.00    +0.000 N 
ATOM     22  C   UNL     1      49.268   7.168  14.979  0.00  0.00    +0.000 C 
ATOM     23  O   UNL     1      50.030   6.414  15.580  0.00  0.00    +0.000 OA
ATOM     24  H   UNL     1      47.357   7.437  14.243  0.00  0.00    +0.000 HD
BRANCH  22  25
ATOM     25  C   UNL     1      49.639   8.557  14.683  0.00  0.00    +0.000 A 
ATOM     26  C   UNL     1      50.037   9.400  15.712  0.00  0.00    +0.000 A 
ATOM     27  S   UNL     1      50.478  10.962  15.185  0.00  0.00    +0.000 S 
ATOM     28  C   UNL     1      50.104  10.582  13.569  0.00  0.00    +0.000 A 
ATOM     29  N   UNL     1      50.233  11.509  12.584  0.00  0.00    +0.000 NA
ATOM     30  C   UNL     1      49.889  11.095  11.411  0.00  0.00    +0.000 A 
ATOM     31  N   UNL     1      49.434   9.831  11.132  0.00  0.00    +0.000 N 
ATOM     32  C   UNL     1      49.318   8.852  12.089  0.00  0.00    +0.000 A 
ATOM     33  O   UNL     1      48.957   7.718  11.796  0.00  0.00    +0.000 OA
ATOM     34  C   UNL     1      49.673   9.274  13.430  0.00  0.00    +0.000 A 
ATOM     35  H   UNL     1      49.193   9.565  10.189  0.00  0.00    +0.000 HD
ENDBRANCH  22  25
ENDBRANCH  20  21
ENDBRANCH   4  20
TORSDOF 7
ENDMDL
MODEL 7
REMARK VINA RESULT:    -7.886      2.093      2.400
REMARK INTER + INTRA:         -12.000
REMARK INTER:                 -11.102
REMARK INTRA:                  -0.898
REMARK UNBOUND:                -1.118
REMARK  Name = 
REMARK  7 active torsions:
REMARK  status: ('A' for Active; 'I' for Inactive)
REMARK    1  A    between atoms: N_1  and  C_2
REMARK    2  A    between atoms: C_2  and  C_3
REMARK    3  A    between atoms: N_7  and  C_8
REMARK    4  A    between atoms: C_8  and  C_9
REMARK    5  A    between atoms: C_12  and  C_13
REMARK    6  A    between atoms: C_13  and  N_14
REMARK    7  A    between atoms: C_15  and  C_17
REMARK                            x       y       z     vdW  Elec       q    Type
REMARK                         _______ _______ _______ _____ _____    ______ ____
ROOT
ATOM      1  C   UNL     1      45.838   4.992  12.584  0.00  0.00    +0.000 A 
ATOM      2  C   UNL     1      46.418   4.431  13.731  0.00  0.00    +0.000 A 
ATOM      3  C   UNL     1      47.314   5.167  14.514  0.00  0.00    +0.000 A 
ATOM      4  C   UNL     1      47.632   6.489  14.176  0.00  0.00    +0.000 A 
ATOM      5  C   UNL     1      47.061   7.045  13.023  0.00  0.00    +0.000 A 
ATOM      6  C   UNL     1      46.165   6.309  12.241  0.00  0.00    +0.000 A 
ENDROOT
BRANCH   1   7
ATOM      7  C   UNL     1      44.858   4.192  11.756  0.00  0.00    +0.000 C 
BRANCH   7  12
ATOM      8  C   UNL     1      46.541   2.680   7.201  0.00  0.00    +0.000 A 
ATOM      9  C   UNL     1      45.922   1.946   8.208  0.00  0.00    +0.000 A 
ATOM     10  C   UNL     1      45.354   2.602   9.302  0.00  0.00    +0.000 A 
ATOM     11  C   UNL     1      45.427   3.986   9.386  0.00  0.00    +0.000 A 
ATOM     12  N   UNL     1      44.821   4.712  10.403  0.00  0.00    +0.000 N 
ATOM     13  N   UNL     1      46.035   4.716   8.431  0.00  0.00    +0.000 NA
ATOM     14  C   UNL     1      46.570   4.059   7.369  0.00  0.00    +0.000 A 
ATOM     15  H   UNL     1      45.104   5.683  10.307  0.00  0.00    +0.000 HD
BRANCH   8  16
ATOM     16  C   UNL     1      47.157   2.017   6.005  0.00  0.00    +0.000 C 
BRANCH  16  17
ATOM     17  N   UNL     1      48.615   1.989   6.093  0.00  0.00    +0.000 NA
ATOM     18  H   UNL     1      48.969   1.206   5.548  0.00  0.00    +0.000 HD
ATOM     19  H   UNL     1      48.886   1.811   7.060  0.00  0.00    +0.000 HD
ENDBRANCH  16  17
ENDBRANCH   8  16
ENDBRANCH   7  12
ENDBRANCH   1   7
BRANCH   4  20
ATOM     20  C   UNL     1      48.588   7.299  15.015  0.00  0.00    +0.000 C 
BRANCH  20  21
ATOM     21  N   UNL     1      49.641   6.476  15.553  0.00  0.00    +0.000 N 
ATOM     22  C   UNL     1      49.691   6.156  16.886  0.00  0.00    +0.000 C 
ATOM     23  O   UNL     1      48.830   6.526  17.680  0.00  0.00    +0.000 OA
ATOM     24  H   UNL     1      50.480   6.381  14.990  0.00  0.00    +0.000 HD
BRANCH  22  25
ATOM     25  C   UNL     1      50.798   5.287  17.304  0.00  0.00    +0.000 A 
ATOM     26  C   UNL     1      51.988   5.850  17.749  0.00  0.00    +0.000 A 
ATOM     27  S   UNL     1      53.147   4.699  18.241  0.00  0.00    +0.000 S 
ATOM     28  C   UNL     1      52.119   3.407  17.830  0.00  0.00    +0.000 A 
ATOM     29  N   UNL     1      52.521   2.117  17.980  0.00  0.00    +0.000 NA
ATOM     30  C   UNL     1      51.653   1.239  17.603  0.00  0.00    +0.000 A 
ATOM     31  N   UNL     1      50.413   1.535  17.097  0.00  0.00    +0.000 N 
ATOM     32  C   UNL     1      49.951   2.821  16.958  0.00  0.00    +0.000 A 
ATOM     33  O   UNL     1      48.818   3.049  16.549  0.00  0.00    +0.000 OA
ATOM     34  C   UNL     1      50.899   3.848  17.348  0.00  0.00    +0.000 A 
ATOM     35  H   UNL     1      49.774   0.800  16.832  0.00  0.00    +0.000 HD
ENDBRANCH  22  25
ENDBRANCH  20  21
ENDBRANCH   4  20
TORSDOF 7
ENDMDL
MODEL 8
REMARK VINA RESULT:    -7.834      4.086      5.095
REMARK INTER + INTRA:         -11.929
REMARK INTER:                 -10.927
REMARK INTRA:                  -1.002
REMARK UNBOUND:                -1.118
REMARK  Name = 
REMARK  7 active torsions:
REMARK  status: ('A' for Active; 'I' for Inactive)
REMARK    1  A    between atoms: N_1  and  C_2
REMARK    2  A    between atoms: C_2  and  C_3
REMARK    3  A    between atoms: N_7  and  C_8
REMARK    4  A    between atoms: C_8  and  C_9
REMARK    5  A    between atoms: C_12  and  C_13
REMARK    6  A    between atoms: C_13  and  N_14
REMARK    7  A    between atoms: C_15  and  C_17
REMARK                            x       y       z     vdW  Elec       q    Type
REMARK                         _______ _______ _______ _____ _____    ______ ____
ROOT
ATOM      1  C   UNL     1      44.274   4.666  11.426  0.00  0.00    +0.000 A 
ATOM      2  C   UNL     1      45.306   4.699  12.375  0.00  0.00    +0.000 A 
ATOM      3  C   UNL     1      45.772   5.917  12.882  0.00  0.00    +0.000 A 
ATOM      4  C   UNL     1      45.201   7.126  12.465  0.00  0.00    +0.000 A 
ATOM      5  C   UNL     1      44.178   7.092  11.508  0.00  0.00    +0.000 A 
ATOM      6  C   UNL     1      43.711   5.875  11.001  0.00  0.00    +0.000 A 
ENDROOT
BRANCH   1   7
ATOM      7  C   UNL     1      43.766   3.343  10.898  0.00  0.00    +0.000 C 
BRANCH   7  12
ATOM      8  C   UNL     1      46.685   2.600   6.801  0.00  0.00    +0.000 A 
ATOM      9  C   UNL     1      46.227   3.788   7.362  0.00  0.00    +0.000 A 
ATOM     10  C   UNL     1      45.603   3.776   8.611  0.00  0.00    +0.000 A 
ATOM     11  C   UNL     1      45.427   2.571   9.278  0.00  0.00    +0.000 A 
ATOM     12  N   UNL     1      44.885   2.489  10.554  0.00  0.00    +0.000 N 
ATOM     13  N   UNL     1      45.849   1.407   8.748  0.00  0.00    +0.000 NA
ATOM     14  C   UNL     1      46.465   1.443   7.537  0.00  0.00    +0.000 A 
ATOM     15  H   UNL     1      44.762   1.506  10.780  0.00  0.00    +0.000 HD
BRANCH   8  16
ATOM     16  C   UNL     1      47.368   2.569   5.465  0.00  0.00    +0.000 C 
BRANCH  16  17
ATOM     17  N   UNL     1      48.575   1.747   5.495  0.00  0.00    +0.000 NA
ATOM     18  H   UNL     1      48.753   1.447   6.451  0.00  0.00    +0.000 HD
ATOM     19  H   UNL     1      49.374   2.320   5.221  0.00  0.00    +0.000 HD
ENDBRANCH  16  17
ENDBRANCH   8  16
ENDBRANCH   7  12
ENDBRANCH   1   7
BRANCH   4  20
ATOM     20  C   UNL     1      45.686   8.446  13.009  0.00  0.00    +0.000 C 
BRANCH  20  21
ATOM     21  N   UNL     1      46.876   8.889  12.327  0.00  0.00    +0.000 N 
ATOM     22  C   UNL     1      47.883   9.541  12.992  0.00  0.00    +0.000 C 
ATOM     23  O   UNL     1      47.837   9.754  14.201  0.00  0.00    +0.000 OA
ATOM     24  H   UNL     1      46.823   8.961  11.316  0.00  0.00    +0.000 HD
BRANCH  22  25
ATOM     25  C   UNL     1      49.054   9.916  12.191  0.00  0.00    +0.000 A 
ATOM     26  C   UNL     1      49.293  11.253  11.900  0.00  0.00    +0.000 A 
ATOM     27  S   UNL     1      50.721  11.514  11.002  0.00  0.00    +0.000 S 
ATOM     28  C   UNL     1      51.043   9.844  10.928  0.00  0.00    +0.000 A 
ATOM     29  N   UNL     1      52.129   9.370  10.262  0.00  0.00    +0.000 NA
ATOM     30  C   UNL     1      52.236   8.084  10.262  0.00  0.00    +0.000 A 
ATOM     31  N   UNL     1      51.359   7.227  10.876  0.00  0.00    +0.000 N 
ATOM     32  C   UNL     1      50.267   7.661  11.587  0.00  0.00    +0.000 A 
ATOM     33  O   UNL     1      49.531   6.871  12.166  0.00  0.00    +0.000 OA
ATOM     34  C   UNL     1      50.089   9.101  11.600  0.00  0.00    +0.000 A 
ATOM     35  H   UNL     1      51.506   6.229  10.850  0.00  0.00    +0.000 HD
ENDBRANCH  22  25
ENDBRANCH  20  21
ENDBRANCH   4  20
TORSDOF 7
ENDMDL
MODEL 9
REMARK VINA RESULT:    -7.734      3.503      4.471
REMARK INTER + INTRA:         -11.791
REMARK INTER:                 -10.709
REMARK INTRA:                  -1.082
REMARK UNBOUND:                -1.118
REMARK  Name = 
REMARK  7 active torsions:
REMARK  status: ('A' for Active; 'I' for Inactive)
REMARK    1  A    between atoms: N_1  and  C_2
REMARK    2  A    between atoms: C_2  and  C_3
REMARK    3  A    between atoms: N_7  and  C_8
REMARK    4  A    between atoms: C_8  and  C_9
REMARK    5  A    between atoms: C_12  and  C_13
REMARK    6  A    between atoms: C_13  and  N_14
REMARK    7  A    between atoms: C_15  and  C_17
REMARK                            x       y       z     vdW  Elec       q    Type
REMARK                         _______ _______ _______ _____ _____    ______ ____
ROOT
ATOM      1  C   UNL     1      44.617   5.591  11.534  0.00  0.00    +0.000 A 
ATOM      2  C   UNL     1      45.692   5.094  12.284  0.00  0.00    +0.000 A 
ATOM      3  C   UNL     1      46.546   5.962  12.974  0.00  0.00    +0.000 A 
ATOM      4  C   UNL     1      46.328   7.345  12.944  0.00  0.00    +0.000 A 
ATOM      5  C   UNL     1      45.260   7.842  12.183  0.00  0.00    +0.000 A 
ATOM      6  C   UNL     1      44.407   6.974  11.495  0.00  0.00    +0.000 A 
ENDROOT
BRANCH   1   7
ATOM      7  C   UNL     1      43.691   4.642  10.807  0.00  0.00    +0.000 C 
BRANCH   7  12
ATOM      8  C   UNL     1      46.597   2.099   7.497  0.00  0.00    +0.000 A 
ATOM      9  C   UNL     1      45.814   1.620   8.543  0.00  0.00    +0.000 A 
ATOM     10  C   UNL     1      44.932   2.476   9.204  0.00  0.00    +0.000 A 
ATOM     11  C   UNL     1      44.854   3.810   8.823  0.00  0.00    +0.000 A 
ATOM     12  N   UNL     1      43.948   4.701   9.381  0.00  0.00    +0.000 N 
ATOM     13  N   UNL     1      45.613   4.299   7.824  0.00  0.00    +0.000 NA
ATOM     14  C   UNL     1      46.456   3.446   7.185  0.00  0.00    +0.000 A 
ATOM     15  H   UNL     1      44.156   5.628   9.020  0.00  0.00    +0.000 HD
BRANCH   8  16
ATOM     16  C   UNL     1      47.553   1.212   6.755  0.00  0.00    +0.000 C 
BRANCH  16  17
ATOM     17  N   UNL     1      48.542   1.987   6.011  0.00  0.00    +0.000 NA
ATOM     18  H   UNL     1      48.367   1.885   5.014  0.00  0.00    +0.000 HD
ATOM     19  H   UNL     1      49.468   1.594   6.181  0.00  0.00    +0.000 HD
ENDBRANCH  16  17
ENDBRANCH   8  16
ENDBRANCH   7  12
ENDBRANCH   1   7
BRANCH   4  20
ATOM     20  C   UNL     1      47.233   8.294  13.689  0.00  0.00    +0.000 C 
BRANCH  20  21
ATOM     21  N   UNL     1      48.587   8.220  13.201  0.00  0.00    +0.000 N 
ATOM     22  C   UNL     1      49.274   9.344  12.820  0.00  0.00    +0.000 C 
ATOM     23  O   UNL     1      48.786  10.468  12.902  0.00  0.00    +0.000 OA
ATOM     24  H   UNL     1      48.909   7.312  12.884  0.00  0.00    +0.000 HD
BRANCH  22  25
ATOM     25  C   UNL     1      50.655   9.139  12.367  0.00  0.00    +0.000 A 
ATOM     26  C   UNL     1      51.021   9.502  11.078  0.00  0.00    +0.000 A 
ATOM     27  S   UNL     1      52.672   9.240  10.735  0.00  0.00    +0.000 S 
ATOM     28  C   UNL     1      52.945   8.584  12.282  0.00  0.00    +0.000 A 
ATOM     29  N   UNL     1      54.173   8.124  12.640  0.00  0.00    +0.000 NA
ATOM     30  C   UNL     1      54.231   7.629  13.830  0.00  0.00    +0.000 A 
ATOM     31  N   UNL     1      53.173   7.559  14.699  0.00  0.00    +0.000 N 
ATOM     32  C   UNL     1      51.923   8.040  14.393  0.00  0.00    +0.000 A 
ATOM     33  O   UNL     1      51.011   8.007  15.213  0.00  0.00    +0.000 OA
ATOM     34  C   UNL     1      51.798   8.589  13.057  0.00  0.00    +0.000 A 
ATOM     35  H   UNL     1      53.287   7.170  15.624  0.00  0.00    +0.000 HD
ENDBRANCH  22  25
ENDBRANCH  20  21
ENDBRANCH   4  20
TORSDOF 7
ENDMDL
