MODEL 1
REMARK VINA RESULT:    -9.241      0.000      0.000
REMARK INTER + INTRA:         -13.354
REMARK INTER:                 -12.483
REMARK INTRA:                  -0.871
REMARK UNBOUND:                -0.871
REMARK  Name = 
REMARK  6 active torsions:
REMARK  status: ('A' for Active; 'I' for Inactive)
REMARK    1  A    between atoms: C_2  and  C_4
REMARK    2  A    between atoms: N_8  and  C_9
REMARK    3  A    between atoms: C_9  and  C_10
REMARK    4  A    between atoms: C_10  and  C_13
REMARK    5  A    between atoms: C_17  and  C_18
REMARK    6  A    between atoms: C_18  and  C_19
REMARK                            x       y       z     vdW  Elec       q    Type
REMARK                         _______ _______ _______ _____ _____    ______ ____
ROOT
ATOM      1  C   UNL     1      43.464   5.594  12.143  0.00  0.00    +0.000 C 
ATOM      2  F   UNL     1      43.036   6.763  11.584  0.00  0.00    +0.000 F 
ATOM      3  F   UNL     1      42.620   5.370  13.199  0.00  0.00    +0.000 F 
ENDROOT
BRANCH   1   4
ATOM      4  C   UNL     1      44.912   5.653  12.591  0.00  0.00    +0.000 A 
ATOM      5  C   UNL     1      45.703   6.723  12.153  0.00  0.00    +0.000 A 
ATOM      6  C   UNL     1      47.014   6.851  12.598  0.00  0.00    +0.000 A 
ATOM      7  C   UNL     1      47.544   5.925  13.508  0.00  0.00    +0.000 A 
ATOM      8  C   UNL     1      46.777   4.839  13.962  0.00  0.00    +0.000 A 
ATOM      9  C   UNL     1      45.465   4.702  13.471  0.00  0.00    +0.000 A 
BRANCH   8  10
ATOM     10  C   UNL     1      47.334   3.810  14.939  0.00  0.00    +0.000 C 
BRANCH  10  11
ATOM     11  C   UNL     1      47.121   4.200  16.405  0.00  0.00    +0.000 C 
ATOM     12  C   UNL     1      48.155   5.093  17.112  0.00  0.00    +0.000 C 
ATOM     13  N   UNL     1      48.279   4.118  18.203  0.00  0.00    +0.000 NA
ATOM     14  C   UNL     1      47.470   3.134  17.477  0.00  0.00    +0.000 C 
ATOM     15  H   UNL     1      47.870   4.426  19.085  0.00  0.00    +0.000 HD
ENDBRANCH  10  11
ENDBRANCH   8  10
ENDBRANCH   1   4
BRANCH   1  16
ATOM     16  C   UNL     1      43.262   4.448  11.116  0.00  0.00    +0.000 C 
BRANCH  16  21
ATOM     17  C   UNL     1      46.515   2.497   7.695  0.00  0.00    +0.000 A 
ATOM     18  C   UNL     1      45.660   1.848   8.576  0.00  0.00    +0.000 A 
ATOM     19  C   UNL     1      44.764   2.603   9.327  0.00  0.00    +0.000 A 
ATOM     20  C   UNL     1      44.732   3.990   9.176  0.00  0.00    +0.000 A 
ATOM     21  N   UNL     1      43.782   4.779   9.785  0.00  0.00    +0.000 N 
ATOM     22  N   UNL     1      45.580   4.631   8.349  0.00  0.00    +0.000 NA
ATOM     23  C   UNL     1      46.462   3.877   7.638  0.00  0.00    +0.000 A 
ATOM     24  H   UNL     1      43.935   5.765   9.583  0.00  0.00    +0.000 HD
BRANCH  17  26
ATOM     25  N   UNL     1      48.566   2.467   6.400  0.00  0.00    +0.000 N 
ATOM     26  C   UNL     1      47.457   1.771   6.826  0.00  0.00    +0.000 C 
ATOM     27  O   UNL     1      47.291   0.604   6.532  0.00  0.00    +0.000 OA
ATOM     28  H   UNL     1      49.265   1.929   5.912  0.00  0.00    +0.000 HD
ATOM     29  H   UNL     1      48.859   3.324   6.845  0.00  0.00    +0.000 HD
ENDBRANCH  17  26
ENDBRANCH  16  21
ENDBRANCH   1  16
TORSDOF 6
ENDMDL
MODEL 2
REMARK VINA RESULT:    -9.008      2.026      3.115
REMARK INTER + INTRA:         -13.039
REMARK INTER:                 -12.104
REMARK INTRA:                  -0.934
REMARK UNBOUND:                -0.871
REMARK  Name = 
REMARK  6 active torsions:
REMARK  status: ('A' for Active; 'I' for Inactive)
REMARK    1  A    between atoms: C_2  and  C_4
REMARK    2  A    between atoms: N_8  and  C_9
REMARK    3  A    between atoms: C_9  and  C_10
REMARK    4  A    between atoms: C_10  and  C_13
REMARK    5  A    between atoms: C_17  and  C_18
REMARK    6  A    between atoms: C_18  and  C_19
REMARK                            x       y       z     vdW  Elec       q    Type
REMARK                         _______ _______ _______ _____ _____    ______ ____
ROOT
ATOM      1  C   UNL     1      43.385   5.610  12.019  0.00  0.00    +0.000 C 
ATOM      2  F   UNL     1      42.984   6.771  11.424  0.00  0.00    +0.000 F 
ATOM      3  F   UNL     1      42.503   5.410  13.048  0.00  0.00    +0.000 F 
ENDROOT
BRANCH   1   4
ATOM      4  C   UNL     1      44.816   5.669  12.517  0.00  0.00    +0.000 A 
ATOM      5  C   UNL     1      45.272   4.648  13.361  0.00  0.00    +0.000 A 
ATOM      6  C   UNL     1      46.597   4.627  13.782  0.00  0.00    +0.000 A 
ATOM      7  C   UNL     1      47.492   5.613  13.344  0.00  0.00    +0.000 A 
ATOM      8  C   UNL     1      47.065   6.653  12.501  0.00  0.00    +0.000 A 
ATOM      9  C   UNL     1      45.711   6.681  12.115  0.00  0.00    +0.000 A 
BRANCH   8  10
ATOM     10  C   UNL     1      48.013   7.745  12.022  0.00  0.00    +0.000 C 
BRANCH  10  11
ATOM     11  C   UNL     1      49.487   7.404  12.259  0.00  0.00    +0.000 C 
ATOM     12  C   UNL     1      50.263   8.121  13.378  0.00  0.00    +0.000 C 
ATOM     13  N   UNL     1      51.314   8.508  12.429  0.00  0.00    +0.000 NA
ATOM     14  C   UNL     1      50.523   8.034  11.289  0.00  0.00    +0.000 C 
ATOM     15  H   UNL     1      52.196   8.013  12.560  0.00  0.00    +0.000 HD
ENDBRANCH  10  11
ENDBRANCH   8  10
ENDBRANCH   1   4
BRANCH   1  16
ATOM     16  C   UNL     1      43.213   4.446  11.007  0.00  0.00    +0.000 C 
BRANCH  16  21
ATOM     17  C   UNL     1      46.529   2.471   7.661  0.00  0.00    +0.000 A 
ATOM     18  C   UNL     1      45.665   1.828   8.538  0.00  0.00    +0.000 A 
ATOM     19  C   UNL     1      44.753   2.587   9.265  0.00  0.00    +0.000 A 
ATOM     20  C   UNL     1      44.714   3.972   9.095  0.00  0.00    +0.000 A 
ATOM     21  N   UNL     1      43.750   4.763   9.679  0.00  0.00    +0.000 N 
ATOM     22  N   UNL     1      45.571   4.607   8.273  0.00  0.00    +0.000 NA
ATOM     23  C   UNL     1      46.469   3.850   7.585  0.00  0.00    +0.000 A 
ATOM     24  H   UNL     1      43.900   5.747   9.467  0.00  0.00    +0.000 HD
BRANCH  17  26
ATOM     25  N   UNL     1      48.585   2.445   6.375  0.00  0.00    +0.000 N 
ATOM     26  C   UNL     1      47.488   1.739   6.817  0.00  0.00    +0.000 C 
ATOM     27  O   UNL     1      47.346   0.561   6.554  0.00  0.00    +0.000 OA
ATOM     28  H   UNL     1      49.297   1.907   5.905  0.00  0.00    +0.000 HD
ATOM     29  H   UNL     1      48.861   3.319   6.797  0.00  0.00    +0.000 HD
ENDBRANCH  17  26
ENDBRANCH  16  21
ENDBRANCH   1  16
TORSDOF 6
ENDMDL
MODEL 3
REMARK VINA RESULT:    -8.959      2.034      3.245
REMARK INTER + INTRA:         -12.973
REMARK INTER:                 -12.171
REMARK INTRA:                  -0.802
REMARK UNBOUND:                -0.871
REMARK  Name = 
REMARK  6 active torsions:
REMARK  status: ('A' for Active; 'I' for Inactive)
REMARK    1  A    between atoms: C_2  and  C_4
REMARK    2  A    between atoms: N_8  and  C_9
REMARK    3  A    between atoms: C_9  and  C_10
REMARK    4  A    between atoms: C_10  and  C_13
REMARK    5  A    between atoms: C_17  and  C_18
REMARK    6  A    between atoms: C_18  and  C_19
REMARK                            x       y       z     vdW  Elec       q    Type
REMARK                         _______ _______ _______ _____ _____    ______ ____
ROOT
ATOM      1  C   UNL     1      43.472   5.580  12.170  0.00  0.00    +0.000 C 
ATOM      2  F   UNL     1      43.001   6.732  11.608  0.00  0.00    +0.000 F 
ATOM      3  F   UNL     1      42.666   5.353  13.255  0.00  0.00    +0.000 F 
ENDROOT
BRANCH   1   4
ATOM      4  C   UNL     1      44.931   5.677  12.572  0.00  0.00    +0.000 A 
ATOM      5  C   UNL     1      45.403   4.829  13.583  0.00  0.00    +0.000 A 
ATOM      6  C   UNL     1      46.749   4.837  13.931  0.00  0.00    +0.000 A 
ATOM      7  C   UNL     1      47.647   5.675  13.255  0.00  0.00    +0.000 A 
ATOM      8  C   UNL     1      47.205   6.541  12.240  0.00  0.00    +0.000 A 
ATOM      9  C   UNL     1      45.832   6.548  11.927  0.00  0.00    +0.000 A 
BRANCH   8  10
ATOM     10  C   UNL     1      48.158   7.472  11.501  0.00  0.00    +0.000 C 
BRANCH  10  11
ATOM     11  C   UNL     1      48.505   8.731  12.301  0.00  0.00    +0.000 C 
ATOM     12  C   UNL     1      47.756   9.030  13.612  0.00  0.00    +0.000 C 
ATOM     13  N   UNL     1      47.415  10.375  13.133  0.00  0.00    +0.000 NA
ATOM     14  C   UNL     1      47.921  10.076  11.790  0.00  0.00    +0.000 C 
ATOM     15  H   UNL     1      47.914  11.125  13.610  0.00  0.00    +0.000 HD
ENDBRANCH  10  11
ENDBRANCH   8  10
ENDBRANCH   1   4
BRANCH   1  16
ATOM     16  C   UNL     1      43.265   4.416  11.166  0.00  0.00    +0.000 C 
BRANCH  16  21
ATOM     17  C   UNL     1      46.492   2.509   7.697  0.00  0.00    +0.000 A 
ATOM     18  C   UNL     1      45.683   1.848   8.612  0.00  0.00    +0.000 A 
ATOM     19  C   UNL     1      44.782   2.588   9.372  0.00  0.00    +0.000 A 
ATOM     20  C   UNL     1      44.698   3.970   9.196  0.00  0.00    +0.000 A 
ATOM     21  N   UNL     1      43.737   4.737   9.815  0.00  0.00    +0.000 N 
ATOM     22  N   UNL     1      45.502   4.623   8.335  0.00  0.00    +0.000 NA
ATOM     23  C   UNL     1      46.391   3.885   7.614  0.00  0.00    +0.000 A 
ATOM     24  H   UNL     1      43.851   5.724   9.591  0.00  0.00    +0.000 HD
BRANCH  17  26
ATOM     25  N   UNL     1      48.561   2.492   6.429  0.00  0.00    +0.000 N 
ATOM     26  C   UNL     1      47.436   1.798   6.817  0.00  0.00    +0.000 C 
ATOM     27  O   UNL     1      47.257   0.644   6.481  0.00  0.00    +0.000 OA
ATOM     28  H   UNL     1      49.259   1.960   5.933  0.00  0.00    +0.000 HD
ATOM     29  H   UNL     1      48.860   3.329   6.907  0.00  0.00    +0.000 HD
ENDBRANCH  17  26
ENDBRANCH  16  21
ENDBRANCH   1  16
TORSDOF 6
ENDMDL
MODEL 4
REMARK VINA RESULT:    -8.652      1.463      1.903
REMARK INTER + INTRA:         -12.558
REMARK INTER:                 -11.749
REMARK INTRA:                  -0.809
REMARK UNBOUND:                -0.871
REMARK  Name = 
REMARK  6 active torsions:
REMARK  status: ('A' for Active; 'I' for Inactive)
REMARK    1  A    between atoms: C_2  and  C_4
REMARK    2  A    between atoms: N_8  and  C_9
REMARK    3  A    between atoms: C_9  and  C_10
REMARK    4  A    between atoms: C_10  and  C_13
REMARK    5  A    between atoms: C_17  and  C_18
REMARK    6  A    between atoms: C_18  and  C_19
REMARK                            x       y       z     vdW  Elec       q    Type
REMARK                         _______ _______ _______ _____ _____    ______ ____
ROOT
ATOM      1  C   UNL     1      43.061   5.589  12.085  0.00  0.00    +0.000 C 
ATOM      2  F   UNL     1      41.969   6.292  11.666  0.00  0.00    +0.000 F 
ATOM      3  F   UNL     1      42.746   5.151  13.345  0.00  0.00    +0.000 F 
ENDROOT
BRANCH   1   4
ATOM      4  C   UNL     1      44.329   6.420  12.087  0.00  0.00    +0.000 A 
ATOM      5  C   UNL     1      44.260   7.746  11.638  0.00  0.00    +0.000 A 
ATOM      6  C   UNL     1      45.384   8.562  11.690  0.00  0.00    +0.000 A 
ATOM      7  C   UNL     1      46.587   8.072  12.217  0.00  0.00    +0.000 A 
ATOM      8  C   UNL     1      46.691   6.746  12.671  0.00  0.00    +0.000 A 
ATOM      9  C   UNL     1      45.554   5.922  12.574  0.00  0.00    +0.000 A 
BRANCH   8  10
ATOM     10  C   UNL     1      47.991   6.185  13.234  0.00  0.00    +0.000 C 
BRANCH  10  11
ATOM     11  C   UNL     1      48.466   6.919  14.491  0.00  0.00    +0.000 C 
ATOM     12  C   UNL     1      49.955   7.277  14.646  0.00  0.00    +0.000 C 
ATOM     13  N   UNL     1      49.995   6.624  15.960  0.00  0.00    +0.000 NA
ATOM     14  C   UNL     1      48.649   6.071  15.778  0.00  0.00    +0.000 C 
ATOM     15  H   UNL     1      50.077   7.272  16.744  0.00  0.00    +0.000 HD
ENDBRANCH  10  11
ENDBRANCH   8  10
ENDBRANCH   1   4
BRANCH   1  16
ATOM     16  C   UNL     1      43.232   4.345  11.175  0.00  0.00    +0.000 C 
BRANCH  16  21
ATOM     17  C   UNL     1      46.473   2.469   7.700  0.00  0.00    +0.000 A 
ATOM     18  C   UNL     1      45.652   1.800   8.599  0.00  0.00    +0.000 A 
ATOM     19  C   UNL     1      44.749   2.534   9.364  0.00  0.00    +0.000 A 
ATOM     20  C   UNL     1      44.677   3.919   9.209  0.00  0.00    +0.000 A 
ATOM     21  N   UNL     1      43.718   4.684   9.833  0.00  0.00    +0.000 N 
ATOM     22  N   UNL     1      45.493   4.580   8.365  0.00  0.00    +0.000 NA
ATOM     23  C   UNL     1      46.382   3.847   7.639  0.00  0.00    +0.000 A 
ATOM     24  H   UNL     1      43.841   5.674   9.625  0.00  0.00    +0.000 HD
BRANCH  17  26
ATOM     25  N   UNL     1      48.505   2.486   6.376  0.00  0.00    +0.000 N 
ATOM     26  C   UNL     1      47.418   1.765   6.817  0.00  0.00    +0.000 C 
ATOM     27  O   UNL     1      47.273   0.595   6.523  0.00  0.00    +0.000 OA
ATOM     28  H   UNL     1      49.209   1.964   5.877  0.00  0.00    +0.000 HD
ATOM     29  H   UNL     1      48.786   3.349   6.818  0.00  0.00    +0.000 HD
ENDBRANCH  17  26
ENDBRANCH  16  21
ENDBRANCH   1  16
TORSDOF 6
ENDMDL
MODEL 5
REMARK VINA RESULT:    -8.392      2.877      4.809
REMARK INTER + INTRA:         -12.206
REMARK INTER:                 -11.477
REMARK INTRA:                  -0.729
REMARK UNBOUND:                -0.871
REMARK  Name = 
REMARK  6 active torsions:
REMARK  status: ('A' for Active; 'I' for Inactive)
REMARK    1  A    between atoms: C_2  and  C_4
REMARK    2  A    between atoms: N_8  and  C_9
REMARK    3  A    between atoms: C_9  and  C_10
REMARK    4  A    between atoms: C_10  and  C_13
REMARK    5  A    between atoms: C_17  and  C_18
REMARK    6  A    between atoms: C_18  and  C_19
REMARK                            x       y       z     vdW  Elec       q    Type
REMARK                         _______ _______ _______ _____ _____    ______ ____
ROOT
ATOM      1  C   UNL     1      44.180   4.547  12.340  0.00  0.00    +0.000 C 
ATOM      2  F   UNL     1      43.474   4.469  13.505  0.00  0.00    +0.000 F 
ATOM      3  F   UNL     1      44.967   3.425  12.319  0.00  0.00    +0.000 F 
ENDROOT
BRANCH   1   4
ATOM      4  C   UNL     1      45.012   5.811  12.241  0.00  0.00    +0.000 A 
ATOM      5  C   UNL     1      46.408   5.695  12.272  0.00  0.00    +0.000 A 
ATOM      6  C   UNL     1      47.207   6.821  12.113  0.00  0.00    +0.000 A 
ATOM      7  C   UNL     1      46.622   8.076  11.895  0.00  0.00    +0.000 A 
ATOM      8  C   UNL     1      45.225   8.226  11.863  0.00  0.00    +0.000 A 
ATOM      9  C   UNL     1      44.431   7.082  12.065  0.00  0.00    +0.000 A 
BRANCH   8  10
ATOM     10  C   UNL     1      44.563   9.581  11.643  0.00  0.00    +0.000 C 
BRANCH  10  11
ATOM     11  C   UNL     1      43.576   9.582  10.472  0.00  0.00    +0.000 C 
ATOM     12  C   UNL     1      43.668  10.683   9.401  0.00  0.00    +0.000 C 
ATOM     13  N   UNL     1      42.247  11.005   9.581  0.00  0.00    +0.000 NA
ATOM     14  C   UNL     1      42.149  10.127  10.752  0.00  0.00    +0.000 C 
ATOM     15  H   UNL     1      41.655  10.726   8.799  0.00  0.00    +0.000 HD
ENDBRANCH  10  11
ENDBRANCH   8  10
ENDBRANCH   1   4
BRANCH   1  16
ATOM     16  C   UNL     1      43.189   4.459  11.150  0.00  0.00    +0.000 C 
BRANCH  16  21
ATOM     17  C   UNL     1      46.453   2.538   7.723  0.00  0.00    +0.000 A 
ATOM     18  C   UNL     1      45.511   1.889   8.511  0.00  0.00    +0.000 A 
ATOM     19  C   UNL     1      44.637   2.650   9.281  0.00  0.00    +0.000 A 
ATOM     20  C   UNL     1      44.713   4.043   9.243  0.00  0.00    +0.000 A 
ATOM     21  N   UNL     1      43.795   4.852   9.873  0.00  0.00    +0.000 N 
ATOM     22  N   UNL     1      45.646   4.680   8.509  0.00  0.00    +0.000 NA
ATOM     23  C   UNL     1      46.505   3.919   7.776  0.00  0.00    +0.000 A 
ATOM     24  H   UNL     1      44.029   5.837   9.760  0.00  0.00    +0.000 HD
BRANCH  17  26
ATOM     25  N   UNL     1      48.403   2.547   6.279  0.00  0.00    +0.000 N 
ATOM     26  C   UNL     1      47.381   1.812   6.839  0.00  0.00    +0.000 C 
ATOM     27  O   UNL     1      47.280   0.618   6.642  0.00  0.00    +0.000 OA
ATOM     28  H   UNL     1      49.103   2.021   5.779  0.00  0.00    +0.000 HD
ATOM     29  H   UNL     1      48.665   3.454   6.638  0.00  0.00    +0.000 HD
ENDBRANCH  17  26
ENDBRANCH  16  21
ENDBRANCH   1  16
TORSDOF 6
ENDMDL
MODEL 6
REMARK VINA RESULT:    -8.145      3.125      7.984
REMARK INTER + INTRA:         -11.872
REMARK INTER:                 -11.126
REMARK INTRA:                  -0.747
REMARK UNBOUND:                -0.871
REMARK  Name = 
REMARK  6 active torsions:
REMARK  status: ('A' for Active; 'I' for Inactive)
REMARK    1  A    between atoms: C_2  and  C_4
REMARK    2  A    between atoms: N_8  and  C_9
REMARK    3  A    between atoms: C_9  and  C_10
REMARK    4  A    between atoms: C_10  and  C_13
REMARK    5  A    between atoms: C_17  and  C_18
REMARK    6  A    between atoms: C_18  and  C_19
REMARK                            x       y       z     vdW  Elec       q    Type
REMARK                         _______ _______ _______ _____ _____    ______ ____
ROOT
ATOM      1  C   UNL     1      45.688   6.160  11.356  0.00  0.00    +0.000 C 
ATOM      2  F   UNL     1      44.797   7.164  11.105  0.00  0.00    +0.000 F 
ATOM      3  F   UNL     1      46.901   6.644  10.941  0.00  0.00    +0.000 F 
ENDROOT
BRANCH   1   4
ATOM      4  C   UNL     1      45.332   4.868  10.648  0.00  0.00    +0.000 A 
ATOM      5  C   UNL     1      44.629   3.888  11.360  0.00  0.00    +0.000 A 
ATOM      6  C   UNL     1      44.222   2.719  10.726  0.00  0.00    +0.000 A 
ATOM      7  C   UNL     1      44.491   2.525   9.364  0.00  0.00    +0.000 A 
ATOM      8  C   UNL     1      45.198   3.487   8.623  0.00  0.00    +0.000 A 
ATOM      9  C   UNL     1      45.637   4.647   9.290  0.00  0.00    +0.000 A 
BRANCH   8  10
ATOM     10  C   UNL     1      45.516   3.294   7.145  0.00  0.00    +0.000 C 
BRANCH  10  11
ATOM     11  C   UNL     1      47.014   3.125   6.872  0.00  0.00    +0.000 C 
ATOM     12  C   UNL     1      47.505   2.920   5.428  0.00  0.00    +0.000 C 
ATOM     13  N   UNL     1      48.238   1.713   5.828  0.00  0.00    +0.000 NA
ATOM     14  C   UNL     1      47.632   1.732   7.163  0.00  0.00    +0.000 C 
ATOM     15  H   UNL     1      49.252   1.823   5.827  0.00  0.00    +0.000 HD
ENDBRANCH  10  11
ENDBRANCH   8  10
ENDBRANCH   1   4
BRANCH   1  16
ATOM     16  C   UNL     1      45.762   5.933  12.889  0.00  0.00    +0.000 C 
BRANCH  16  21
ATOM     17  C   UNL     1      48.501   4.271  16.867  0.00  0.00    +0.000 A 
ATOM     18  C   UNL     1      47.504   3.627  16.147  0.00  0.00    +0.000 A 
ATOM     19  C   UNL     1      46.990   4.241  15.008  0.00  0.00    +0.000 A 
ATOM     20  C   UNL     1      47.489   5.481  14.606  0.00  0.00    +0.000 A 
ATOM     21  N   UNL     1      47.122   6.077  13.420  0.00  0.00    +0.000 N 
ATOM     22  N   UNL     1      48.432   6.128  15.318  0.00  0.00    +0.000 NA
ATOM     23  C   UNL     1      48.909   5.520  16.438  0.00  0.00    +0.000 A 
ATOM     24  H   UNL     1      47.564   6.988  13.311  0.00  0.00    +0.000 HD
BRANCH  17  26
ATOM     25  N   UNL     1      48.296   3.280  19.072  0.00  0.00    +0.000 N 
ATOM     26  C   UNL     1      49.136   3.669  18.052  0.00  0.00    +0.000 C 
ATOM     27  O   UNL     1      50.335   3.484  18.116  0.00  0.00    +0.000 OA
ATOM     28  H   UNL     1      48.722   2.757  19.821  0.00  0.00    +0.000 HD
ATOM     29  H   UNL     1      47.302   3.170  18.930  0.00  0.00    +0.000 HD
ENDBRANCH  17  26
ENDBRANCH  16  21
ENDBRANCH   1  16
TORSDOF 6
ENDMDL
MODEL 7
REMARK VINA RESULT:    -8.046      3.713      7.201
REMARK INTER + INTRA:         -11.739
REMARK INTER:                 -10.748
REMARK INTRA:                  -0.991
REMARK UNBOUND:                -0.871
REMARK  Name = 
REMARK  6 active torsions:
REMARK  status: ('A' for Active; 'I' for Inactive)
REMARK    1  A    between atoms: C_2  and  C_4
REMARK    2  A    between atoms: N_8  and  C_9
REMARK    3  A    between atoms: C_9  and  C_10
REMARK    4  A    between atoms: C_10  and  C_13
REMARK    5  A    between atoms: C_17  and  C_18
REMARK    6  A    between atoms: C_18  and  C_19
REMARK                            x       y       z     vdW  Elec       q    Type
REMARK                         _______ _______ _______ _____ _____    ______ ____
ROOT
ATOM      1  C   UNL     1      43.508   5.620  11.478  0.00  0.00    +0.000 C 
ATOM      2  F   UNL     1      42.191   5.434  11.786  0.00  0.00    +0.000 F 
ATOM      3  F   UNL     1      43.555   6.809  10.799  0.00  0.00    +0.000 F 
ENDROOT
BRANCH   1   4
ATOM      4  C   UNL     1      44.083   4.485  10.653  0.00  0.00    +0.000 A 
ATOM      5  C   UNL     1      43.693   3.174  10.957  0.00  0.00    +0.000 A 
ATOM      6  C   UNL     1      44.142   2.112  10.180  0.00  0.00    +0.000 A 
ATOM      7  C   UNL     1      44.968   2.350   9.072  0.00  0.00    +0.000 A 
ATOM      8  C   UNL     1      45.381   3.652   8.743  0.00  0.00    +0.000 A 
ATOM      9  C   UNL     1      44.948   4.711   9.564  0.00  0.00    +0.000 A 
BRANCH   8  10
ATOM     10  C   UNL     1      46.289   3.935   7.553  0.00  0.00    +0.000 C 
BRANCH  10  11
ATOM     11  C   UNL     1      46.597   2.685   6.724  0.00  0.00    +0.000 C 
ATOM     12  C   UNL     1      47.844   1.845   7.049  0.00  0.00    +0.000 C 
ATOM     13  N   UNL     1      48.288   1.927   5.653  0.00  0.00    +0.000 NA
ATOM     14  C   UNL     1      47.243   2.903   5.330  0.00  0.00    +0.000 C 
ATOM     15  H   UNL     1      48.212   1.048   5.140  0.00  0.00    +0.000 HD
ENDBRANCH  10  11
ENDBRANCH   8  10
ENDBRANCH   1   4
BRANCH   1  16
ATOM     16  C   UNL     1      44.308   5.789  12.796  0.00  0.00    +0.000 C 
BRANCH  16  21
ATOM     17  C   UNL     1      48.817   8.166  12.461  0.00  0.00    +0.000 A 
ATOM     18  C   UNL     1      48.317   7.104  11.719  0.00  0.00    +0.000 A 
ATOM     19  C   UNL     1      46.996   6.711  11.908  0.00  0.00    +0.000 A 
ATOM     20  C   UNL     1      46.196   7.392  12.827  0.00  0.00    +0.000 A 
ATOM     21  N   UNL     1      44.849   7.142  12.964  0.00  0.00    +0.000 N 
ATOM     22  N   UNL     1      46.682   8.401  13.576  0.00  0.00    +0.000 NA
ATOM     23  C   UNL     1      47.982   8.759  13.391  0.00  0.00    +0.000 A 
ATOM     24  H   UNL     1      44.439   7.713  13.701  0.00  0.00    +0.000 HD
BRANCH  17  26
ATOM     25  N   UNL     1      51.113   7.803  11.767  0.00  0.00    +0.000 N 
ATOM     26  C   UNL     1      50.186   8.680  12.287  0.00  0.00    +0.000 C 
ATOM     27  O   UNL     1      50.480   9.829  12.547  0.00  0.00    +0.000 OA
ATOM     28  H   UNL     1      52.011   8.196  11.534  0.00  0.00    +0.000 HD
ATOM     29  H   UNL     1      50.836   6.954  11.296  0.00  0.00    +0.000 HD
ENDBRANCH  17  26
ENDBRANCH  16  21
ENDBRANCH   1  16
TORSDOF 6
ENDMDL
MODEL 8
REMARK VINA RESULT:    -7.414      3.775      7.468
REMARK INTER + INTRA:         -10.885
REMARK INTER:                 -10.119
REMARK INTRA:                  -0.766
REMARK UNBOUND:                -0.871
REMARK  Name = 
REMARK  6 active torsions:
REMARK  status: ('A' for Active; 'I' for Inactive)
REMARK    1  A    between atoms: C_2  and  C_4
REMARK    2  A    between atoms: N_8  and  C_9
REMARK    3  A    between atoms: C_9  and  C_10
REMARK    4  A    between atoms: C_10  and  C_13
REMARK    5  A    between atoms: C_17  and  C_18
REMARK    6  A    between atoms: C_18  and  C_19
REMARK                            x       y       z     vdW  Elec       q    Type
REMARK                         _______ _______ _______ _____ _____    ______ ____
ROOT
ATOM      1  C   UNL     1      44.471   5.787  11.853  0.00  0.00    +0.000 C 
ATOM      2  F   UNL     1      45.125   5.572  13.032  0.00  0.00    +0.000 F 
ATOM      3  F   UNL     1      43.151   5.921  12.194  0.00  0.00    +0.000 F 
ENDROOT
BRANCH   1   4
ATOM      4  C   UNL     1      44.677   4.664  10.855  0.00  0.00    +0.000 A 
ATOM      5  C   UNL     1      44.021   3.445  11.076  0.00  0.00    +0.000 A 
ATOM      6  C   UNL     1      44.127   2.416  10.148  0.00  0.00    +0.000 A 
ATOM      7  C   UNL     1      44.869   2.599   8.973  0.00  0.00    +0.000 A 
ATOM      8  C   UNL     1      45.541   3.807   8.723  0.00  0.00    +0.000 A 
ATOM      9  C   UNL     1      45.456   4.825   9.692  0.00  0.00    +0.000 A 
BRANCH   8  10
ATOM     10  C   UNL     1      46.366   4.026   7.461  0.00  0.00    +0.000 C 
BRANCH  10  11
ATOM     11  C   UNL     1      46.629   2.732   6.685  0.00  0.00    +0.000 C 
ATOM     12  C   UNL     1      47.857   1.873   7.034  0.00  0.00    +0.000 C 
ATOM     13  N   UNL     1      48.285   1.880   5.630  0.00  0.00    +0.000 NA
ATOM     14  C   UNL     1      47.263   2.870   5.275  0.00  0.00    +0.000 C 
ATOM     15  H   UNL     1      48.179   0.983   5.158  0.00  0.00    +0.000 HD
ENDBRANCH  10  11
ENDBRANCH   8  10
ENDBRANCH   1   4
BRANCH   1  16
ATOM     16  C   UNL     1      44.951   7.135  11.255  0.00  0.00    +0.000 C 
BRANCH  16  21
ATOM     17  C   UNL     1      49.535   7.927  13.365  0.00  0.00    +0.000 A 
ATOM     18  C   UNL     1      49.209   7.547  12.070  0.00  0.00    +0.000 A 
ATOM     19  C   UNL     1      47.870   7.523  11.690  0.00  0.00    +0.000 A 
ATOM     20  C   UNL     1      46.885   7.889  12.607  0.00  0.00    +0.000 A 
ATOM     21  N   UNL     1      45.559   8.018  12.257  0.00  0.00    +0.000 N 
ATOM     22  N   UNL     1      47.189   8.227  13.876  0.00  0.00    +0.000 NA
ATOM     23  C   UNL     1      48.502   8.226  14.234  0.00  0.00    +0.000 A 
ATOM     24  H   UNL     1      44.985   8.262  13.062  0.00  0.00    +0.000 HD
BRANCH  17  26
ATOM     25  N   UNL     1      51.903   8.097  12.862  0.00  0.00    +0.000 N 
ATOM     26  C   UNL     1      50.928   8.029  13.833  0.00  0.00    +0.000 C 
ATOM     27  O   UNL     1      51.207   8.093  15.014  0.00  0.00    +0.000 OA
ATOM     28  H   UNL     1      52.837   8.292  13.186  0.00  0.00    +0.000 HD
ATOM     29  H   UNL     1      51.683   8.321  11.903  0.00  0.00    +0.000 HD
ENDBRANCH  17  26
ENDBRANCH  16  21
ENDBRANCH   1  16
TORSDOF 6
ENDMDL
MODEL 9
REMARK VINA RESULT:    -6.957      3.435      8.225
REMARK INTER + INTRA:         -10.267
REMARK INTER:                  -9.547
REMARK INTRA:                  -0.720
REMARK UNBOUND:                -0.871
REMARK  Name = 
REMARK  6 active torsions:
REMARK  status: ('A' for Active; 'I' for Inactive)
REMARK    1  A    between atoms: C_2  and  C_4
REMARK    2  A    between atoms: N_8  and  C_9
REMARK    3  A    between atoms: C_9  and  C_10
REMARK    4  A    between atoms: C_10  and  C_13
REMARK    5  A    between atoms: C_17  and  C_18
REMARK    6  A    between atoms: C_18  and  C_19
REMARK                            x       y       z     vdW  Elec       q    Type
REMARK                         _______ _______ _______ _____ _____    ______ ____
ROOT
ATOM      1  C   UNL     1      46.337   6.341  12.522  0.00  0.00    +0.000 C 
ATOM      2  F   UNL     1      45.925   7.431  13.232  0.00  0.00    +0.000 F 
ATOM      3  F   UNL     1      47.016   6.849  11.445  0.00  0.00    +0.000 F 
ENDROOT
BRANCH   1   4
ATOM      4  C   UNL     1      45.186   5.455  12.086  0.00  0.00    +0.000 A 
ATOM      5  C   UNL     1      43.922   5.677  12.649  0.00  0.00    +0.000 A 
ATOM      6  C   UNL     1      42.827   4.934  12.223  0.00  0.00    +0.000 A 
ATOM      7  C   UNL     1      42.975   3.975  11.211  0.00  0.00    +0.000 A 
ATOM      8  C   UNL     1      44.230   3.726  10.630  0.00  0.00    +0.000 A 
ATOM      9  C   UNL     1      45.336   4.460  11.100  0.00  0.00    +0.000 A 
BRANCH   8  10
ATOM     10  C   UNL     1      44.421   2.679   9.539  0.00  0.00    +0.000 C 
BRANCH  10  11
ATOM     11  C   UNL     1      45.782   2.779   8.845  0.00  0.00    +0.000 C 
ATOM     12  C   UNL     1      45.896   3.514   7.497  0.00  0.00    +0.000 C 
ATOM     13  N   UNL     1      46.550   2.346   6.894  0.00  0.00    +0.000 NA
ATOM     14  C   UNL     1      46.278   1.524   8.078  0.00  0.00    +0.000 C 
ATOM     15  H   UNL     1      47.542   2.480   6.697  0.00  0.00    +0.000 HD
ENDBRANCH  10  11
ENDBRANCH   8  10
ENDBRANCH   1   4
BRANCH   1  16
ATOM     16  C   UNL     1      47.342   5.535  13.385  0.00  0.00    +0.000 C 
BRANCH  16  21
ATOM     17  C   UNL     1      48.666   4.528  18.215  0.00  0.00    +0.000 A 
ATOM     18  C   UNL     1      49.065   5.567  17.385  0.00  0.00    +0.000 A 
ATOM     19  C   UNL     1      48.460   5.706  16.139  0.00  0.00    +0.000 A 
ATOM     20  C   UNL     1      47.461   4.812  15.751  0.00  0.00    +0.000 A 
ATOM     21  N   UNL     1      46.731   4.973  14.595  0.00  0.00    +0.000 N 
ATOM     22  N   UNL     1      47.092   3.781  16.535  0.00  0.00    +0.000 NA
ATOM     23  C   UNL     1      47.708   3.650  17.742  0.00  0.00    +0.000 A 
ATOM     24  H   UNL     1      46.071   4.209  14.464  0.00  0.00    +0.000 HD
BRANCH  17  26
ATOM     25  N   UNL     1      50.589   4.316  19.678  0.00  0.00    +0.000 N 
ATOM     26  C   UNL     1      49.217   4.340  19.568  0.00  0.00    +0.000 C 
ATOM     27  O   UNL     1      48.502   4.251  20.547  0.00  0.00    +0.000 OA
ATOM     28  H   UNL     1      50.958   4.313  20.616  0.00  0.00    +0.000 HD
ATOM     29  H   UNL     1      51.188   4.657  18.940  0.00  0.00    +0.000 HD
ENDBRANCH  17  26
ENDBRANCH  16  21
ENDBRANCH   1  16
TORSDOF 6
ENDMDL
