MODEL 1
REMARK VINA RESULT:    -9.356      0.000      0.000
REMARK INTER + INTRA:         -13.898
REMARK INTER:                 -12.638
REMARK INTRA:                  -1.261
REMARK UNBOUND:                -1.261
REMARK  Name = 
REMARK  6 active torsions:
REMARK  status: ('A' for Active; 'I' for Inactive)
REMARK    1  A    between atoms: C_2  and  C_4
REMARK    2  A    between atoms: C_7  and  O_8
REMARK    3  A    between atoms: O_8  and  C_9
REMARK    4  A    between atoms: C_9  and  C_10
REMARK    5  A    between atoms: C_10  and  C_13
REMARK    6  A    between atoms: C_17  and  C_18
REMARK                            x       y       z     vdW  Elec       q    Type
REMARK                         _______ _______ _______ _____ _____    ______ ____
ROOT
ATOM      1  C   UNL     1      43.771   4.830  12.077  0.00  0.00    +0.000 C 
ATOM      2  F   UNL     1      43.200   5.582  11.091  0.00  0.00    +0.000 F 
ATOM      3  F   UNL     1      42.928   4.922  13.147  0.00  0.00    +0.000 F 
ENDROOT
BRANCH   1   4
ATOM      4  C   UNL     1      45.169   5.320  12.414  0.00  0.00    +0.000 A 
ATOM      5  C   UNL     1      45.848   6.185  11.549  0.00  0.00    +0.000 A 
ATOM      6  C   UNL     1      47.112   6.657  11.886  0.00  0.00    +0.000 A 
ATOM      7  C   UNL     1      47.701   6.282  13.097  0.00  0.00    +0.000 A 
ATOM      8  C   UNL     1      47.039   5.437  14.007  0.00  0.00    +0.000 A 
ATOM      9  C   UNL     1      45.773   4.952  13.631  0.00  0.00    +0.000 A 
BRANCH   8  10
ATOM     10  C   UNL     1      47.628   5.113  15.327  0.00  0.00    +0.000 A 
ATOM     11  C   UNL     1      48.616   5.912  15.921  0.00  0.00    +0.000 A 
ATOM     12  C   UNL     1      49.164   5.530  17.139  0.00  0.00    +0.000 A 
ATOM     13  N   UNL     1      48.798   4.425  17.815  0.00  0.00    +0.000 NA
ATOM     14  C   UNL     1      47.841   3.670  17.244  0.00  0.00    +0.000 A 
ATOM     15  F   UNL     1      47.455   2.563  17.890  0.00  0.00    +0.000 F 
ATOM     16  C   UNL     1      47.242   3.964  16.029  0.00  0.00    +0.000 A 
ENDBRANCH   8  10
ENDBRANCH   1   4
BRANCH   1  17
ATOM     17  C   UNL     1      43.834   3.365  11.613  0.00  0.00    +0.000 C 
BRANCH  17  18
ATOM     18  O   UNL     1      43.451   3.253  10.237  0.00  0.00    +0.000 OA
BRANCH  18  22
ATOM     19  C   UNL     1      46.538   2.629   7.504  0.00  0.00    +0.000 A 
ATOM     20  C   UNL     1      46.029   3.924   7.646  0.00  0.00    +0.000 A 
ATOM     21  C   UNL     1      44.994   4.178   8.555  0.00  0.00    +0.000 A 
ATOM     22  C   UNL     1      44.461   3.140   9.322  0.00  0.00    +0.000 A 
ATOM     23  C   UNL     1      44.967   1.846   9.169  0.00  0.00    +0.000 A 
ATOM     24  C   UNL     1      45.997   1.587   8.261  0.00  0.00    +0.000 A 
BRANCH  19  26
ATOM     25  N   UNL     1      47.720   3.105   5.426  0.00  0.00    +0.000 N 
ATOM     26  C   UNL     1      47.626   2.319   6.542  0.00  0.00    +0.000 C 
ATOM     27  O   UNL     1      48.431   1.420   6.748  0.00  0.00    +0.000 OA
ATOM     28  H   UNL     1      48.531   2.950   4.841  0.00  0.00    +0.000 HD
ATOM     29  H   UNL     1      47.253   3.998   5.355  0.00  0.00    +0.000 HD
ENDBRANCH  19  26
ENDBRANCH  18  22
ENDBRANCH  17  18
ENDBRANCH   1  17
TORSDOF 6
ENDMDL
MODEL 2
REMARK VINA RESULT:    -9.175      2.926      4.292
REMARK INTER + INTRA:         -13.654
REMARK INTER:                 -12.461
REMARK INTRA:                  -1.194
REMARK UNBOUND:                -1.261
REMARK  Name = 
REMARK  6 active torsions:
REMARK  status: ('A' for Active; 'I' for Inactive)
REMARK    1  A    between atoms: C_2  and  C_4
REMARK    2  A    between atoms: C_7  and  O_8
REMARK    3  A    between atoms: O_8  and  C_9
REMARK    4  A    between atoms: C_9  and  C_10
REMARK    5  A    between atoms: C_10  and  C_13
REMARK    6  A    between atoms: C_17  and  C_18
REMARK                            x       y       z     vdW  Elec       q    Type
REMARK                         _______ _______ _______ _____ _____    ______ ____
ROOT
ATOM      1  C   UNL     1      43.338   4.531  12.693  0.00  0.00    +0.000 C 
ATOM      2  F   UNL     1      42.340   5.437  12.477  0.00  0.00    +0.000 F 
ATOM      3  F   UNL     1      42.969   3.835  13.808  0.00  0.00    +0.000 F 
ENDROOT
BRANCH   1   4
ATOM      4  C   UNL     1      44.683   5.213  12.872  0.00  0.00    +0.000 A 
ATOM      5  C   UNL     1      45.812   4.475  13.245  0.00  0.00    +0.000 A 
ATOM      6  C   UNL     1      47.046   5.103  13.368  0.00  0.00    +0.000 A 
ATOM      7  C   UNL     1      47.166   6.471  13.105  0.00  0.00    +0.000 A 
ATOM      8  C   UNL     1      46.062   7.243  12.701  0.00  0.00    +0.000 A 
ATOM      9  C   UNL     1      44.819   6.589  12.609  0.00  0.00    +0.000 A 
BRANCH   8  10
ATOM     10  C   UNL     1      46.209   8.672  12.339  0.00  0.00    +0.000 A 
ATOM     11  C   UNL     1      45.102   9.514  12.157  0.00  0.00    +0.000 A 
ATOM     12  C   UNL     1      45.303  10.833  11.771  0.00  0.00    +0.000 A 
ATOM     13  N   UNL     1      46.515  11.380  11.564  0.00  0.00    +0.000 NA
ATOM     14  C   UNL     1      47.572  10.568  11.751  0.00  0.00    +0.000 A 
ATOM     15  F   UNL     1      48.793  11.081  11.552  0.00  0.00    +0.000 F 
ATOM     16  C   UNL     1      47.472   9.238  12.128  0.00  0.00    +0.000 A 
ENDBRANCH   8  10
ENDBRANCH   1   4
BRANCH   1  17
ATOM     17  C   UNL     1      43.402   3.565  11.498  0.00  0.00    +0.000 C 
BRANCH  17  18
ATOM     18  O   UNL     1      43.629   4.283  10.279  0.00  0.00    +0.000 OA
BRANCH  18  22
ATOM     19  C   UNL     1      46.442   2.479   7.783  0.00  0.00    +0.000 A 
ATOM     20  C   UNL     1      46.313   3.872   7.742  0.00  0.00    +0.000 A 
ATOM     21  C   UNL     1      45.383   4.518   8.566  0.00  0.00    +0.000 A 
ATOM     22  C   UNL     1      44.575   3.777   9.431  0.00  0.00    +0.000 A 
ATOM     23  C   UNL     1      44.701   2.385   9.461  0.00  0.00    +0.000 A 
ATOM     24  C   UNL     1      45.624   1.735   8.638  0.00  0.00    +0.000 A 
BRANCH  19  26
ATOM     25  N   UNL     1      48.491   2.461   6.466  0.00  0.00    +0.000 N 
ATOM     26  C   UNL     1      47.408   1.758   6.917  0.00  0.00    +0.000 C 
ATOM     27  O   UNL     1      47.267   0.574   6.640  0.00  0.00    +0.000 OA
ATOM     28  H   UNL     1      49.194   1.926   5.971  0.00  0.00    +0.000 HD
ATOM     29  H   UNL     1      48.775   3.338   6.878  0.00  0.00    +0.000 HD
ENDBRANCH  19  26
ENDBRANCH  18  22
ENDBRANCH  17  18
ENDBRANCH   1  17
TORSDOF 6
ENDMDL
MODEL 3
REMARK VINA RESULT:    -9.099      1.079      1.446
REMARK INTER + INTRA:         -13.551
REMARK INTER:                 -12.332
REMARK INTRA:                  -1.219
REMARK UNBOUND:                -1.261
REMARK  Name = 
REMARK  6 active torsions:
REMARK  status: ('A' for Active; 'I' for Inactive)
REMARK    1  A    between atoms: C_2  and  C_4
REMARK    2  A    between atoms: C_7  and  O_8
REMARK    3  A    between atoms: O_8  and  C_9
REMARK    4  A    between atoms: C_9  and  C_10
REMARK    5  A    between atoms: C_10  and  C_13
REMARK    6  A    between atoms: C_17  and  C_18
REMARK                            x       y       z     vdW  Elec       q    Type
REMARK                         _______ _______ _______ _____ _____    ______ ____
ROOT
ATOM      1  C   UNL     1      43.785   4.570  12.533  0.00  0.00    +0.000 C 
ATOM      2  F   UNL     1      42.855   5.219  13.294  0.00  0.00    +0.000 F 
ATOM      3  F   UNL     1      43.658   3.246  12.844  0.00  0.00    +0.000 F 
ENDROOT
BRANCH   1   4
ATOM      4  C   UNL     1      45.188   5.084  12.808  0.00  0.00    +0.000 A 
ATOM      5  C   UNL     1      45.809   5.967  11.918  0.00  0.00    +0.000 A 
ATOM      6  C   UNL     1      47.079   6.461  12.198  0.00  0.00    +0.000 A 
ATOM      7  C   UNL     1      47.731   6.089  13.377  0.00  0.00    +0.000 A 
ATOM      8  C   UNL     1      47.130   5.225  14.311  0.00  0.00    +0.000 A 
ATOM      9  C   UNL     1      45.857   4.719  13.991  0.00  0.00    +0.000 A 
BRANCH   8  10
ATOM     10  C   UNL     1      47.786   4.902  15.599  0.00  0.00    +0.000 A 
ATOM     11  C   UNL     1      47.562   3.689  16.268  0.00  0.00    +0.000 A 
ATOM     12  C   UNL     1      48.169   3.464  17.497  0.00  0.00    +0.000 A 
ATOM     13  N   UNL     1      48.989   4.343  18.103  0.00  0.00    +0.000 NA
ATOM     14  C   UNL     1      49.207   5.499  17.449  0.00  0.00    +0.000 A 
ATOM     15  F   UNL     1      50.017   6.396  18.026  0.00  0.00    +0.000 F 
ATOM     16  C   UNL     1      48.640   5.818  16.225  0.00  0.00    +0.000 A 
ENDBRANCH   8  10
ENDBRANCH   1   4
BRANCH   1  17
ATOM     17  C   UNL     1      43.443   4.770  11.047  0.00  0.00    +0.000 C 
BRANCH  17  18
ATOM     18  O   UNL     1      43.467   3.519  10.350  0.00  0.00    +0.000 OA
BRANCH  18  22
ATOM     19  C   UNL     1      46.488   2.708   7.591  0.00  0.00    +0.000 A 
ATOM     20  C   UNL     1      46.091   4.037   7.770  0.00  0.00    +0.000 A 
ATOM     21  C   UNL     1      45.082   4.354   8.689  0.00  0.00    +0.000 A 
ATOM     22  C   UNL     1      44.463   3.345   9.429  0.00  0.00    +0.000 A 
ATOM     23  C   UNL     1      44.857   2.017   9.239  0.00  0.00    +0.000 A 
ATOM     24  C   UNL     1      45.860   1.696   8.321  0.00  0.00    +0.000 A 
BRANCH  19  26
ATOM     25  N   UNL     1      47.514   2.939   5.393  0.00  0.00    +0.000 N 
ATOM     26  C   UNL     1      47.545   2.332   6.618  0.00  0.00    +0.000 C 
ATOM     27  O   UNL     1      48.431   1.538   6.905  0.00  0.00    +0.000 OA
ATOM     28  H   UNL     1      48.303   2.755   4.786  0.00  0.00    +0.000 HD
ATOM     29  H   UNL     1      46.972   3.773   5.217  0.00  0.00    +0.000 HD
ENDBRANCH  19  26
ENDBRANCH  18  22
ENDBRANCH  17  18
ENDBRANCH   1  17
TORSDOF 6
ENDMDL
MODEL 4
REMARK VINA RESULT:    -8.968      2.749      4.457
REMARK INTER + INTRA:         -13.374
REMARK INTER:                 -12.182
REMARK INTRA:                  -1.192
REMARK UNBOUND:                -1.261
REMARK  Name = 
REMARK  6 active torsions:
REMARK  status: ('A' for Active; 'I' for Inactive)
REMARK    1  A    between atoms: C_2  and  C_4
REMARK    2  A    between atoms: C_7  and  O_8
REMARK    3  A    between atoms: O_8  and  C_9
REMARK    4  A    between atoms: C_9  and  C_10
REMARK    5  A    between atoms: C_10  and  C_13
REMARK    6  A    between atoms: C_17  and  C_18
REMARK                            x       y       z     vdW  Elec       q    Type
REMARK                         _______ _______ _______ _____ _____    ______ ____
ROOT
ATOM      1  C   UNL     1      43.361   4.410  12.751  0.00  0.00    +0.000 C 
ATOM      2  F   UNL     1      42.320   5.258  12.505  0.00  0.00    +0.000 F 
ATOM      3  F   UNL     1      43.034   3.747  13.900  0.00  0.00    +0.000 F 
ENDROOT
BRANCH   1   4
ATOM      4  C   UNL     1      44.674   5.162  12.886  0.00  0.00    +0.000 A 
ATOM      5  C   UNL     1      45.847   4.488  13.245  0.00  0.00    +0.000 A 
ATOM      6  C   UNL     1      47.051   5.179  13.328  0.00  0.00    +0.000 A 
ATOM      7  C   UNL     1      47.095   6.547  13.039  0.00  0.00    +0.000 A 
ATOM      8  C   UNL     1      45.944   7.255  12.649  0.00  0.00    +0.000 A 
ATOM      9  C   UNL     1      44.735   6.538  12.597  0.00  0.00    +0.000 A 
BRANCH   8  10
ATOM     10  C   UNL     1      46.011   8.682  12.258  0.00  0.00    +0.000 A 
ATOM     11  C   UNL     1      47.207   9.414  12.307  0.00  0.00    +0.000 A 
ATOM     12  C   UNL     1      47.197  10.763  11.974  0.00  0.00    +0.000 A 
ATOM     13  N   UNL     1      46.096  11.434  11.587  0.00  0.00    +0.000 NA
ATOM     14  C   UNL     1      44.956  10.721  11.532  0.00  0.00    +0.000 A 
ATOM     15  F   UNL     1      43.842  11.360  11.153  0.00  0.00    +0.000 F 
ATOM     16  C   UNL     1      44.865   9.376  11.854  0.00  0.00    +0.000 A 
ENDBRANCH   8  10
ENDBRANCH   1   4
BRANCH   1  17
ATOM     17  C   UNL     1      43.462   3.395  11.599  0.00  0.00    +0.000 C 
BRANCH  17  18
ATOM     18  O   UNL     1      43.637   4.069  10.347  0.00  0.00    +0.000 OA
BRANCH  18  22
ATOM     19  C   UNL     1      46.469   2.688   7.614  0.00  0.00    +0.000 A 
ATOM     20  C   UNL     1      45.786   1.749   8.394  0.00  0.00    +0.000 A 
ATOM     21  C   UNL     1      44.825   2.171   9.322  0.00  0.00    +0.000 A 
ATOM     22  C   UNL     1      44.545   3.529   9.477  0.00  0.00    +0.000 A 
ATOM     23  C   UNL     1      45.237   4.464   8.702  0.00  0.00    +0.000 A 
ATOM     24  C   UNL     1      46.199   4.049   7.777  0.00  0.00    +0.000 A 
BRANCH  19  26
ATOM     25  N   UNL     1      47.514   2.936   5.427  0.00  0.00    +0.000 N 
ATOM     26  C   UNL     1      47.502   2.281   6.628  0.00  0.00    +0.000 C 
ATOM     27  O   UNL     1      48.333   1.420   6.883  0.00  0.00    +0.000 OA
ATOM     28  H   UNL     1      48.291   2.724   4.813  0.00  0.00    +0.000 HD
ATOM     29  H   UNL     1      47.029   3.810   5.283  0.00  0.00    +0.000 HD
ENDBRANCH  19  26
ENDBRANCH  18  22
ENDBRANCH  17  18
ENDBRANCH   1  17
TORSDOF 6
ENDMDL
MODEL 5
REMARK VINA RESULT:    -8.391      2.664      3.890
REMARK INTER + INTRA:         -12.595
REMARK INTER:                 -11.647
REMARK INTRA:                  -0.948
REMARK UNBOUND:                -1.261
REMARK  Name = 
REMARK  6 active torsions:
REMARK  status: ('A' for Active; 'I' for Inactive)
REMARK    1  A    between atoms: C_2  and  C_4
REMARK    2  A    between atoms: C_7  and  O_8
REMARK    3  A    between atoms: O_8  and  C_9
REMARK    4  A    between atoms: C_9  and  C_10
REMARK    5  A    between atoms: C_10  and  C_13
REMARK    6  A    between atoms: C_17  and  C_18
REMARK                            x       y       z     vdW  Elec       q    Type
REMARK                         _______ _______ _______ _____ _____    ______ ____
ROOT
ATOM      1  C   UNL     1      43.330   5.788  11.613  0.00  0.00    +0.000 C 
ATOM      2  F   UNL     1      43.044   7.086  11.302  0.00  0.00    +0.000 F 
ATOM      3  F   UNL     1      42.304   5.365  12.409  0.00  0.00    +0.000 F 
ENDROOT
BRANCH   1   4
ATOM      4  C   UNL     1      44.674   5.663  12.309  0.00  0.00    +0.000 A 
ATOM      5  C   UNL     1      44.932   4.593  13.173  0.00  0.00    +0.000 A 
ATOM      6  C   UNL     1      46.179   4.468  13.775  0.00  0.00    +0.000 A 
ATOM      7  C   UNL     1      47.184   5.403  13.506  0.00  0.00    +0.000 A 
ATOM      8  C   UNL     1      46.974   6.477  12.622  0.00  0.00    +0.000 A 
ATOM      9  C   UNL     1      45.695   6.595  12.047  0.00  0.00    +0.000 A 
BRANCH   8  10
ATOM     10  C   UNL     1      48.067   7.414  12.272  0.00  0.00    +0.000 A 
ATOM     11  C   UNL     1      49.418   7.088  12.459  0.00  0.00    +0.000 A 
ATOM     12  C   UNL     1      50.396   8.026  12.157  0.00  0.00    +0.000 A 
ATOM     13  N   UNL     1      50.135   9.256  11.673  0.00  0.00    +0.000 NA
ATOM     14  C   UNL     1      48.837   9.556  11.486  0.00  0.00    +0.000 A 
ATOM     15  F   UNL     1      48.543  10.771  11.008  0.00  0.00    +0.000 F 
ATOM     16  C   UNL     1      47.791   8.690  11.767  0.00  0.00    +0.000 A 
ENDBRANCH   8  10
ENDBRANCH   1   4
BRANCH   1  17
ATOM     17  C   UNL     1      43.336   4.955  10.320  0.00  0.00    +0.000 C 
BRANCH  17  18
ATOM     18  O   UNL     1      43.995   3.700  10.532  0.00  0.00    +0.000 OA
BRANCH  18  22
ATOM     19  C   UNL     1      46.593   2.653   7.441  0.00  0.00    +0.000 A 
ATOM     20  C   UNL     1      46.020   1.629   8.203  0.00  0.00    +0.000 A 
ATOM     21  C   UNL     1      45.140   1.937   9.248  0.00  0.00    +0.000 A 
ATOM     22  C   UNL     1      44.832   3.267   9.539  0.00  0.00    +0.000 A 
ATOM     23  C   UNL     1      45.414   4.287   8.781  0.00  0.00    +0.000 A 
ATOM     24  C   UNL     1      46.296   3.985   7.740  0.00  0.00    +0.000 A 
BRANCH  19  26
ATOM     25  N   UNL     1      47.418   3.118   5.196  0.00  0.00    +0.000 N 
ATOM     26  C   UNL     1      47.539   2.367   6.333  0.00  0.00    +0.000 C 
ATOM     27  O   UNL     1      48.415   1.519   6.436  0.00  0.00    +0.000 OA
ATOM     28  H   UNL     1      48.139   2.986   4.498  0.00  0.00    +0.000 HD
ATOM     29  H   UNL     1      46.897   3.983   5.174  0.00  0.00    +0.000 HD
ENDBRANCH  19  26
ENDBRANCH  18  22
ENDBRANCH  17  18
ENDBRANCH   1  17
TORSDOF 6
ENDMDL
MODEL 6
REMARK VINA RESULT:    -8.319      1.783      2.221
REMARK INTER + INTRA:         -12.497
REMARK INTER:                 -11.382
REMARK INTRA:                  -1.115
REMARK UNBOUND:                -1.261
REMARK  Name = 
REMARK  6 active torsions:
REMARK  status: ('A' for Active; 'I' for Inactive)
REMARK    1  A    between atoms: C_2  and  C_4
REMARK    2  A    between atoms: C_7  and  O_8
REMARK    3  A    between atoms: O_8  and  C_9
REMARK    4  A    between atoms: C_9  and  C_10
REMARK    5  A    between atoms: C_10  and  C_13
REMARK    6  A    between atoms: C_17  and  C_18
REMARK                            x       y       z     vdW  Elec       q    Type
REMARK                         _______ _______ _______ _____ _____    ______ ____
ROOT
ATOM      1  C   UNL     1      43.993   5.054  12.339  0.00  0.00    +0.000 C 
ATOM      2  F   UNL     1      43.006   5.200  13.271  0.00  0.00    +0.000 F 
ATOM      3  F   UNL     1      44.669   3.922  12.692  0.00  0.00    +0.000 F 
ENDROOT
BRANCH   1   4
ATOM      4  C   UNL     1      44.905   6.268  12.297  0.00  0.00    +0.000 A 
ATOM      5  C   UNL     1      44.506   7.435  11.636  0.00  0.00    +0.000 A 
ATOM      6  C   UNL     1      45.333   8.554  11.635  0.00  0.00    +0.000 A 
ATOM      7  C   UNL     1      46.558   8.520  12.308  0.00  0.00    +0.000 A 
ATOM      8  C   UNL     1      46.983   7.375  13.007  0.00  0.00    +0.000 A 
ATOM      9  C   UNL     1      46.140   6.249  12.970  0.00  0.00    +0.000 A 
BRANCH   8  10
ATOM     10  C   UNL     1      48.240   7.372  13.792  0.00  0.00    +0.000 A 
ATOM     11  C   UNL     1      49.373   8.094  13.389  0.00  0.00    +0.000 A 
ATOM     12  C   UNL     1      50.538   8.013  14.141  0.00  0.00    +0.000 A 
ATOM     13  N   UNL     1      50.659   7.283  15.265  0.00  0.00    +0.000 NA
ATOM     14  C   UNL     1      49.563   6.603  15.651  0.00  0.00    +0.000 A 
ATOM     15  F   UNL     1      49.650   5.865  16.765  0.00  0.00    +0.000 F 
ATOM     16  C   UNL     1      48.360   6.614  14.962  0.00  0.00    +0.000 A 
ENDBRANCH   8  10
ENDBRANCH   1   4
BRANCH   1  17
ATOM     17  C   UNL     1      43.348   4.843  10.959  0.00  0.00    +0.000 C 
BRANCH  17  18
ATOM     18  O   UNL     1      43.564   3.503  10.500  0.00  0.00    +0.000 OA
BRANCH  18  22
ATOM     19  C   UNL     1      46.449   2.690   7.599  0.00  0.00    +0.000 A 
ATOM     20  C   UNL     1      46.053   4.018   7.788  0.00  0.00    +0.000 A 
ATOM     21  C   UNL     1      45.089   4.335   8.754  0.00  0.00    +0.000 A 
ATOM     22  C   UNL     1      44.514   3.328   9.532  0.00  0.00    +0.000 A 
ATOM     23  C   UNL     1      44.907   2.001   9.332  0.00  0.00    +0.000 A 
ATOM     24  C   UNL     1      45.865   1.679   8.368  0.00  0.00    +0.000 A 
BRANCH  19  26
ATOM     25  N   UNL     1      47.465   3.026   5.410  0.00  0.00    +0.000 N 
ATOM     26  C   UNL     1      47.459   2.313   6.578  0.00  0.00    +0.000 C 
ATOM     27  O   UNL     1      48.277   1.426   6.777  0.00  0.00    +0.000 OA
ATOM     28  H   UNL     1      48.228   2.831   4.775  0.00  0.00    +0.000 HD
ATOM     29  H   UNL     1      46.995   3.916   5.318  0.00  0.00    +0.000 HD
ENDBRANCH  19  26
ENDBRANCH  18  22
ENDBRANCH  17  18
ENDBRANCH   1  17
TORSDOF 6
ENDMDL
MODEL 7
REMARK VINA RESULT:    -8.317      2.519      3.490
REMARK INTER + INTRA:         -12.495
REMARK INTER:                 -11.863
REMARK INTRA:                  -0.633
REMARK UNBOUND:                -1.261
REMARK  Name = 
REMARK  6 active torsions:
REMARK  status: ('A' for Active; 'I' for Inactive)
REMARK    1  A    between atoms: C_2  and  C_4
REMARK    2  A    between atoms: C_7  and  O_8
REMARK    3  A    between atoms: O_8  and  C_9
REMARK    4  A    between atoms: C_9  and  C_10
REMARK    5  A    between atoms: C_10  and  C_13
REMARK    6  A    between atoms: C_17  and  C_18
REMARK                            x       y       z     vdW  Elec       q    Type
REMARK                         _______ _______ _______ _____ _____    ______ ____
ROOT
ATOM      1  C   UNL     1      44.307   3.871  12.464  0.00  0.00    +0.000 C 
ATOM      2  F   UNL     1      43.650   3.786  13.658  0.00  0.00    +0.000 F 
ATOM      3  F   UNL     1      45.352   2.997  12.554  0.00  0.00    +0.000 F 
ENDROOT
BRANCH   1   4
ATOM      4  C   UNL     1      44.777   5.288  12.185  0.00  0.00    +0.000 A 
ATOM      5  C   UNL     1      43.867   6.276  11.794  0.00  0.00    +0.000 A 
ATOM      6  C   UNL     1      44.302   7.579  11.578  0.00  0.00    +0.000 A 
ATOM      7  C   UNL     1      45.648   7.909  11.765  0.00  0.00    +0.000 A 
ATOM      8  C   UNL     1      46.589   6.951  12.184  0.00  0.00    +0.000 A 
ATOM      9  C   UNL     1      46.128   5.635  12.370  0.00  0.00    +0.000 A 
BRANCH   8  10
ATOM     10  C   UNL     1      47.995   7.323  12.467  0.00  0.00    +0.000 A 
ATOM     11  C   UNL     1      48.613   7.029  13.692  0.00  0.00    +0.000 A 
ATOM     12  C   UNL     1      49.919   7.446  13.916  0.00  0.00    +0.000 A 
ATOM     13  N   UNL     1      50.659   8.118  13.014  0.00  0.00    +0.000 NA
ATOM     14  C   UNL     1      50.063   8.385  11.838  0.00  0.00    +0.000 A 
ATOM     15  F   UNL     1      50.771   9.054  10.920  0.00  0.00    +0.000 F 
ATOM     16  C   UNL     1      48.763   8.019  11.526  0.00  0.00    +0.000 A 
ENDBRANCH   8  10
ENDBRANCH   1   4
BRANCH   1  17
ATOM     17  C   UNL     1      43.362   3.409  11.341  0.00  0.00    +0.000 C 
BRANCH  17  18
ATOM     18  O   UNL     1      43.600   4.155  10.141  0.00  0.00    +0.000 OA
BRANCH  18  22
ATOM     19  C   UNL     1      46.517   2.471   7.683  0.00  0.00    +0.000 A 
ATOM     20  C   UNL     1      46.358   3.861   7.668  0.00  0.00    +0.000 A 
ATOM     21  C   UNL     1      45.391   4.467   8.481  0.00  0.00    +0.000 A 
ATOM     22  C   UNL     1      44.579   3.689   9.308  0.00  0.00    +0.000 A 
ATOM     23  C   UNL     1      44.736   2.300   9.311  0.00  0.00    +0.000 A 
ATOM     24  C   UNL     1      45.696   1.690   8.500  0.00  0.00    +0.000 A 
BRANCH  19  26
ATOM     25  N   UNL     1      48.600   2.528   6.419  0.00  0.00    +0.000 N 
ATOM     26  C   UNL     1      47.523   1.791   6.827  0.00  0.00    +0.000 C 
ATOM     27  O   UNL     1      47.416   0.611   6.521  0.00  0.00    +0.000 OA
ATOM     28  H   UNL     1      49.327   2.020   5.932  0.00  0.00    +0.000 HD
ATOM     29  H   UNL     1      48.853   3.403   6.858  0.00  0.00    +0.000 HD
ENDBRANCH  19  26
ENDBRANCH  18  22
ENDBRANCH  17  18
ENDBRANCH   1  17
TORSDOF 6
ENDMDL
MODEL 8
REMARK VINA RESULT:    -7.856      2.864      7.601
REMARK INTER + INTRA:         -11.873
REMARK INTER:                 -10.581
REMARK INTRA:                  -1.292
REMARK UNBOUND:                -1.261
REMARK  Name = 
REMARK  6 active torsions:
REMARK  status: ('A' for Active; 'I' for Inactive)
REMARK    1  A    between atoms: C_2  and  C_4
REMARK    2  A    between atoms: C_7  and  O_8
REMARK    3  A    between atoms: O_8  and  C_9
REMARK    4  A    between atoms: C_9  and  C_10
REMARK    5  A    between atoms: C_10  and  C_13
REMARK    6  A    between atoms: C_17  and  C_18
REMARK                            x       y       z     vdW  Elec       q    Type
REMARK                         _______ _______ _______ _____ _____    ______ ____
ROOT
ATOM      1  C   UNL     1      44.686   6.830  11.359  0.00  0.00    +0.000 C 
ATOM      2  F   UNL     1      43.507   7.519  11.315  0.00  0.00    +0.000 F 
ATOM      3  F   UNL     1      45.498   7.431  10.441  0.00  0.00    +0.000 F 
ENDROOT
BRANCH   1   4
ATOM      4  C   UNL     1      44.483   5.356  11.056  0.00  0.00    +0.000 A 
ATOM      5  C   UNL     1      43.500   4.620  11.727  0.00  0.00    +0.000 A 
ATOM      6  C   UNL     1      43.297   3.280  11.415  0.00  0.00    +0.000 A 
ATOM      7  C   UNL     1      44.064   2.669  10.419  0.00  0.00    +0.000 A 
ATOM      8  C   UNL     1      45.043   3.381   9.702  0.00  0.00    +0.000 A 
ATOM      9  C   UNL     1      45.246   4.727  10.055  0.00  0.00    +0.000 A 
BRANCH   8  10
ATOM     10  C   UNL     1      45.793   2.754   8.588  0.00  0.00    +0.000 A 
ATOM     11  C   UNL     1      46.327   3.507   7.531  0.00  0.00    +0.000 A 
ATOM     12  C   UNL     1      46.978   2.858   6.490  0.00  0.00    +0.000 A 
ATOM     13  N   UNL     1      47.150   1.524   6.425  0.00  0.00    +0.000 NA
ATOM     14  C   UNL     1      46.644   0.811   7.449  0.00  0.00    +0.000 A 
ATOM     15  F   UNL     1      46.796  -0.519   7.414  0.00  0.00    +0.000 F 
ATOM     16  C   UNL     1      45.972   1.368   8.525  0.00  0.00    +0.000 A 
ENDBRANCH   8  10
ENDBRANCH   1   4
BRANCH   1  17
ATOM     17  C   UNL     1      45.305   6.991  12.758  0.00  0.00    +0.000 C 
BRANCH  17  18
ATOM     18  O   UNL     1      46.678   6.579  12.753  0.00  0.00    +0.000 OA
BRANCH  18  22
ATOM     19  C   UNL     1      47.828   4.049  15.862  0.00  0.00    +0.000 A 
ATOM     20  C   UNL     1      48.261   5.379  15.893  0.00  0.00    +0.000 A 
ATOM     21  C   UNL     1      47.895   6.263  14.870  0.00  0.00    +0.000 A 
ATOM     22  C   UNL     1      47.099   5.822  13.811  0.00  0.00    +0.000 A 
ATOM     23  C   UNL     1      46.677   4.490  13.780  0.00  0.00    +0.000 A 
ATOM     24  C   UNL     1      47.043   3.603  14.796  0.00  0.00    +0.000 A 
BRANCH  19  26
ATOM     25  N   UNL     1      47.274   2.815  17.888  0.00  0.00    +0.000 N 
ATOM     26  C   UNL     1      48.205   3.080  16.922  0.00  0.00    +0.000 C 
ATOM     27  O   UNL     1      49.289   2.512  16.920  0.00  0.00    +0.000 OA
ATOM     28  H   UNL     1      47.506   2.072  18.536  0.00  0.00    +0.000 HD
ATOM     29  H   UNL     1      46.299   3.054  17.778  0.00  0.00    +0.000 HD
ENDBRANCH  19  26
ENDBRANCH  18  22
ENDBRANCH  17  18
ENDBRANCH   1  17
TORSDOF 6
ENDMDL
MODEL 9
REMARK VINA RESULT:    -7.690      2.976      7.762
REMARK INTER + INTRA:         -11.648
REMARK INTER:                 -10.809
REMARK INTRA:                  -0.839
REMARK UNBOUND:                -1.261
REMARK  Name = 
REMARK  6 active torsions:
REMARK  status: ('A' for Active; 'I' for Inactive)
REMARK    1  A    between atoms: C_2  and  C_4
REMARK    2  A    between atoms: C_7  and  O_8
REMARK    3  A    between atoms: O_8  and  C_9
REMARK    4  A    between atoms: C_9  and  C_10
REMARK    5  A    between atoms: C_10  and  C_13
REMARK    6  A    between atoms: C_17  and  C_18
REMARK                            x       y       z     vdW  Elec       q    Type
REMARK                         _______ _______ _______ _____ _____    ______ ____
ROOT
ATOM      1  C   UNL     1      45.860   7.689  12.011  0.00  0.00    +0.000 C 
ATOM      2  F   UNL     1      45.576   7.993  13.311  0.00  0.00    +0.000 F 
ATOM      3  F   UNL     1      45.622   8.832  11.304  0.00  0.00    +0.000 F 
ENDROOT
BRANCH   1   4
ATOM      4  C   UNL     1      45.017   6.529  11.512  0.00  0.00    +0.000 A 
ATOM      5  C   UNL     1      43.678   6.403  11.900  0.00  0.00    +0.000 A 
ATOM      6  C   UNL     1      42.904   5.358  11.407  0.00  0.00    +0.000 A 
ATOM      7  C   UNL     1      43.457   4.439  10.509  0.00  0.00    +0.000 A 
ATOM      8  C   UNL     1      44.790   4.547  10.072  0.00  0.00    +0.000 A 
ATOM      9  C   UNL     1      45.559   5.597  10.607  0.00  0.00    +0.000 A 
BRANCH   8  10
ATOM     10  C   UNL     1      45.346   3.625   9.055  0.00  0.00    +0.000 A 
ATOM     11  C   UNL     1      45.389   2.236   9.250  0.00  0.00    +0.000 A 
ATOM     12  C   UNL     1      45.966   1.427   8.279  0.00  0.00    +0.000 A 
ATOM     13  N   UNL     1      46.491   1.890   7.129  0.00  0.00    +0.000 NA
ATOM     14  C   UNL     1      46.435   3.222   6.945  0.00  0.00    +0.000 A 
ATOM     15  F   UNL     1      46.951   3.715   5.812  0.00  0.00    +0.000 F 
ATOM     16  C   UNL     1      45.888   4.110   7.859  0.00  0.00    +0.000 A 
ENDBRANCH   8  10
ENDBRANCH   1   4
BRANCH   1  17
ATOM     17  C   UNL     1      47.352   7.331  11.896  0.00  0.00    +0.000 C 
BRANCH  17  18
ATOM     18  O   UNL     1      47.996   7.434  13.172  0.00  0.00    +0.000 OA
BRANCH  18  22
ATOM     19  C   UNL     1      47.685   4.356  15.969  0.00  0.00    +0.000 A 
ATOM     20  C   UNL     1      47.122   4.163  14.703  0.00  0.00    +0.000 A 
ATOM     21  C   UNL     1      47.207   5.170  13.734  0.00  0.00    +0.000 A 
ATOM     22  C   UNL     1      47.849   6.375  14.025  0.00  0.00    +0.000 A 
ATOM     23  C   UNL     1      48.402   6.566  15.294  0.00  0.00    +0.000 A 
ATOM     24  C   UNL     1      48.317   5.566  16.266  0.00  0.00    +0.000 A 
BRANCH  19  26
ATOM     25  N   UNL     1      48.786   2.867  17.553  0.00  0.00    +0.000 N 
ATOM     26  C   UNL     1      47.606   3.317  17.027  0.00  0.00    +0.000 C 
ATOM     27  O   UNL     1      46.533   2.898  17.440  0.00  0.00    +0.000 OA
ATOM     28  H   UNL     1      48.709   2.243  18.346  0.00  0.00    +0.000 HD
ATOM     29  H   UNL     1      49.656   3.365  17.431  0.00  0.00    +0.000 HD
ENDBRANCH  19  26
ENDBRANCH  18  22
ENDBRANCH  17  18
ENDBRANCH   1  17
TORSDOF 6
ENDMDL
