MODEL 1
REMARK VINA RESULT:    -9.068      0.000      0.000
REMARK INTER + INTRA:         -11.975
REMARK INTER:                 -11.188
REMARK INTRA:                  -0.788
REMARK UNBOUND:                -0.788
REMARK  Name = 
REMARK  4 active torsions:
REMARK  status: ('A' for Active; 'I' for Inactive)
REMARK    1  A    between atoms: C_2  and  C_4
REMARK    2  A    between atoms: N_8  and  C_9
REMARK    3  A    between atoms: C_9  and  C_10
REMARK    4  A    between atoms: C_14  and  C_15
REMARK                            x       y       z     vdW  Elec       q    Type
REMARK                         _______ _______ _______ _____ _____    ______ ____
ROOT
ATOM      1  C   UNL     1      43.484   4.878  11.049  0.00  0.00    +0.000 C 
ENDROOT
BRANCH   1   6
ATOM      2  C   UNL     1      46.359   2.222   7.724  0.00  0.00    +0.000 A 
ATOM      3  C   UNL     1      45.622   1.749   8.804  0.00  0.00    +0.000 A 
ATOM      4  C   UNL     1      44.767   2.624   9.480  0.00  0.00    +0.000 A 
ATOM      5  C   UNL     1      44.675   3.952   9.076  0.00  0.00    +0.000 A 
ATOM      6  N   UNL     1      43.816   4.866   9.640  0.00  0.00    +0.000 N 
ATOM      7  N   UNL     1      45.394   4.422   8.038  0.00  0.00    +0.000 NA
ATOM      8  C   UNL     1      46.222   3.560   7.390  0.00  0.00    +0.000 A 
ATOM      9  H   UNL     1      43.980   5.777   9.223  0.00  0.00    +0.000 HD
BRANCH   2  11
ATOM     10  N   UNL     1      48.381   1.974   6.398  0.00  0.00    +0.000 N 
ATOM     11  C   UNL     1      47.278   1.374   6.938  0.00  0.00    +0.000 C 
ATOM     12  O   UNL     1      47.081   0.174   6.805  0.00  0.00    +0.000 OA
ATOM     13  H   UNL     1      49.050   1.360   5.950  0.00  0.00    +0.000 HD
ATOM     14  H   UNL     1      48.708   2.883   6.690  0.00  0.00    +0.000 HD
ENDBRANCH   2  11
ENDBRANCH   1   6
BRANCH   1  15
ATOM     15  C   UNL     1      44.638   5.166  11.987  0.00  0.00    +0.000 A 
ATOM     16  C   UNL     1      45.032   4.327  13.035  0.00  0.00    +0.000 A 
ATOM     17  C   UNL     1      46.129   4.661  13.829  0.00  0.00    +0.000 A 
ATOM     18  C   UNL     1      46.851   5.832  13.585  0.00  0.00    +0.000 A 
ATOM     19  C   UNL     1      46.497   6.699  12.540  0.00  0.00    +0.000 A 
ATOM     20  C   UNL     1      45.374   6.349  11.766  0.00  0.00    +0.000 A 
BRANCH  19  21
ATOM     21  C   UNL     1      47.294   7.903  12.229  0.00  0.00    +0.000 A 
ATOM     22  C   UNL     1      46.770   9.193  12.375  0.00  0.00    +0.000 A 
ATOM     23  N   UNL     1      47.444  10.350  12.143  0.00  0.00    +0.000 NA
ATOM     24  C   UNL     1      48.731  10.221  11.750  0.00  0.00    +0.000 A 
ATOM     25  C   UNL     1      49.351   8.998  11.577  0.00  0.00    +0.000 A 
ATOM     26  F   UNL     1      50.631   8.933  11.192  0.00  0.00    +0.000 F 
ATOM     27  C   UNL     1      48.631   7.832  11.810  0.00  0.00    +0.000 A 
ENDBRANCH  19  21
ENDBRANCH   1  15
TORSDOF 4
ENDMDL
MODEL 2
REMARK VINA RESULT:    -8.715      2.611      3.903
REMARK INTER + INTRA:         -11.540
REMARK INTER:                 -10.780
REMARK INTRA:                  -0.760
REMARK UNBOUND:                -0.788
REMARK  Name = 
REMARK  4 active torsions:
REMARK  status: ('A' for Active; 'I' for Inactive)
REMARK    1  A    between atoms: C_2  and  C_4
REMARK    2  A    between atoms: N_8  and  C_9
REMARK    3  A    between atoms: C_9  and  C_10
REMARK    4  A    between atoms: C_14  and  C_15
REMARK                            x       y       z     vdW  Elec       q    Type
REMARK                         _______ _______ _______ _____ _____    ______ ____
ROOT
ATOM      1  C   UNL     1      43.672   5.116  11.023  0.00  0.00    +0.000 C 
ENDROOT
BRANCH   1   6
ATOM      2  C   UNL     1      46.377   2.218   7.758  0.00  0.00    +0.000 A 
ATOM      3  C   UNL     1      45.698   1.827   8.907  0.00  0.00    +0.000 A 
ATOM      4  C   UNL     1      44.877   2.751   9.560  0.00  0.00    +0.000 A 
ATOM      5  C   UNL     1      44.762   4.046   9.065  0.00  0.00    +0.000 A 
ATOM      6  N   UNL     1      43.931   5.000   9.604  0.00  0.00    +0.000 N 
ATOM      7  N   UNL     1      45.425   4.437   7.960  0.00  0.00    +0.000 NA
ATOM      8  C   UNL     1      46.221   3.528   7.335  0.00  0.00    +0.000 A 
ATOM      9  H   UNL     1      44.071   5.878   9.113  0.00  0.00    +0.000 HD
BRANCH   2  11
ATOM     10  N   UNL     1      48.381   1.853   6.432  0.00  0.00    +0.000 N 
ATOM     11  C   UNL     1      47.256   1.314   6.991  0.00  0.00    +0.000 C 
ATOM     12  O   UNL     1      47.008   0.119   6.887  0.00  0.00    +0.000 OA
ATOM     13  H   UNL     1      49.022   1.200   5.997  0.00  0.00    +0.000 HD
ATOM     14  H   UNL     1      48.747   2.754   6.701  0.00  0.00    +0.000 HD
ENDBRANCH   2  11
ENDBRANCH   1   6
BRANCH   1  15
ATOM     15  C   UNL     1      44.755   5.804  11.829  0.00  0.00    +0.000 A 
ATOM     16  C   UNL     1      45.095   7.155  11.702  0.00  0.00    +0.000 A 
ATOM     17  C   UNL     1      46.087   7.709  12.511  0.00  0.00    +0.000 A 
ATOM     18  C   UNL     1      46.749   6.925  13.460  0.00  0.00    +0.000 A 
ATOM     19  C   UNL     1      46.434   5.569  13.628  0.00  0.00    +0.000 A 
ATOM     20  C   UNL     1      45.444   5.029  12.786  0.00  0.00    +0.000 A 
BRANCH  19  21
ATOM     21  C   UNL     1      47.077   4.748  14.675  0.00  0.00    +0.000 A 
ATOM     22  C   UNL     1      47.292   3.375  14.507  0.00  0.00    +0.000 A 
ATOM     23  N   UNL     1      47.903   2.557  15.404  0.00  0.00    +0.000 NA
ATOM     24  C   UNL     1      48.343   3.141  16.540  0.00  0.00    +0.000 A 
ATOM     25  C   UNL     1      48.188   4.489  16.809  0.00  0.00    +0.000 A 
ATOM     26  F   UNL     1      48.651   5.012  17.949  0.00  0.00    +0.000 F 
ATOM     27  C   UNL     1      47.547   5.297  15.877  0.00  0.00    +0.000 A 
ENDBRANCH  19  21
ENDBRANCH   1  15
TORSDOF 4
ENDMDL
MODEL 3
REMARK VINA RESULT:    -7.904      2.916      3.678
REMARK INTER + INTRA:         -10.539
REMARK INTER:                  -9.936
REMARK INTRA:                  -0.603
REMARK UNBOUND:                -0.788
REMARK  Name = 
REMARK  4 active torsions:
REMARK  status: ('A' for Active; 'I' for Inactive)
REMARK    1  A    between atoms: C_2  and  C_4
REMARK    2  A    between atoms: N_8  and  C_9
REMARK    3  A    between atoms: C_9  and  C_10
REMARK    4  A    between atoms: C_14  and  C_15
REMARK                            x       y       z     vdW  Elec       q    Type
REMARK                         _______ _______ _______ _____ _____    ______ ____
ROOT
ATOM      1  C   UNL     1      43.587   3.512  11.036  0.00  0.00    +0.000 C 
ENDROOT
BRANCH   1   6
ATOM      2  C   UNL     1      46.745   2.496   7.116  0.00  0.00    +0.000 A 
ATOM      3  C   UNL     1      46.475   3.720   7.717  0.00  0.00    +0.000 A 
ATOM      4  C   UNL     1      45.712   3.750   8.887  0.00  0.00    +0.000 A 
ATOM      5  C   UNL     1      45.222   2.564   9.425  0.00  0.00    +0.000 A 
ATOM      6  N   UNL     1      44.518   2.491  10.605  0.00  0.00    +0.000 N 
ATOM      7  N   UNL     1      45.469   1.374   8.843  0.00  0.00    +0.000 NA
ATOM      8  C   UNL     1      46.212   1.360   7.705  0.00  0.00    +0.000 A 
ATOM      9  H   UNL     1      44.214   1.534  10.751  0.00  0.00    +0.000 HD
BRANCH   2  11
ATOM     10  N   UNL     1      47.395   3.311   4.920  0.00  0.00    +0.000 N 
ATOM     11  C   UNL     1      47.551   2.358   5.887  0.00  0.00    +0.000 C 
ATOM     12  O   UNL     1      48.356   1.446   5.751  0.00  0.00    +0.000 OA
ATOM     13  H   UNL     1      48.027   3.258   4.131  0.00  0.00    +0.000 HD
ATOM     14  H   UNL     1      46.943   4.197   5.094  0.00  0.00    +0.000 HD
ENDBRANCH   2  11
ENDBRANCH   1   6
BRANCH   1  15
ATOM     15  C   UNL     1      44.216   4.764  11.614  0.00  0.00    +0.000 A 
ATOM     16  C   UNL     1      43.833   6.067  11.278  0.00  0.00    +0.000 A 
ATOM     17  C   UNL     1      44.449   7.160  11.887  0.00  0.00    +0.000 A 
ATOM     18  C   UNL     1      45.451   6.969  12.842  0.00  0.00    +0.000 A 
ATOM     19  C   UNL     1      45.861   5.680  13.216  0.00  0.00    +0.000 A 
ATOM     20  C   UNL     1      45.238   4.594  12.572  0.00  0.00    +0.000 A 
BRANCH  19  21
ATOM     21  C   UNL     1      46.870   5.464  14.274  0.00  0.00    +0.000 A 
ATOM     22  C   UNL     1      47.930   6.355  14.475  0.00  0.00    +0.000 A 
ATOM     23  N   UNL     1      48.878   6.247  15.443  0.00  0.00    +0.000 NA
ATOM     24  C   UNL     1      48.761   5.190  16.278  0.00  0.00    +0.000 A 
ATOM     25  C   UNL     1      47.751   4.251  16.173  0.00  0.00    +0.000 A 
ATOM     26  F   UNL     1      47.682   3.229  17.034  0.00  0.00    +0.000 F 
ATOM     27  C   UNL     1      46.804   4.382  15.165  0.00  0.00    +0.000 A 
ENDBRANCH  19  21
ENDBRANCH   1  15
TORSDOF 4
ENDMDL
MODEL 4
REMARK VINA RESULT:    -7.678      1.763      2.450
REMARK INTER + INTRA:         -10.261
REMARK INTER:                 -10.138
REMARK INTRA:                  -0.123
REMARK UNBOUND:                -0.788
REMARK  Name = 
REMARK  4 active torsions:
REMARK  status: ('A' for Active; 'I' for Inactive)
REMARK    1  A    between atoms: C_2  and  C_4
REMARK    2  A    between atoms: N_8  and  C_9
REMARK    3  A    between atoms: C_9  and  C_10
REMARK    4  A    between atoms: C_14  and  C_15
REMARK                            x       y       z     vdW  Elec       q    Type
REMARK                         _______ _______ _______ _____ _____    ______ ____
ROOT
ATOM      1  C   UNL     1      43.411   3.404  11.029  0.00  0.00    +0.000 C 
ENDROOT
BRANCH   1   6
ATOM      2  C   UNL     1      46.673   2.518   7.163  0.00  0.00    +0.000 A 
ATOM      3  C   UNL     1      46.163   3.733   7.606  0.00  0.00    +0.000 A 
ATOM      4  C   UNL     1      45.421   3.769   8.789  0.00  0.00    +0.000 A 
ATOM      5  C   UNL     1      45.191   2.594   9.498  0.00  0.00    +0.000 A 
ATOM      6  N   UNL     1      44.528   2.543  10.702  0.00  0.00    +0.000 N 
ATOM      7  N   UNL     1      45.672   1.410   9.070  0.00  0.00    +0.000 NA
ATOM      8  C   UNL     1      46.391   1.390   7.917  0.00  0.00    +0.000 A 
ATOM      9  H   UNL     1      44.429   1.573  10.986  0.00  0.00    +0.000 HD
BRANCH   2  11
ATOM     10  N   UNL     1      47.315   3.326   4.962  0.00  0.00    +0.000 N 
ATOM     11  C   UNL     1      47.479   2.379   5.934  0.00  0.00    +0.000 C 
ATOM     12  O   UNL     1      48.290   1.471   5.802  0.00  0.00    +0.000 OA
ATOM     13  H   UNL     1      47.947   3.272   4.172  0.00  0.00    +0.000 HD
ATOM     14  H   UNL     1      46.858   4.209   5.131  0.00  0.00    +0.000 HD
ENDBRANCH   2  11
ENDBRANCH   1   6
BRANCH   1  15
ATOM     15  C   UNL     1      43.757   4.861  11.256  0.00  0.00    +0.000 A 
ATOM     16  C   UNL     1      42.850   5.918  11.121  0.00  0.00    +0.000 A 
ATOM     17  C   UNL     1      43.252   7.228  11.382  0.00  0.00    +0.000 A 
ATOM     18  C   UNL     1      44.562   7.500  11.785  0.00  0.00    +0.000 A 
ATOM     19  C   UNL     1      45.502   6.471  11.943  0.00  0.00    +0.000 A 
ATOM     20  C   UNL     1      45.077   5.161  11.654  0.00  0.00    +0.000 A 
BRANCH  19  21
ATOM     21  C   UNL     1      46.869   6.739  12.436  0.00  0.00    +0.000 A 
ATOM     22  C   UNL     1      47.338   6.198  13.639  0.00  0.00    +0.000 A 
ATOM     23  N   UNL     1      48.588   6.368  14.146  0.00  0.00    +0.000 NA
ATOM     24  C   UNL     1      49.436   7.115  13.405  0.00  0.00    +0.000 A 
ATOM     25  C   UNL     1      49.080   7.694  12.201  0.00  0.00    +0.000 A 
ATOM     26  F   UNL     1      49.965   8.419  11.507  0.00  0.00    +0.000 F 
ATOM     27  C   UNL     1      47.790   7.513  11.715  0.00  0.00    +0.000 A 
ENDBRANCH  19  21
ENDBRANCH   1  15
TORSDOF 4
ENDMDL
MODEL 5
REMARK VINA RESULT:    -7.641      3.993      7.233
REMARK INTER + INTRA:         -10.215
REMARK INTER:                 -10.016
REMARK INTRA:                  -0.200
REMARK UNBOUND:                -0.788
REMARK  Name = 
REMARK  4 active torsions:
REMARK  status: ('A' for Active; 'I' for Inactive)
REMARK    1  A    between atoms: C_2  and  C_4
REMARK    2  A    between atoms: N_8  and  C_9
REMARK    3  A    between atoms: C_9  and  C_10
REMARK    4  A    between atoms: C_14  and  C_15
REMARK                            x       y       z     vdW  Elec       q    Type
REMARK                         _______ _______ _______ _____ _____    ______ ____
ROOT
ATOM      1  C   UNL     1      46.080   7.397  11.752  0.00  0.00    +0.000 C 
ENDROOT
BRANCH   1   6
ATOM      2  C   UNL     1      47.451   4.393  15.685  0.00  0.00    +0.000 A 
ATOM      3  C   UNL     1      46.432   4.198  14.759  0.00  0.00    +0.000 A 
ATOM      4  C   UNL     1      46.339   5.056  13.659  0.00  0.00    +0.000 A 
ATOM      5  C   UNL     1      47.251   6.095  13.513  0.00  0.00    +0.000 A 
ATOM      6  N   UNL     1      47.275   6.947  12.433  0.00  0.00    +0.000 N 
ATOM      7  N   UNL     1      48.235   6.299  14.411  0.00  0.00    +0.000 NA
ATOM      8  C   UNL     1      48.313   5.458  15.476  0.00  0.00    +0.000 A 
ATOM      9  H   UNL     1      47.984   7.658  12.586  0.00  0.00    +0.000 HD
BRANCH   2  11
ATOM     10  N   UNL     1      48.912   3.404  17.357  0.00  0.00    +0.000 N 
ATOM     11  C   UNL     1      47.642   3.534  16.871  0.00  0.00    +0.000 C 
ATOM     12  O   UNL     1      46.695   2.987  17.421  0.00  0.00    +0.000 OA
ATOM     13  H   UNL     1      49.009   2.896  18.227  0.00  0.00    +0.000 HD
ATOM     14  H   UNL     1      49.664   4.025  17.096  0.00  0.00    +0.000 HD
ENDBRANCH   2  11
ENDBRANCH   1   6
BRANCH   1  15
ATOM     15  C   UNL     1      45.199   6.300  11.190  0.00  0.00    +0.000 A 
ATOM     16  C   UNL     1      43.839   6.150  11.486  0.00  0.00    +0.000 A 
ATOM     17  C   UNL     1      43.100   5.126  10.894  0.00  0.00    +0.000 A 
ATOM     18  C   UNL     1      43.704   4.241   9.997  0.00  0.00    +0.000 A 
ATOM     19  C   UNL     1      45.062   4.360   9.665  0.00  0.00    +0.000 A 
ATOM     20  C   UNL     1      45.791   5.389  10.290  0.00  0.00    +0.000 A 
BRANCH  19  21
ATOM     21  C   UNL     1      45.695   3.475   8.665  0.00  0.00    +0.000 A 
ATOM     22  C   UNL     1      46.368   3.985   7.549  0.00  0.00    +0.000 A 
ATOM     23  N   UNL     1      47.003   3.244   6.603  0.00  0.00    +0.000 NA
ATOM     24  C   UNL     1      46.981   1.905   6.781  0.00  0.00    +0.000 A 
ATOM     25  C   UNL     1      46.350   1.293   7.848  0.00  0.00    +0.000 A 
ATOM     26  F   UNL     1      46.367  -0.039   7.976  0.00  0.00    +0.000 F 
ATOM     27  C   UNL     1      45.697   2.078   8.792  0.00  0.00    +0.000 A 
ENDBRANCH  19  21
ENDBRANCH   1  15
TORSDOF 4
ENDMDL
MODEL 6
REMARK VINA RESULT:    -7.556      3.325      6.989
REMARK INTER + INTRA:         -10.110
REMARK INTER:                  -9.722
REMARK INTRA:                  -0.388
REMARK UNBOUND:                -0.788
REMARK  Name = 
REMARK  4 active torsions:
REMARK  status: ('A' for Active; 'I' for Inactive)
REMARK    1  A    between atoms: C_2  and  C_4
REMARK    2  A    between atoms: N_8  and  C_9
REMARK    3  A    between atoms: C_9  and  C_10
REMARK    4  A    between atoms: C_14  and  C_15
REMARK                            x       y       z     vdW  Elec       q    Type
REMARK                         _______ _______ _______ _____ _____    ______ ____
ROOT
ATOM      1  C   UNL     1      43.749   6.364  11.162  0.00  0.00    +0.000 C 
ENDROOT
BRANCH   1   6
ATOM      2  C   UNL     1      48.230   6.932  13.605  0.00  0.00    +0.000 A 
ATOM      3  C   UNL     1      47.492   5.770  13.406  0.00  0.00    +0.000 A 
ATOM      4  C   UNL     1      46.379   5.807  12.561  0.00  0.00    +0.000 A 
ATOM      5  C   UNL     1      46.018   7.000  11.944  0.00  0.00    +0.000 A 
ATOM      6  N   UNL     1      44.980   7.116  11.049  0.00  0.00    +0.000 N 
ATOM      7  N   UNL     1      46.721   8.133  12.139  0.00  0.00    +0.000 NA
ATOM      8  C   UNL     1      47.799   8.083  12.965  0.00  0.00    +0.000 A 
ATOM      9  H   UNL     1      44.872   8.092  10.789  0.00  0.00    +0.000 HD
BRANCH   2  11
ATOM     10  N   UNL     1      50.489   7.726  14.020  0.00  0.00    +0.000 N 
ATOM     11  C   UNL     1      49.427   6.992  14.467  0.00  0.00    +0.000 C 
ATOM     12  O   UNL     1      49.456   6.436  15.558  0.00  0.00    +0.000 OA
ATOM     13  H   UNL     1      51.260   7.839  14.667  0.00  0.00    +0.000 HD
ATOM     14  H   UNL     1      50.415   8.392  13.266  0.00  0.00    +0.000 HD
ENDBRANCH   2  11
ENDBRANCH   1   6
BRANCH   1  15
ATOM     15  C   UNL     1      43.875   4.871  10.937  0.00  0.00    +0.000 A 
ATOM     16  C   UNL     1      43.205   3.899  11.689  0.00  0.00    +0.000 A 
ATOM     17  C   UNL     1      43.360   2.546  11.388  0.00  0.00    +0.000 A 
ATOM     18  C   UNL     1      44.180   2.144  10.330  0.00  0.00    +0.000 A 
ATOM     19  C   UNL     1      44.864   3.083   9.544  0.00  0.00    +0.000 A 
ATOM     20  C   UNL     1      44.707   4.441   9.881  0.00  0.00    +0.000 A 
BRANCH  19  21
ATOM     21  C   UNL     1      45.678   2.675   8.381  0.00  0.00    +0.000 A 
ATOM     22  C   UNL     1      46.222   1.389   8.276  0.00  0.00    +0.000 A 
ATOM     23  N   UNL     1      46.952   0.924   7.228  0.00  0.00    +0.000 NA
ATOM     24  C   UNL     1      47.146   1.788   6.207  0.00  0.00    +0.000 A 
ATOM     25  C   UNL     1      46.653   3.080   6.203  0.00  0.00    +0.000 A 
ATOM     26  F   UNL     1      46.872   3.888   5.160  0.00  0.00    +0.000 F 
ATOM     27  C   UNL     1      45.921   3.530   7.296  0.00  0.00    +0.000 A 
ENDBRANCH  19  21
ENDBRANCH   1  15
TORSDOF 4
ENDMDL
MODEL 7
REMARK VINA RESULT:    -7.529      3.586      7.055
REMARK INTER + INTRA:         -10.077
REMARK INTER:                  -9.382
REMARK INTRA:                  -0.696
REMARK UNBOUND:                -0.788
REMARK  Name = 
REMARK  4 active torsions:
REMARK  status: ('A' for Active; 'I' for Inactive)
REMARK    1  A    between atoms: C_2  and  C_4
REMARK    2  A    between atoms: N_8  and  C_9
REMARK    3  A    between atoms: C_9  and  C_10
REMARK    4  A    between atoms: C_14  and  C_15
REMARK                            x       y       z     vdW  Elec       q    Type
REMARK                         _______ _______ _______ _____ _____    ______ ____
ROOT
ATOM      1  C   UNL     1      44.499   6.578  12.124  0.00  0.00    +0.000 C 
ENDROOT
BRANCH   1   6
ATOM      2  C   UNL     1      49.458   7.778  12.704  0.00  0.00    +0.000 A 
ATOM      3  C   UNL     1      48.543   8.289  11.790  0.00  0.00    +0.000 A 
ATOM      4  C   UNL     1      47.193   7.950  11.916  0.00  0.00    +0.000 A 
ATOM      5  C   UNL     1      46.786   7.100  12.939  0.00  0.00    +0.000 A 
ATOM      6  N   UNL     1      45.474   6.763  13.178  0.00  0.00    +0.000 N 
ATOM      7  N   UNL     1      47.667   6.591  13.822  0.00  0.00    +0.000 NA
ATOM      8  C   UNL     1      48.976   6.928  13.687  0.00  0.00    +0.000 A 
ATOM      9  H   UNL     1      45.437   6.082  13.930  0.00  0.00    +0.000 HD
BRANCH   2  11
ATOM     10  N   UNL     1      51.596   8.007  13.838  0.00  0.00    +0.000 N 
ATOM     11  C   UNL     1      50.901   8.087  12.663  0.00  0.00    +0.000 C 
ATOM     12  O   UNL     1      51.464   8.370  11.613  0.00  0.00    +0.000 OA
ATOM     13  H   UNL     1      52.600   8.123  13.773  0.00  0.00    +0.000 HD
ATOM     14  H   UNL     1      51.234   7.541  14.656  0.00  0.00    +0.000 HD
ENDBRANCH   2  11
ENDBRANCH   1   6
BRANCH   1  15
ATOM     15  C   UNL     1      44.294   5.148  11.670  0.00  0.00    +0.000 A 
ATOM     16  C   UNL     1      43.432   4.238  12.291  0.00  0.00    +0.000 A 
ATOM     17  C   UNL     1      43.284   2.948  11.781  0.00  0.00    +0.000 A 
ATOM     18  C   UNL     1      43.991   2.550  10.643  0.00  0.00    +0.000 A 
ATOM     19  C   UNL     1      44.859   3.432   9.982  0.00  0.00    +0.000 A 
ATOM     20  C   UNL     1      45.005   4.721  10.528  0.00  0.00    +0.000 A 
BRANCH  19  21
ATOM     21  C   UNL     1      45.558   3.045   8.739  0.00  0.00    +0.000 A 
ATOM     22  C   UNL     1      45.909   3.989   7.767  0.00  0.00    +0.000 A 
ATOM     23  N   UNL     1      46.579   3.723   6.614  0.00  0.00    +0.000 NA
ATOM     24  C   UNL     1      46.936   2.435   6.417  0.00  0.00    +0.000 A 
ATOM     25  C   UNL     1      46.644   1.422   7.311  0.00  0.00    +0.000 A 
ATOM     26  F   UNL     1      47.030   0.165   7.064  0.00  0.00    +0.000 F 
ATOM     27  C   UNL     1      45.947   1.723   8.475  0.00  0.00    +0.000 A 
ENDBRANCH  19  21
ENDBRANCH   1  15
TORSDOF 4
ENDMDL
MODEL 8
REMARK VINA RESULT:    -7.522      5.118      7.936
REMARK INTER + INTRA:         -10.069
REMARK INTER:                  -9.617
REMARK INTRA:                  -0.452
REMARK UNBOUND:                -0.788
REMARK  Name = 
REMARK  4 active torsions:
REMARK  status: ('A' for Active; 'I' for Inactive)
REMARK    1  A    between atoms: C_2  and  C_4
REMARK    2  A    between atoms: N_8  and  C_9
REMARK    3  A    between atoms: C_9  and  C_10
REMARK    4  A    between atoms: C_14  and  C_15
REMARK                            x       y       z     vdW  Elec       q    Type
REMARK                         _______ _______ _______ _____ _____    ______ ____
ROOT
ATOM      1  C   UNL     1      46.026   5.180  13.956  0.00  0.00    +0.000 C 
ENDROOT
BRANCH   1   6
ATOM      2  C   UNL     1      49.616   3.690  17.312  0.00  0.00    +0.000 A 
ATOM      3  C   UNL     1      49.031   4.943  17.168  0.00  0.00    +0.000 A 
ATOM      4  C   UNL     1      47.944   5.090  16.301  0.00  0.00    +0.000 A 
ATOM      5  C   UNL     1      47.473   3.993  15.588  0.00  0.00    +0.000 A 
ATOM      6  N   UNL     1      46.372   4.030  14.764  0.00  0.00    +0.000 N 
ATOM      7  N   UNL     1      48.041   2.778  15.713  0.00  0.00    +0.000 NA
ATOM      8  C   UNL     1      49.098   2.649  16.559  0.00  0.00    +0.000 A 
ATOM      9  H   UNL     1      46.269   3.129  14.307  0.00  0.00    +0.000 HD
BRANCH   2  11
ATOM     10  N   UNL     1      51.438   2.255  18.042  0.00  0.00    +0.000 N 
ATOM     11  C   UNL     1      50.758   3.429  18.211  0.00  0.00    +0.000 C 
ATOM     12  O   UNL     1      51.107   4.246  19.053  0.00  0.00    +0.000 OA
ATOM     13  H   UNL     1      52.277   2.140  18.597  0.00  0.00    +0.000 HD
ATOM     14  H   UNL     1      51.346   1.685  17.214  0.00  0.00    +0.000 HD
ENDBRANCH   2  11
ENDBRANCH   1   6
BRANCH   1  15
ATOM     15  C   UNL     1      45.050   4.914  12.828  0.00  0.00    +0.000 A 
ATOM     16  C   UNL     1      43.695   5.259  12.859  0.00  0.00    +0.000 A 
ATOM     17  C   UNL     1      42.878   5.002  11.757  0.00  0.00    +0.000 A 
ATOM     18  C   UNL     1      43.403   4.401  10.610  0.00  0.00    +0.000 A 
ATOM     19  C   UNL     1      44.758   4.046  10.532  0.00  0.00    +0.000 A 
ATOM     20  C   UNL     1      45.556   4.298  11.664  0.00  0.00    +0.000 A 
BRANCH  19  21
ATOM     21  C   UNL     1      45.340   3.475   9.299  0.00  0.00    +0.000 A 
ATOM     22  C   UNL     1      45.727   4.282   8.223  0.00  0.00    +0.000 A 
ATOM     23  N   UNL     1      46.297   3.841   7.071  0.00  0.00    +0.000 NA
ATOM     24  C   UNL     1      46.512   2.510   6.984  0.00  0.00    +0.000 A 
ATOM     25  C   UNL     1      46.173   1.621   7.987  0.00  0.00    +0.000 A 
ATOM     26  F   UNL     1      46.416   0.313   7.846  0.00  0.00    +0.000 F 
ATOM     27  C   UNL     1      45.578   2.101   9.147  0.00  0.00    +0.000 A 
ENDBRANCH  19  21
ENDBRANCH   1  15
TORSDOF 4
ENDMDL
MODEL 9
REMARK VINA RESULT:    -7.041      5.682      8.148
REMARK INTER + INTRA:          -9.475
REMARK INTER:                  -8.840
REMARK INTRA:                  -0.635
REMARK UNBOUND:                -0.788
REMARK  Name = 
REMARK  4 active torsions:
REMARK  status: ('A' for Active; 'I' for Inactive)
REMARK    1  A    between atoms: C_2  and  C_4
REMARK    2  A    between atoms: N_8  and  C_9
REMARK    3  A    between atoms: C_9  and  C_10
REMARK    4  A    between atoms: C_14  and  C_15
REMARK                            x       y       z     vdW  Elec       q    Type
REMARK                         _______ _______ _______ _____ _____    ______ ____
ROOT
ATOM      1  C   UNL     1      48.760   6.692  15.916  0.00  0.00    +0.000 C 
ENDROOT
BRANCH   1   6
ATOM      2  C   UNL     1      51.272   2.507  17.510  0.00  0.00    +0.000 A 
ATOM      3  C   UNL     1      51.649   3.840  17.625  0.00  0.00    +0.000 A 
ATOM      4  C   UNL     1      50.734   4.838  17.277  0.00  0.00    +0.000 A 
ATOM      5  C   UNL     1      49.472   4.487  16.810  0.00  0.00    +0.000 A 
ATOM      6  N   UNL     1      48.487   5.399  16.505  0.00  0.00    +0.000 N 
ATOM      7  N   UNL     1      49.103   3.198  16.684  0.00  0.00    +0.000 NA
ATOM      8  C   UNL     1      50.002   2.238  17.025  0.00  0.00    +0.000 A 
ATOM      9  H   UNL     1      47.686   4.906  16.124  0.00  0.00    +0.000 HD
BRANCH   2  11
ATOM     10  N   UNL     1      51.573   0.183  18.158  0.00  0.00    +0.000 N 
ATOM     11  C   UNL     1      52.161   1.382  17.864  0.00  0.00    +0.000 C 
ATOM     12  O   UNL     1      53.379   1.505  17.862  0.00  0.00    +0.000 OA
ATOM     13  H   UNL     1      52.199  -0.600  18.299  0.00  0.00    +0.000 HD
ATOM     14  H   UNL     1      50.613  -0.026  17.929  0.00  0.00    +0.000 HD
ENDBRANCH   2  11
ENDBRANCH   1   6
BRANCH   1  15
ATOM     15  C   UNL     1      48.358   6.845  14.464  0.00  0.00    +0.000 A 
ATOM     16  C   UNL     1      48.987   7.705  13.556  0.00  0.00    +0.000 A 
ATOM     17  C   UNL     1      48.566   7.755  12.228  0.00  0.00    +0.000 A 
ATOM     18  C   UNL     1      47.516   6.946  11.785  0.00  0.00    +0.000 A 
ATOM     19  C   UNL     1      46.862   6.063  12.658  0.00  0.00    +0.000 A 
ATOM     20  C   UNL     1      47.292   6.046  13.998  0.00  0.00    +0.000 A 
BRANCH  19  21
ATOM     21  C   UNL     1      45.798   5.153  12.186  0.00  0.00    +0.000 A 
ATOM     22  C   UNL     1      45.197   4.217  13.036  0.00  0.00    +0.000 A 
ATOM     23  N   UNL     1      44.192   3.369  12.691  0.00  0.00    +0.000 NA
ATOM     24  C   UNL     1      43.744   3.461  11.420  0.00  0.00    +0.000 A 
ATOM     25  C   UNL     1      44.262   4.351  10.497  0.00  0.00    +0.000 A 
ATOM     26  F   UNL     1      43.772   4.402   9.253  0.00  0.00    +0.000 F 
ATOM     27  C   UNL     1      45.298   5.197  10.876  0.00  0.00    +0.000 A 
ENDBRANCH  19  21
ENDBRANCH   1  15
TORSDOF 4
ENDMDL
