MODEL 1
REMARK VINA RESULT:    -9.290      0.000      0.000
REMARK INTER + INTRA:         -11.700
REMARK INTER:                 -12.006
REMARK INTRA:                   0.306
REMARK UNBOUND:                 0.306
REMARK  Name = 
REMARK  5 active torsions:
REMARK  status: ('A' for Active; 'I' for Inactive)
REMARK    1  A    between atoms: C_2  and  C_4
REMARK    2  A    between atoms: C_7  and  O_8
REMARK    3  A    between atoms: O_8  and  C_9
REMARK    4  A    between atoms: C_9  and  C_10
REMARK    5  A    between atoms: C_14  and  C_15
REMARK                            x       y       z     vdW  Elec       q    Type
REMARK                         _______ _______ _______ _____ _____    ______ ____
ROOT
ATOM      1  C   UNL     1      43.851   4.929  11.200  0.00  0.00    +0.000 C 
ATOM      2  C   UNL     1      43.143   3.788  11.915  0.00  0.00    +0.000 C 
ATOM      3  C   UNL     1      42.608   5.178  12.027  0.00  0.00    +0.000 C 
ENDROOT
BRANCH   1   4
ATOM      4  C   UNL     1      45.211   5.385  11.708  0.00  0.00    +0.000 A 
ATOM      5  C   UNL     1      45.947   6.369  11.034  0.00  0.00    +0.000 A 
ATOM      6  C   UNL     1      47.148   6.854  11.551  0.00  0.00    +0.000 A 
ATOM      7  C   UNL     1      47.635   6.367  12.765  0.00  0.00    +0.000 A 
ATOM      8  C   UNL     1      46.936   5.388  13.489  0.00  0.00    +0.000 A 
ATOM      9  C   UNL     1      45.740   4.904  12.925  0.00  0.00    +0.000 A 
BRANCH   8  10
ATOM     10  C   UNL     1      47.394   4.938  14.815  0.00  0.00    +0.000 A 
ATOM     11  C   UNL     1      47.080   3.692  15.338  0.00  0.00    +0.000 A 
ATOM     12  N   UNL     1      47.499   3.223  16.535  0.00  0.00    +0.000 NA
ATOM     13  C   UNL     1      48.285   4.050  17.235  0.00  0.00    +0.000 A 
ATOM     14  N   UNL     1      48.665   5.277  16.858  0.00  0.00    +0.000 NA
ATOM     15  C   UNL     1      48.208   5.687  15.651  0.00  0.00    +0.000 A 
ENDBRANCH   8  10
ENDBRANCH   1   4
BRANCH   1  16
ATOM     16  O   UNL     1      43.700   4.794   9.767  0.00  0.00    +0.000 OA
BRANCH  16  20
ATOM     17  C   UNL     1      46.360   2.326   7.825  0.00  0.00    +0.000 A 
ATOM     18  C   UNL     1      45.473   1.800   8.768  0.00  0.00    +0.000 A 
ATOM     19  C   UNL     1      44.592   2.660   9.416  0.00  0.00    +0.000 A 
ATOM     20  C   UNL     1      44.625   4.011   9.099  0.00  0.00    +0.000 A 
ATOM     21  N   UNL     1      45.467   4.552   8.194  0.00  0.00    +0.000 NA
ATOM     22  C   UNL     1      46.332   3.696   7.591  0.00  0.00    +0.000 A 
BRANCH  17  24
ATOM     23  N   UNL     1      48.435   2.122   6.571  0.00  0.00    +0.000 N 
ATOM     24  C   UNL     1      47.334   1.493   7.087  0.00  0.00    +0.000 C 
ATOM     25  O   UNL     1      47.184   0.286   6.972  0.00  0.00    +0.000 OA
ATOM     26  H   UNL     1      49.138   1.520   6.160  0.00  0.00    +0.000 HD
ATOM     27  H   UNL     1      48.722   3.047   6.853  0.00  0.00    +0.000 HD
ENDBRANCH  17  24
ENDBRANCH  16  20
ENDBRANCH   1  16
TORSDOF 5
ENDMDL
MODEL 2
REMARK VINA RESULT:    -9.136      2.330      3.294
REMARK INTER + INTRA:         -11.501
REMARK INTER:                 -10.650
REMARK INTRA:                  -0.851
REMARK UNBOUND:                 0.306
REMARK  Name = 
REMARK  5 active torsions:
REMARK  status: ('A' for Active; 'I' for Inactive)
REMARK    1  A    between atoms: C_2  and  C_4
REMARK    2  A    between atoms: C_7  and  O_8
REMARK    3  A    between atoms: O_8  and  C_9
REMARK    4  A    between atoms: C_9  and  C_10
REMARK    5  A    between atoms: C_14  and  C_15
REMARK                            x       y       z     vdW  Elec       q    Type
REMARK                         _______ _______ _______ _____ _____    ______ ____
ROOT
ATOM      1  C   UNL     1      43.808   4.843  11.361  0.00  0.00    +0.000 C 
ATOM      2  C   UNL     1      42.495   5.228  12.026  0.00  0.00    +0.000 C 
ATOM      3  C   UNL     1      43.040   6.071  10.921  0.00  0.00    +0.000 C 
ENDROOT
BRANCH   1   4
ATOM      4  C   UNL     1      45.102   4.992  12.147  0.00  0.00    +0.000 A 
ATOM      5  C   UNL     1      45.554   3.980  13.005  0.00  0.00    +0.000 A 
ATOM      6  C   UNL     1      46.786   4.077  13.651  0.00  0.00    +0.000 A 
ATOM      7  C   UNL     1      47.600   5.192  13.443  0.00  0.00    +0.000 A 
ATOM      8  C   UNL     1      47.205   6.232  12.587  0.00  0.00    +0.000 A 
ATOM      9  C   UNL     1      45.945   6.113  11.971  0.00  0.00    +0.000 A 
BRANCH   8  10
ATOM     10  C   UNL     1      48.097   7.365  12.290  0.00  0.00    +0.000 A 
ATOM     11  C   UNL     1      49.473   7.232  12.174  0.00  0.00    +0.000 A 
ATOM     12  N   UNL     1      50.330   8.234  11.876  0.00  0.00    +0.000 NA
ATOM     13  C   UNL     1      49.768   9.432  11.673  0.00  0.00    +0.000 A 
ATOM     14  N   UNL     1      48.459   9.708  11.754  0.00  0.00    +0.000 NA
ATOM     15  C   UNL     1      47.658   8.661  12.060  0.00  0.00    +0.000 A 
ENDBRANCH   8  10
ENDBRANCH   1   4
BRANCH   1  16
ATOM     16  O   UNL     1      43.645   3.627  10.594  0.00  0.00    +0.000 OA
BRANCH  16  20
ATOM     17  C   UNL     1      46.372   2.691   7.656  0.00  0.00    +0.000 A 
ATOM     18  C   UNL     1      45.818   1.682   8.448  0.00  0.00    +0.000 A 
ATOM     19  C   UNL     1      44.907   2.030   9.440  0.00  0.00    +0.000 A 
ATOM     20  C   UNL     1      44.578   3.368   9.605  0.00  0.00    +0.000 A 
ATOM     21  N   UNL     1      45.092   4.367   8.858  0.00  0.00    +0.000 NA
ATOM     22  C   UNL     1      45.996   4.006   7.911  0.00  0.00    +0.000 A 
BRANCH  17  24
ATOM     23  N   UNL     1      47.202   3.117   5.410  0.00  0.00    +0.000 N 
ATOM     24  C   UNL     1      47.349   2.422   6.579  0.00  0.00    +0.000 C 
ATOM     25  O   UNL     1      48.274   1.639   6.737  0.00  0.00    +0.000 OA
ATOM     26  H   UNL     1      47.939   2.996   4.726  0.00  0.00    +0.000 HD
ATOM     27  H   UNL     1      46.623   3.940   5.328  0.00  0.00    +0.000 HD
ENDBRANCH  17  24
ENDBRANCH  16  20
ENDBRANCH   1  16
TORSDOF 5
ENDMDL
MODEL 3
REMARK VINA RESULT:    -8.444      1.695      2.388
REMARK INTER + INTRA:         -10.607
REMARK INTER:                 -11.030
REMARK INTRA:                   0.423
REMARK UNBOUND:                 0.306
REMARK  Name = 
REMARK  5 active torsions:
REMARK  status: ('A' for Active; 'I' for Inactive)
REMARK    1  A    between atoms: C_2  and  C_4
REMARK    2  A    between atoms: C_7  and  O_8
REMARK    3  A    between atoms: O_8  and  C_9
REMARK    4  A    between atoms: C_9  and  C_10
REMARK    5  A    between atoms: C_14  and  C_15
REMARK                            x       y       z     vdW  Elec       q    Type
REMARK                         _______ _______ _______ _____ _____    ______ ____
ROOT
ATOM      1  C   UNL     1      44.217   4.549  11.499  0.00  0.00    +0.000 C 
ATOM      2  C   UNL     1      44.774   3.324  12.211  0.00  0.00    +0.000 C 
ATOM      3  C   UNL     1      43.486   3.926  12.670  0.00  0.00    +0.000 C 
ENDROOT
BRANCH   1   4
ATOM      4  C   UNL     1      44.928   5.884  11.665  0.00  0.00    +0.000 A 
ATOM      5  C   UNL     1      44.316   7.086  11.285  0.00  0.00    +0.000 A 
ATOM      6  C   UNL     1      44.929   8.316  11.524  0.00  0.00    +0.000 A 
ATOM      7  C   UNL     1      46.171   8.367  12.161  0.00  0.00    +0.000 A 
ATOM      8  C   UNL     1      46.826   7.196  12.573  0.00  0.00    +0.000 A 
ATOM      9  C   UNL     1      46.190   5.972  12.293  0.00  0.00    +0.000 A 
BRANCH   8  10
ATOM     10  C   UNL     1      48.090   7.246  13.328  0.00  0.00    +0.000 A 
ATOM     11  C   UNL     1      49.188   7.985  12.912  0.00  0.00    +0.000 A 
ATOM     12  N   UNL     1      50.358   8.084  13.583  0.00  0.00    +0.000 NA
ATOM     13  C   UNL     1      50.419   7.412  14.739  0.00  0.00    +0.000 A 
ATOM     14  N   UNL     1      49.442   6.658  15.260  0.00  0.00    +0.000 NA
ATOM     15  C   UNL     1      48.299   6.598  14.536  0.00  0.00    +0.000 A 
ENDBRANCH   8  10
ENDBRANCH   1   4
BRANCH   1  16
ATOM     16  O   UNL     1      43.784   4.199  10.163  0.00  0.00    +0.000 OA
BRANCH  16  20
ATOM     17  C   UNL     1      46.584   2.706   7.542  0.00  0.00    +0.000 A 
ATOM     18  C   UNL     1      45.842   1.838   8.347  0.00  0.00    +0.000 A 
ATOM     19  C   UNL     1      44.910   2.372   9.231  0.00  0.00    +0.000 A 
ATOM     20  C   UNL     1      44.749   3.750   9.279  0.00  0.00    +0.000 A 
ATOM     21  N   UNL     1      45.447   4.616   8.515  0.00  0.00    +0.000 NA
ATOM     22  C   UNL     1      46.367   4.072   7.676  0.00  0.00    +0.000 A 
BRANCH  17  24
ATOM     23  N   UNL     1      47.822   3.011   5.470  0.00  0.00    +0.000 N 
ATOM     24  C   UNL     1      47.597   2.234   6.574  0.00  0.00    +0.000 C 
ATOM     25  O   UNL     1      48.238   1.211   6.768  0.00  0.00    +0.000 OA
ATOM     26  H   UNL     1      48.590   2.726   4.875  0.00  0.00    +0.000 HD
ATOM     27  H   UNL     1      47.509   3.968   5.399  0.00  0.00    +0.000 HD
ENDBRANCH  17  24
ENDBRANCH  16  20
ENDBRANCH   1  16
TORSDOF 5
ENDMDL
MODEL 4
REMARK VINA RESULT:    -7.896      2.686      7.451
REMARK INTER + INTRA:          -9.898
REMARK INTER:                  -9.201
REMARK INTRA:                  -0.697
REMARK UNBOUND:                 0.306
REMARK  Name = 
REMARK  5 active torsions:
REMARK  status: ('A' for Active; 'I' for Inactive)
REMARK    1  A    between atoms: C_2  and  C_4
REMARK    2  A    between atoms: C_7  and  O_8
REMARK    3  A    between atoms: O_8  and  C_9
REMARK    4  A    between atoms: C_9  and  C_10
REMARK    5  A    between atoms: C_14  and  C_15
REMARK                            x       y       z     vdW  Elec       q    Type
REMARK                         _______ _______ _______ _____ _____    ______ ____
ROOT
ATOM      1  C   UNL     1      46.498   7.266  12.481  0.00  0.00    +0.000 C 
ATOM      2  C   UNL     1      46.708   8.671  11.935  0.00  0.00    +0.000 C 
ATOM      3  C   UNL     1      46.006   8.479  13.240  0.00  0.00    +0.000 C 
ENDROOT
BRANCH   1   4
ATOM      4  C   UNL     1      45.507   6.346  11.786  0.00  0.00    +0.000 A 
ATOM      5  C   UNL     1      44.126   6.482  11.982  0.00  0.00    +0.000 A 
ATOM      6  C   UNL     1      43.214   5.701  11.272  0.00  0.00    +0.000 A 
ATOM      7  C   UNL     1      43.669   4.768  10.338  0.00  0.00    +0.000 A 
ATOM      8  C   UNL     1      45.040   4.595  10.093  0.00  0.00    +0.000 A 
ATOM      9  C   UNL     1      45.932   5.382  10.845  0.00  0.00    +0.000 A 
BRANCH   8  10
ATOM     10  C   UNL     1      45.525   3.680   9.044  0.00  0.00    +0.000 A 
ATOM     11  C   UNL     1      46.113   4.125   7.869  0.00  0.00    +0.000 A 
ATOM     12  N   UNL     1      46.597   3.326   6.891  0.00  0.00    +0.000 NA
ATOM     13  C   UNL     1      46.492   2.011   7.115  0.00  0.00    +0.000 A 
ATOM     14  N   UNL     1      45.947   1.441   8.199  0.00  0.00    +0.000 NA
ATOM     15  C   UNL     1      45.478   2.297   9.137  0.00  0.00    +0.000 A 
ENDBRANCH   8  10
ENDBRANCH   1   4
BRANCH   1  16
ATOM     16  O   UNL     1      47.765   6.686  12.874  0.00  0.00    +0.000 OA
BRANCH  16  20
ATOM     17  C   UNL     1      47.864   4.647  16.447  0.00  0.00    +0.000 A 
ATOM     18  C   UNL     1      47.063   4.187  15.399  0.00  0.00    +0.000 A 
ATOM     19  C   UNL     1      47.042   4.903  14.206  0.00  0.00    +0.000 A 
ATOM     20  C   UNL     1      47.821   6.047  14.100  0.00  0.00    +0.000 A 
ATOM     21  N   UNL     1      48.606   6.518  15.092  0.00  0.00    +0.000 NA
ATOM     22  C   UNL     1      48.593   5.815  16.254  0.00  0.00    +0.000 A 
BRANCH  17  24
ATOM     23  N   UNL     1      47.174   2.845  17.929  0.00  0.00    +0.000 N 
ATOM     24  C   UNL     1      47.952   3.957  17.753  0.00  0.00    +0.000 C 
ATOM     25  O   UNL     1      48.716   4.339  18.627  0.00  0.00    +0.000 OA
ATOM     26  H   UNL     1      47.325   2.329  18.787  0.00  0.00    +0.000 HD
ATOM     27  H   UNL     1      46.731   2.357  17.165  0.00  0.00    +0.000 HD
ENDBRANCH  17  24
ENDBRANCH  16  20
ENDBRANCH   1  16
TORSDOF 5
ENDMDL
MODEL 5
REMARK VINA RESULT:    -7.330      3.211      8.008
REMARK INTER + INTRA:          -9.167
REMARK INTER:                  -8.331
REMARK INTRA:                  -0.836
REMARK UNBOUND:                 0.306
REMARK  Name = 
REMARK  5 active torsions:
REMARK  status: ('A' for Active; 'I' for Inactive)
REMARK    1  A    between atoms: C_2  and  C_4
REMARK    2  A    between atoms: C_7  and  O_8
REMARK    3  A    between atoms: O_8  and  C_9
REMARK    4  A    between atoms: C_9  and  C_10
REMARK    5  A    between atoms: C_14  and  C_15
REMARK                            x       y       z     vdW  Elec       q    Type
REMARK                         _______ _______ _______ _____ _____    ______ ____
ROOT
ATOM      1  C   UNL     1      48.739   7.968  12.820  0.00  0.00    +0.000 C 
ATOM      2  C   UNL     1      49.616   8.693  11.809  0.00  0.00    +0.000 C 
ATOM      3  C   UNL     1      49.180   9.397  13.053  0.00  0.00    +0.000 C 
ENDROOT
BRANCH   1   4
ATOM      4  C   UNL     1      47.294   7.663  12.457  0.00  0.00    +0.000 A 
ATOM      5  C   UNL     1      46.253   8.528  12.823  0.00  0.00    +0.000 A 
ATOM      6  C   UNL     1      44.942   8.298  12.409  0.00  0.00    +0.000 A 
ATOM      7  C   UNL     1      44.645   7.195  11.606  0.00  0.00    +0.000 A 
ATOM      8  C   UNL     1      45.647   6.300  11.201  0.00  0.00    +0.000 A 
ATOM      9  C   UNL     1      46.955   6.549  11.658  0.00  0.00    +0.000 A 
BRANCH   8  10
ATOM     10  C   UNL     1      45.358   5.187  10.279  0.00  0.00    +0.000 A 
ATOM     11  C   UNL     1      45.795   5.166   8.962  0.00  0.00    +0.000 A 
ATOM     12  N   UNL     1      45.579   4.159   8.087  0.00  0.00    +0.000 NA
ATOM     13  C   UNL     1      44.897   3.112   8.569  0.00  0.00    +0.000 A 
ATOM     14  N   UNL     1      44.414   2.997   9.813  0.00  0.00    +0.000 NA
ATOM     15  C   UNL     1      44.661   4.043  10.636  0.00  0.00    +0.000 A 
ENDBRANCH   8  10
ENDBRANCH   1   4
BRANCH   1  16
ATOM     16  O   UNL     1      49.488   6.911  13.467  0.00  0.00    +0.000 OA
BRANCH  16  20
ATOM     17  C   UNL     1      48.322   5.919  17.287  0.00  0.00    +0.000 A 
ATOM     18  C   UNL     1      49.153   7.021  17.070  0.00  0.00    +0.000 A 
ATOM     19  C   UNL     1      49.539   7.326  15.769  0.00  0.00    +0.000 A 
ATOM     20  C   UNL     1      49.082   6.525  14.732  0.00  0.00    +0.000 A 
ATOM     21  N   UNL     1      48.278   5.454  14.905  0.00  0.00    +0.000 NA
ATOM     22  C   UNL     1      47.933   5.163  16.187  0.00  0.00    +0.000 A 
BRANCH  17  24
ATOM     23  N   UNL     1      46.515   5.570  18.878  0.00  0.00    +0.000 N 
ATOM     24  C   UNL     1      47.860   5.514  18.633  0.00  0.00    +0.000 C 
ATOM     25  O   UNL     1      48.641   5.110  19.481  0.00  0.00    +0.000 OA
ATOM     26  H   UNL     1      46.210   5.192  19.766  0.00  0.00    +0.000 HD
ATOM     27  H   UNL     1      45.825   5.650  18.145  0.00  0.00    +0.000 HD
ENDBRANCH  17  24
ENDBRANCH  16  20
ENDBRANCH   1  16
TORSDOF 5
ENDMDL
MODEL 6
REMARK VINA RESULT:    -7.233      3.053      4.768
REMARK INTER + INTRA:          -9.041
REMARK INTER:                  -8.340
REMARK INTRA:                  -0.701
REMARK UNBOUND:                 0.306
REMARK  Name = 
REMARK  5 active torsions:
REMARK  status: ('A' for Active; 'I' for Inactive)
REMARK    1  A    between atoms: C_2  and  C_4
REMARK    2  A    between atoms: C_7  and  O_8
REMARK    3  A    between atoms: O_8  and  C_9
REMARK    4  A    between atoms: C_9  and  C_10
REMARK    5  A    between atoms: C_14  and  C_15
REMARK                            x       y       z     vdW  Elec       q    Type
REMARK                         _______ _______ _______ _____ _____    ______ ____
ROOT
ATOM      1  C   UNL     1      47.957   8.126  12.616  0.00  0.00    +0.000 C 
ATOM      2  C   UNL     1      48.742   9.100  11.749  0.00  0.00    +0.000 C 
ATOM      3  C   UNL     1      48.949   7.629  11.587  0.00  0.00    +0.000 C 
ENDROOT
BRANCH   1   4
ATOM      4  C   UNL     1      48.284   8.033  14.099  0.00  0.00    +0.000 A 
ATOM      5  C   UNL     1      48.189   9.153  14.937  0.00  0.00    +0.000 A 
ATOM      6  C   UNL     1      48.396   9.046  16.312  0.00  0.00    +0.000 A 
ATOM      7  C   UNL     1      48.697   7.807  16.881  0.00  0.00    +0.000 A 
ATOM      8  C   UNL     1      48.795   6.650  16.092  0.00  0.00    +0.000 A 
ATOM      9  C   UNL     1      48.604   6.799  14.706  0.00  0.00    +0.000 A 
BRANCH   8  10
ATOM     10  C   UNL     1      49.019   5.324  16.696  0.00  0.00    +0.000 A 
ATOM     11  C   UNL     1      48.083   4.302  16.639  0.00  0.00    +0.000 A 
ATOM     12  N   UNL     1      48.252   3.063  17.152  0.00  0.00    +0.000 NA
ATOM     13  C   UNL     1      49.432   2.840  17.743  0.00  0.00    +0.000 A 
ATOM     14  N   UNL     1      50.425   3.730  17.874  0.00  0.00    +0.000 NA
ATOM     15  C   UNL     1      50.188   4.952  17.342  0.00  0.00    +0.000 A 
ENDBRANCH   8  10
ENDBRANCH   1   4
BRANCH   1  16
ATOM     16  O   UNL     1      46.556   8.150  12.255  0.00  0.00    +0.000 OA
BRANCH  16  20
ATOM     17  C   UNL     1      44.733   4.514  11.625  0.00  0.00    +0.000 A 
ATOM     18  C   UNL     1      45.260   5.231  10.549  0.00  0.00    +0.000 A 
ATOM     19  C   UNL     1      45.861   6.463  10.791  0.00  0.00    +0.000 A 
ATOM     20  C   UNL     1      45.919   6.933  12.095  0.00  0.00    +0.000 A 
ATOM     21  N   UNL     1      45.422   6.265  13.159  0.00  0.00    +0.000 NA
ATOM     22  C   UNL     1      44.820   5.076  12.894  0.00  0.00    +0.000 A 
BRANCH  17  24
ATOM     23  N   UNL     1      43.791   2.499  12.610  0.00  0.00    +0.000 N 
ATOM     24  C   UNL     1      44.075   3.199  11.469  0.00  0.00    +0.000 C 
ATOM     25  O   UNL     1      43.761   2.769  10.369  0.00  0.00    +0.000 OA
ATOM     26  H   UNL     1      43.249   1.652  12.488  0.00  0.00    +0.000 HD
ATOM     27  H   UNL     1      43.799   2.917  13.528  0.00  0.00    +0.000 HD
ENDBRANCH  17  24
ENDBRANCH  16  20
ENDBRANCH   1  16
TORSDOF 5
ENDMDL
MODEL 7
REMARK VINA RESULT:    -6.892      2.744      7.638
REMARK INTER + INTRA:          -8.601
REMARK INTER:                  -8.107
REMARK INTRA:                  -0.494
REMARK UNBOUND:                 0.306
REMARK  Name = 
REMARK  5 active torsions:
REMARK  status: ('A' for Active; 'I' for Inactive)
REMARK    1  A    between atoms: C_2  and  C_4
REMARK    2  A    between atoms: C_7  and  O_8
REMARK    3  A    between atoms: O_8  and  C_9
REMARK    4  A    between atoms: C_9  and  C_10
REMARK    5  A    between atoms: C_14  and  C_15
REMARK                            x       y       z     vdW  Elec       q    Type
REMARK                         _______ _______ _______ _____ _____    ______ ____
ROOT
ATOM      1  C   UNL     1      44.970   5.923  11.378  0.00  0.00    +0.000 C 
ATOM      2  C   UNL     1      43.758   6.839  11.288  0.00  0.00    +0.000 C 
ATOM      3  C   UNL     1      44.143   6.246  12.604  0.00  0.00    +0.000 C 
ENDROOT
BRANCH   1   4
ATOM      4  C   UNL     1      44.895   4.539  10.749  0.00  0.00    +0.000 A 
ATOM      5  C   UNL     1      43.979   3.581  11.204  0.00  0.00    +0.000 A 
ATOM      6  C   UNL     1      43.846   2.348  10.567  0.00  0.00    +0.000 A 
ATOM      7  C   UNL     1      44.627   2.051   9.448  0.00  0.00    +0.000 A 
ATOM      8  C   UNL     1      45.554   2.975   8.942  0.00  0.00    +0.000 A 
ATOM      9  C   UNL     1      45.679   4.199   9.625  0.00  0.00    +0.000 A 
BRANCH   8  10
ATOM     10  C   UNL     1      46.314   2.706   7.709  0.00  0.00    +0.000 A 
ATOM     11  C   UNL     1      47.042   1.542   7.510  0.00  0.00    +0.000 A 
ATOM     12  N   UNL     1      47.732   1.238   6.388  0.00  0.00    +0.000 NA
ATOM     13  C   UNL     1      47.674   2.150   5.410  0.00  0.00    +0.000 A 
ATOM     14  N   UNL     1      47.015   3.315   5.463  0.00  0.00    +0.000 NA
ATOM     15  C   UNL     1      46.349   3.559   6.616  0.00  0.00    +0.000 A 
ENDBRANCH   8  10
ENDBRANCH   1   4
BRANCH   1  16
ATOM     16  O   UNL     1      46.186   6.677  11.158  0.00  0.00    +0.000 OA
BRANCH  16  20
ATOM     17  C   UNL     1      48.361   7.790  14.470  0.00  0.00    +0.000 A 
ATOM     18  C   UNL     1      48.408   6.472  14.010  0.00  0.00    +0.000 A 
ATOM     19  C   UNL     1      47.653   6.122  12.895  0.00  0.00    +0.000 A 
ATOM     20  C   UNL     1      46.884   7.098  12.276  0.00  0.00    +0.000 A 
ATOM     21  N   UNL     1      46.817   8.380  12.693  0.00  0.00    +0.000 NA
ATOM     22  C   UNL     1      47.544   8.692  13.797  0.00  0.00    +0.000 A 
BRANCH  17  24
ATOM     23  N   UNL     1      50.468   7.998  15.668  0.00  0.00    +0.000 N 
ATOM     24  C   UNL     1      49.125   8.258  15.647  0.00  0.00    +0.000 C 
ATOM     25  O   UNL     1      48.589   8.885  16.548  0.00  0.00    +0.000 OA
ATOM     26  H   UNL     1      50.990   8.414  16.430  0.00  0.00    +0.000 HD
ATOM     27  H   UNL     1      50.987   7.716  14.849  0.00  0.00    +0.000 HD
ENDBRANCH  17  24
ENDBRANCH  16  20
ENDBRANCH   1  16
TORSDOF 5
ENDMDL
MODEL 8
REMARK VINA RESULT:    -6.826      4.205      7.087
REMARK INTER + INTRA:          -8.515
REMARK INTER:                  -7.908
REMARK INTRA:                  -0.607
REMARK UNBOUND:                 0.306
REMARK  Name = 
REMARK  5 active torsions:
REMARK  status: ('A' for Active; 'I' for Inactive)
REMARK    1  A    between atoms: C_2  and  C_4
REMARK    2  A    between atoms: C_7  and  O_8
REMARK    3  A    between atoms: O_8  and  C_9
REMARK    4  A    between atoms: C_9  and  C_10
REMARK    5  A    between atoms: C_14  and  C_15
REMARK                            x       y       z     vdW  Elec       q    Type
REMARK                         _______ _______ _______ _____ _____    ______ ____
ROOT
ATOM      1  C   UNL     1      48.083   3.798  16.680  0.00  0.00    +0.000 C 
ATOM      2  C   UNL     1      47.260   2.889  17.582  0.00  0.00    +0.000 C 
ATOM      3  C   UNL     1      46.920   4.340  17.483  0.00  0.00    +0.000 C 
ENDROOT
BRANCH   1   4
ATOM      4  C   UNL     1      49.511   4.136  17.080  0.00  0.00    +0.000 A 
ATOM      5  C   UNL     1      49.908   5.459  17.312  0.00  0.00    +0.000 A 
ATOM      6  C   UNL     1      51.191   5.759  17.770  0.00  0.00    +0.000 A 
ATOM      7  C   UNL     1      52.105   4.732  18.015  0.00  0.00    +0.000 A 
ATOM      8  C   UNL     1      51.760   3.387  17.809  0.00  0.00    +0.000 A 
ATOM      9  C   UNL     1      50.465   3.123  17.323  0.00  0.00    +0.000 A 
BRANCH   8  10
ATOM     10  C   UNL     1      52.686   2.294  18.154  0.00  0.00    +0.000 A 
ATOM     11  C   UNL     1      52.440   0.968  17.829  0.00  0.00    +0.000 A 
ATOM     12  N   UNL     1      53.270  -0.065  18.099  0.00  0.00    +0.000 NA
ATOM     13  C   UNL     1      54.412   0.259  18.718  0.00  0.00    +0.000 A 
ATOM     14  N   UNL     1      54.779   1.491  19.092  0.00  0.00    +0.000 NA
ATOM     15  C   UNL     1      53.901   2.479  18.796  0.00  0.00    +0.000 A 
ENDBRANCH   8  10
ENDBRANCH   1   4
BRANCH   1  16
ATOM     16  O   UNL     1      47.853   3.466  15.290  0.00  0.00    +0.000 OA
BRANCH  16  20
ATOM     17  C   UNL     1      45.798   6.210  13.012  0.00  0.00    +0.000 A 
ATOM     18  C   UNL     1      47.078   6.509  13.487  0.00  0.00    +0.000 A 
ATOM     19  C   UNL     1      47.744   5.566  14.263  0.00  0.00    +0.000 A 
ATOM     20  C   UNL     1      47.114   4.359  14.535  0.00  0.00    +0.000 A 
ATOM     21  N   UNL     1      45.880   4.038  14.092  0.00  0.00    +0.000 NA
ATOM     22  C   UNL     1      45.241   4.983  13.355  0.00  0.00    +0.000 A 
BRANCH  17  24
ATOM     23  N   UNL     1      44.891   8.435  12.629  0.00  0.00    +0.000 N 
ATOM     24  C   UNL     1      45.011   7.147  12.182  0.00  0.00    +0.000 C 
ATOM     25  O   UNL     1      44.517   6.798  11.120  0.00  0.00    +0.000 OA
ATOM     26  H   UNL     1      44.438   9.084  11.998  0.00  0.00    +0.000 HD
ATOM     27  H   UNL     1      45.481   8.823  13.351  0.00  0.00    +0.000 HD
ENDBRANCH  17  24
ENDBRANCH  16  20
ENDBRANCH   1  16
TORSDOF 5
ENDMDL
MODEL 9
REMARK VINA RESULT:    -6.648      3.884      8.210
REMARK INTER + INTRA:          -8.286
REMARK INTER:                  -7.334
REMARK INTRA:                  -0.952
REMARK UNBOUND:                 0.306
REMARK  Name = 
REMARK  5 active torsions:
REMARK  status: ('A' for Active; 'I' for Inactive)
REMARK    1  A    between atoms: C_2  and  C_4
REMARK    2  A    between atoms: C_7  and  O_8
REMARK    3  A    between atoms: O_8  and  C_9
REMARK    4  A    between atoms: C_9  and  C_10
REMARK    5  A    between atoms: C_14  and  C_15
REMARK                            x       y       z     vdW  Elec       q    Type
REMARK                         _______ _______ _______ _____ _____    ______ ____
ROOT
ATOM      1  C   UNL     1      49.185   7.708  12.650  0.00  0.00    +0.000 C 
ATOM      2  C   UNL     1      50.006   7.525  11.381  0.00  0.00    +0.000 C 
ATOM      3  C   UNL     1      50.027   8.837  12.095  0.00  0.00    +0.000 C 
ENDROOT
BRANCH   1   4
ATOM      4  C   UNL     1      47.669   7.761  12.544  0.00  0.00    +0.000 A 
ATOM      5  C   UNL     1      46.989   8.983  12.439  0.00  0.00    +0.000 A 
ATOM      6  C   UNL     1      45.608   9.028  12.248  0.00  0.00    +0.000 A 
ATOM      7  C   UNL     1      44.877   7.842  12.148  0.00  0.00    +0.000 A 
ATOM      8  C   UNL     1      45.505   6.590  12.236  0.00  0.00    +0.000 A 
ATOM      9  C   UNL     1      46.895   6.583  12.454  0.00  0.00    +0.000 A 
BRANCH   8  10
ATOM     10  C   UNL     1      44.755   5.338  12.038  0.00  0.00    +0.000 A 
ATOM     11  C   UNL     1      44.183   4.985  10.825  0.00  0.00    +0.000 A 
ATOM     12  N   UNL     1      43.510   3.836  10.587  0.00  0.00    +0.000 NA
ATOM     13  C   UNL     1      43.420   2.995  11.625  0.00  0.00    +0.000 A 
ATOM     14  N   UNL     1      43.919   3.205  12.850  0.00  0.00    +0.000 NA
ATOM     15  C   UNL     1      44.577   4.376  13.021  0.00  0.00    +0.000 A 
ENDBRANCH   8  10
ENDBRANCH   1   4
BRANCH   1  16
ATOM     16  O   UNL     1      49.739   6.911  13.724  0.00  0.00    +0.000 OA
BRANCH  16  20
ATOM     17  C   UNL     1      48.670   7.749  17.610  0.00  0.00    +0.000 A 
ATOM     18  C   UNL     1      48.497   6.461  17.096  0.00  0.00    +0.000 A 
ATOM     19  C   UNL     1      48.857   6.210  15.776  0.00  0.00    +0.000 A 
ATOM     20  C   UNL     1      49.380   7.249  15.017  0.00  0.00    +0.000 A 
ATOM     21  N   UNL     1      49.562   8.503  15.482  0.00  0.00    +0.000 NA
ATOM     22  C   UNL     1      49.181   8.729  16.767  0.00  0.00    +0.000 A 
BRANCH  17  24
ATOM     23  N   UNL     1      47.155   8.814  19.188  0.00  0.00    +0.000 N 
ATOM     24  C   UNL     1      48.315   8.113  18.999  0.00  0.00    +0.000 C 
ATOM     25  O   UNL     1      49.008   7.771  19.945  0.00  0.00    +0.000 OA
ATOM     26  H   UNL     1      46.878   8.963  20.150  0.00  0.00    +0.000 HD
ATOM     27  H   UNL     1      46.439   8.894  18.480  0.00  0.00    +0.000 HD
ENDBRANCH  17  24
ENDBRANCH  16  20
ENDBRANCH   1  16
TORSDOF 5
ENDMDL
