MODEL 1
REMARK VINA RESULT:    -9.005      0.000      0.000
REMARK INTER + INTRA:         -11.826
REMARK INTER:                 -11.110
REMARK INTRA:                  -0.716
REMARK UNBOUND:                -0.716
REMARK  Name = 
REMARK  4 active torsions:
REMARK  status: ('A' for Active; 'I' for Inactive)
REMARK    1  A    between atoms: C_2  and  C_4
REMARK    2  A    between atoms: N_8  and  C_9
REMARK    3  A    between atoms: C_9  and  C_10
REMARK    4  A    between atoms: C_14  and  C_15
REMARK                            x       y       z     vdW  Elec       q    Type
REMARK                         _______ _______ _______ _____ _____    ______ ____
ROOT
ATOM      1  C   UNL     1      46.373   2.283   7.706  0.00  0.00    +0.000 A 
ATOM      2  C   UNL     1      45.610   1.797   8.761  0.00  0.00    +0.000 A 
ATOM      3  C   UNL     1      44.752   2.663   9.436  0.00  0.00    +0.000 A 
ATOM      4  C   UNL     1      44.688   4.005   9.068  0.00  0.00    +0.000 A 
ATOM      5  N   UNL     1      43.796   4.899   9.624  0.00  0.00    +0.000 N 
ATOM      6  N   UNL     1      45.438   4.492   8.059  0.00  0.00    +0.000 NA
ATOM      7  C   UNL     1      46.265   3.632   7.405  0.00  0.00    +0.000 A 
ATOM      8  H   UNL     1      44.014   5.823   9.260  0.00  0.00    +0.000 HD
ENDROOT
BRANCH   1  10
ATOM      9  N   UNL     1      48.364   2.035   6.338  0.00  0.00    +0.000 N 
ATOM     10  C   UNL     1      47.283   1.430   6.918  0.00  0.00    +0.000 C 
ATOM     11  O   UNL     1      47.097   0.225   6.813  0.00  0.00    +0.000 OA
ATOM     12  H   UNL     1      49.032   1.423   5.882  0.00  0.00    +0.000 HD
ATOM     13  H   UNL     1      48.686   2.953   6.609  0.00  0.00    +0.000 HD
ENDBRANCH   1  10
BRANCH   5  14
ATOM     14  C   UNL     1      43.496   4.865  11.043  0.00  0.00    +0.000 C 
BRANCH  14  15
ATOM     15  C   UNL     1      44.722   5.219  11.855  0.00  0.00    +0.000 A 
ATOM     16  C   UNL     1      45.078   4.450  12.963  0.00  0.00    +0.000 A 
ATOM     17  C   UNL     1      46.157   4.859  13.729  0.00  0.00    +0.000 A 
ATOM     18  N   UNL     1      46.886   5.969  13.479  0.00  0.00    +0.000 NA
ATOM     19  C   UNL     1      46.541   6.725  12.408  0.00  0.00    +0.000 A 
ATOM     20  C   UNL     1      45.460   6.383  11.597  0.00  0.00    +0.000 A 
BRANCH  19  21
ATOM     21  C   UNL     1      47.360   7.926  12.173  0.00  0.00    +0.000 A 
ATOM     22  C   UNL     1      48.709   7.864  11.783  0.00  0.00    +0.000 A 
ATOM     23  C   UNL     1      49.439   9.030  11.555  0.00  0.00    +0.000 A 
ATOM     24  C   UNL     1      48.801  10.245  11.723  0.00  0.00    +0.000 A 
ATOM     25  N   UNL     1      47.514  10.365  12.102  0.00  0.00    +0.000 NA
ATOM     26  C   UNL     1      46.833   9.210  12.323  0.00  0.00    +0.000 A 
ENDBRANCH  19  21
ENDBRANCH  14  15
ENDBRANCH   5  14
TORSDOF 4
ENDMDL
MODEL 2
REMARK VINA RESULT:    -8.814      1.633      3.458
REMARK INTER + INTRA:         -11.591
REMARK INTER:                 -10.839
REMARK INTRA:                  -0.753
REMARK UNBOUND:                -0.716
REMARK  Name = 
REMARK  4 active torsions:
REMARK  status: ('A' for Active; 'I' for Inactive)
REMARK    1  A    between atoms: C_2  and  C_4
REMARK    2  A    between atoms: N_8  and  C_9
REMARK    3  A    between atoms: C_9  and  C_10
REMARK    4  A    between atoms: C_14  and  C_15
REMARK                            x       y       z     vdW  Elec       q    Type
REMARK                         _______ _______ _______ _____ _____    ______ ____
ROOT
ATOM      1  C   UNL     1      46.385   2.291   7.695  0.00  0.00    +0.000 A 
ATOM      2  C   UNL     1      45.621   1.807   8.750  0.00  0.00    +0.000 A 
ATOM      3  C   UNL     1      44.781   2.680   9.438  0.00  0.00    +0.000 A 
ATOM      4  C   UNL     1      44.735   4.026   9.081  0.00  0.00    +0.000 A 
ATOM      5  N   UNL     1      43.859   4.928   9.651  0.00  0.00    +0.000 N 
ATOM      6  N   UNL     1      45.486   4.510   8.072  0.00  0.00    +0.000 NA
ATOM      7  C   UNL     1      46.296   3.644   7.405  0.00  0.00    +0.000 A 
ATOM      8  H   UNL     1      44.089   5.852   9.293  0.00  0.00    +0.000 HD
ENDROOT
BRANCH   1  10
ATOM      9  N   UNL     1      48.331   2.036   6.263  0.00  0.00    +0.000 N 
ATOM     10  C   UNL     1      47.277   1.431   6.893  0.00  0.00    +0.000 C 
ATOM     11  O   UNL     1      47.102   0.222   6.819  0.00  0.00    +0.000 OA
ATOM     12  H   UNL     1      48.989   1.422   5.798  0.00  0.00    +0.000 HD
ATOM     13  H   UNL     1      48.651   2.962   6.504  0.00  0.00    +0.000 HD
ENDBRANCH   1  10
BRANCH   5  14
ATOM     14  C   UNL     1      43.568   4.887  11.072  0.00  0.00    +0.000 C 
BRANCH  14  15
ATOM     15  C   UNL     1      44.646   5.598  11.857  0.00  0.00    +0.000 A 
ATOM     16  C   UNL     1      45.054   6.881  11.491  0.00  0.00    +0.000 A 
ATOM     17  C   UNL     1      46.105   7.462  12.183  0.00  0.00    +0.000 A 
ATOM     18  N   UNL     1      46.773   6.858  13.190  0.00  0.00    +0.000 NA
ATOM     19  C   UNL     1      46.387   5.608  13.548  0.00  0.00    +0.000 A 
ATOM     20  C   UNL     1      45.346   4.955  12.889  0.00  0.00    +0.000 A 
BRANCH  19  21
ATOM     21  C   UNL     1      47.142   4.987  14.648  0.00  0.00    +0.000 A 
ATOM     22  C   UNL     1      47.877   5.733  15.584  0.00  0.00    +0.000 A 
ATOM     23  C   UNL     1      48.563   5.100  16.621  0.00  0.00    +0.000 A 
ATOM     24  C   UNL     1      48.501   3.722  16.700  0.00  0.00    +0.000 A 
ATOM     25  N   UNL     1      47.819   2.955  15.827  0.00  0.00    +0.000 NA
ATOM     26  C   UNL     1      47.168   3.603  14.825  0.00  0.00    +0.000 A 
ENDBRANCH  19  21
ENDBRANCH  14  15
ENDBRANCH   5  14
TORSDOF 4
ENDMDL
MODEL 3
REMARK VINA RESULT:    -7.813      2.939      6.788
REMARK INTER + INTRA:         -10.355
REMARK INTER:                  -9.532
REMARK INTRA:                  -0.824
REMARK UNBOUND:                -0.716
REMARK  Name = 
REMARK  4 active torsions:
REMARK  status: ('A' for Active; 'I' for Inactive)
REMARK    1  A    between atoms: C_2  and  C_4
REMARK    2  A    between atoms: N_8  and  C_9
REMARK    3  A    between atoms: C_9  and  C_10
REMARK    4  A    between atoms: C_14  and  C_15
REMARK                            x       y       z     vdW  Elec       q    Type
REMARK                         _______ _______ _______ _____ _____    ______ ____
ROOT
ATOM      1  C   UNL     1      48.559   7.281  12.782  0.00  0.00    +0.000 A 
ATOM      2  C   UNL     1      47.802   7.823  11.749  0.00  0.00    +0.000 A 
ATOM      3  C   UNL     1      46.434   7.565  11.702  0.00  0.00    +0.000 A 
ATOM      4  C   UNL     1      45.846   6.752  12.667  0.00  0.00    +0.000 A 
ATOM      5  N   UNL     1      44.485   6.531  12.741  0.00  0.00    +0.000 N 
ATOM      6  N   UNL     1      46.573   6.206  13.662  0.00  0.00    +0.000 NA
ATOM      7  C   UNL     1      47.907   6.472  13.699  0.00  0.00    +0.000 A 
ATOM      8  H   UNL     1      44.323   5.833  13.463  0.00  0.00    +0.000 HD
ENDROOT
BRANCH   1  10
ATOM      9  N   UNL     1      50.781   7.386  11.807  0.00  0.00    +0.000 N 
ATOM     10  C   UNL     1      50.007   7.527  12.926  0.00  0.00    +0.000 C 
ATOM     11  O   UNL     1      50.492   7.875  13.995  0.00  0.00    +0.000 OA
ATOM     12  H   UNL     1      51.755   7.652  11.897  0.00  0.00    +0.000 HD
ATOM     13  H   UNL     1      50.393   7.356  10.876  0.00  0.00    +0.000 HD
ENDBRANCH   1  10
BRANCH   5  14
ATOM     14  C   UNL     1      43.694   6.349  11.538  0.00  0.00    +0.000 C 
BRANCH  14  15
ATOM     15  C   UNL     1      43.774   4.917  11.059  0.00  0.00    +0.000 A 
ATOM     16  C   UNL     1      43.111   3.905  11.753  0.00  0.00    +0.000 A 
ATOM     17  C   UNL     1      43.281   2.596  11.331  0.00  0.00    +0.000 A 
ATOM     18  N   UNL     1      44.063   2.232  10.291  0.00  0.00    +0.000 NA
ATOM     19  C   UNL     1      44.716   3.210   9.616  0.00  0.00    +0.000 A 
ATOM     20  C   UNL     1      44.603   4.548   9.990  0.00  0.00    +0.000 A 
BRANCH  19  21
ATOM     21  C   UNL     1      45.557   2.769   8.491  0.00  0.00    +0.000 A 
ATOM     22  C   UNL     1      45.967   3.632   7.462  0.00  0.00    +0.000 A 
ATOM     23  C   UNL     1      46.780   3.172   6.426  0.00  0.00    +0.000 A 
ATOM     24  C   UNL     1      47.168   1.846   6.439  0.00  0.00    +0.000 A 
ATOM     25  N   UNL     1      46.799   0.970   7.395  0.00  0.00    +0.000 NA
ATOM     26  C   UNL     1      46.002   1.450   8.386  0.00  0.00    +0.000 A 
ENDBRANCH  19  21
ENDBRANCH  14  15
ENDBRANCH   5  14
TORSDOF 4
ENDMDL
MODEL 4
REMARK VINA RESULT:    -7.772      2.136      3.009
REMARK INTER + INTRA:         -10.305
REMARK INTER:                  -9.771
REMARK INTRA:                  -0.534
REMARK UNBOUND:                -0.716
REMARK  Name = 
REMARK  4 active torsions:
REMARK  status: ('A' for Active; 'I' for Inactive)
REMARK    1  A    between atoms: C_2  and  C_4
REMARK    2  A    between atoms: N_8  and  C_9
REMARK    3  A    between atoms: C_9  and  C_10
REMARK    4  A    between atoms: C_14  and  C_15
REMARK                            x       y       z     vdW  Elec       q    Type
REMARK                         _______ _______ _______ _____ _____    ______ ____
ROOT
ATOM      1  C   UNL     1      46.729   2.516   7.144  0.00  0.00    +0.000 A 
ATOM      2  C   UNL     1      46.339   3.747   7.658  0.00  0.00    +0.000 A 
ATOM      3  C   UNL     1      45.587   3.786   8.830  0.00  0.00    +0.000 A 
ATOM      4  C   UNL     1      45.214   2.600   9.457  0.00  0.00    +0.000 A 
ATOM      5  N   UNL     1      44.553   2.561  10.668  0.00  0.00    +0.000 N 
ATOM      6  N   UNL     1      45.570   1.400   8.957  0.00  0.00    +0.000 NA
ATOM      7  C   UNL     1      46.310   1.378   7.815  0.00  0.00    +0.000 A 
ATOM      8  H   UNL     1      44.312   1.592  10.860  0.00  0.00    +0.000 HD
ENDROOT
BRANCH   1  10
ATOM      9  N   UNL     1      47.339   3.289   4.924  0.00  0.00    +0.000 N 
ATOM     10  C   UNL     1      47.552   2.383   5.926  0.00  0.00    +0.000 C 
ATOM     11  O   UNL     1      48.413   1.518   5.829  0.00  0.00    +0.000 OA
ATOM     12  H   UNL     1      47.975   3.247   4.136  0.00  0.00    +0.000 HD
ATOM     13  H   UNL     1      46.834   4.151   5.067  0.00  0.00    +0.000 HD
ENDBRANCH   1  10
BRANCH   5  14
ATOM     14  C   UNL     1      43.504   3.516  10.976  0.00  0.00    +0.000 C 
BRANCH  14  15
ATOM     15  C   UNL     1      44.092   4.787  11.545  0.00  0.00    +0.000 A 
ATOM     16  C   UNL     1      43.648   6.031  11.096  0.00  0.00    +0.000 A 
ATOM     17  C   UNL     1      44.273   7.169  11.580  0.00  0.00    +0.000 A 
ATOM     18  N   UNL     1      45.301   7.152  12.457  0.00  0.00    +0.000 NA
ATOM     19  C   UNL     1      45.743   5.947  12.893  0.00  0.00    +0.000 A 
ATOM     20  C   UNL     1      45.171   4.758  12.440  0.00  0.00    +0.000 A 
BRANCH  19  21
ATOM     21  C   UNL     1      46.865   5.974  13.845  0.00  0.00    +0.000 A 
ATOM     22  C   UNL     1      47.774   7.043  13.921  0.00  0.00    +0.000 A 
ATOM     23  C   UNL     1      48.811   7.032  14.853  0.00  0.00    +0.000 A 
ATOM     24  C   UNL     1      48.922   5.943  15.696  0.00  0.00    +0.000 A 
ATOM     25  N   UNL     1      48.086   4.886  15.663  0.00  0.00    +0.000 NA
ATOM     26  C   UNL     1      47.090   4.926  14.739  0.00  0.00    +0.000 A 
ENDBRANCH  19  21
ENDBRANCH  14  15
ENDBRANCH   5  14
TORSDOF 4
ENDMDL
MODEL 5
REMARK VINA RESULT:    -7.733      2.951      6.918
REMARK INTER + INTRA:         -10.257
REMARK INTER:                  -9.784
REMARK INTRA:                  -0.474
REMARK UNBOUND:                -0.716
REMARK  Name = 
REMARK  4 active torsions:
REMARK  status: ('A' for Active; 'I' for Inactive)
REMARK    1  A    between atoms: C_2  and  C_4
REMARK    2  A    between atoms: N_8  and  C_9
REMARK    3  A    between atoms: C_9  and  C_10
REMARK    4  A    between atoms: C_14  and  C_15
REMARK                            x       y       z     vdW  Elec       q    Type
REMARK                         _______ _______ _______ _____ _____    ______ ____
ROOT
ATOM      1  C   UNL     1      48.100   7.043  13.726  0.00  0.00    +0.000 A 
ATOM      2  C   UNL     1      47.310   5.906  13.595  0.00  0.00    +0.000 A 
ATOM      3  C   UNL     1      46.218   5.934  12.730  0.00  0.00    +0.000 A 
ATOM      4  C   UNL     1      45.914   7.099  12.031  0.00  0.00    +0.000 A 
ATOM      5  N   UNL     1      44.909   7.174  11.087  0.00  0.00    +0.000 N 
ATOM      6  N   UNL     1      46.661   8.213  12.165  0.00  0.00    +0.000 NA
ATOM      7  C   UNL     1      47.729   8.168  13.008  0.00  0.00    +0.000 A 
ATOM      8  H   UNL     1      44.827   8.146  10.797  0.00  0.00    +0.000 HD
ENDROOT
BRANCH   1  10
ATOM      9  N   UNL     1      50.457   7.539  14.034  0.00  0.00    +0.000 N 
ATOM     10  C   UNL     1      49.292   7.092  14.594  0.00  0.00    +0.000 C 
ATOM     11  O   UNL     1      49.234   6.777  15.776  0.00  0.00    +0.000 OA
ATOM     12  H   UNL     1      51.242   7.659  14.664  0.00  0.00    +0.000 HD
ATOM     13  H   UNL     1      50.484   8.039  13.159  0.00  0.00    +0.000 HD
ENDBRANCH   1  10
BRANCH   5  14
ATOM     14  C   UNL     1      43.642   6.497  11.294  0.00  0.00    +0.000 C 
BRANCH  14  15
ATOM     15  C   UNL     1      43.744   5.043  10.890  0.00  0.00    +0.000 A 
ATOM     16  C   UNL     1      43.112   4.056  11.647  0.00  0.00    +0.000 A 
ATOM     17  C   UNL     1      43.302   2.731  11.293  0.00  0.00    +0.000 A 
ATOM     18  N   UNL     1      44.075   2.327  10.261  0.00  0.00    +0.000 NA
ATOM     19  C   UNL     1      44.698   3.279   9.524  0.00  0.00    +0.000 A 
ATOM     20  C   UNL     1      44.564   4.634   9.829  0.00  0.00    +0.000 A 
BRANCH  19  21
ATOM     21  C   UNL     1      45.531   2.796   8.412  0.00  0.00    +0.000 A 
ATOM     22  C   UNL     1      45.894   3.606   7.323  0.00  0.00    +0.000 A 
ATOM     23  C   UNL     1      46.701   3.107   6.301  0.00  0.00    +0.000 A 
ATOM     24  C   UNL     1      47.131   1.797   6.387  0.00  0.00    +0.000 A 
ATOM     25  N   UNL     1      46.809   0.971   7.402  0.00  0.00    +0.000 NA
ATOM     26  C   UNL     1      46.016   1.487   8.378  0.00  0.00    +0.000 A 
ENDBRANCH  19  21
ENDBRANCH  14  15
ENDBRANCH   5  14
TORSDOF 4
ENDMDL
MODEL 6
REMARK VINA RESULT:    -7.649      3.129      7.333
REMARK INTER + INTRA:         -10.153
REMARK INTER:                  -9.649
REMARK INTRA:                  -0.503
REMARK UNBOUND:                -0.716
REMARK  Name = 
REMARK  4 active torsions:
REMARK  status: ('A' for Active; 'I' for Inactive)
REMARK    1  A    between atoms: C_2  and  C_4
REMARK    2  A    between atoms: N_8  and  C_9
REMARK    3  A    between atoms: C_9  and  C_10
REMARK    4  A    between atoms: C_14  and  C_15
REMARK                            x       y       z     vdW  Elec       q    Type
REMARK                         _______ _______ _______ _____ _____    ______ ____
ROOT
ATOM      1  C   UNL     1      47.890   5.513  15.365  0.00  0.00    +0.000 A 
ATOM      2  C   UNL     1      46.866   4.730  14.845  0.00  0.00    +0.000 A 
ATOM      3  C   UNL     1      46.299   5.078  13.621  0.00  0.00    +0.000 A 
ATOM      4  C   UNL     1      46.742   6.214  12.948  0.00  0.00    +0.000 A 
ATOM      5  N   UNL     1      46.297   6.569  11.690  0.00  0.00    +0.000 N 
ATOM      6  N   UNL     1      47.721   6.992  13.452  0.00  0.00    +0.000 NA
ATOM      7  C   UNL     1      48.269   6.634  14.645  0.00  0.00    +0.000 A 
ATOM      8  H   UNL     1      46.694   7.478  11.465  0.00  0.00    +0.000 HD
ENDROOT
BRANCH   1  10
ATOM      9  N   UNL     1      47.973   5.639  17.789  0.00  0.00    +0.000 N 
ATOM     10  C   UNL     1      48.568   5.200  16.638  0.00  0.00    +0.000 C 
ATOM     11  O   UNL     1      49.603   4.547  16.667  0.00  0.00    +0.000 OA
ATOM     12  H   UNL     1      48.395   5.334  18.659  0.00  0.00    +0.000 HD
ATOM     13  H   UNL     1      47.012   5.946  17.823  0.00  0.00    +0.000 HD
ENDBRANCH   1  10
BRANCH   5  14
ATOM     14  C   UNL     1      44.902   6.412  11.322  0.00  0.00    +0.000 C 
BRANCH  14  15
ATOM     15  C   UNL     1      44.655   5.036  10.746  0.00  0.00    +0.000 A 
ATOM     16  C   UNL     1      43.756   4.165  11.361  0.00  0.00    +0.000 A 
ATOM     17  C   UNL     1      43.624   2.884  10.851  0.00  0.00    +0.000 A 
ATOM     18  N   UNL     1      44.323   2.415   9.795  0.00  0.00    +0.000 NA
ATOM     19  C   UNL     1      45.204   3.253   9.195  0.00  0.00    +0.000 A 
ATOM     20  C   UNL     1      45.400   4.552   9.660  0.00  0.00    +0.000 A 
BRANCH  19  21
ATOM     21  C   UNL     1      45.946   2.701   8.049  0.00  0.00    +0.000 A 
ATOM     22  C   UNL     1      46.258   3.457   6.908  0.00  0.00    +0.000 A 
ATOM     23  C   UNL     1      46.979   2.895   5.855  0.00  0.00    +0.000 A 
ATOM     24  C   UNL     1      47.375   1.576   5.964  0.00  0.00    +0.000 A 
ATOM     25  N   UNL     1      47.097   0.799   7.030  0.00  0.00    +0.000 NA
ATOM     26  C   UNL     1      46.387   1.376   8.035  0.00  0.00    +0.000 A 
ENDBRANCH  19  21
ENDBRANCH  14  15
ENDBRANCH   5  14
TORSDOF 4
ENDMDL
MODEL 7
REMARK VINA RESULT:    -7.413      1.399      2.042
REMARK INTER + INTRA:          -9.861
REMARK INTER:                  -9.240
REMARK INTRA:                  -0.621
REMARK UNBOUND:                -0.716
REMARK  Name = 
REMARK  4 active torsions:
REMARK  status: ('A' for Active; 'I' for Inactive)
REMARK    1  A    between atoms: C_2  and  C_4
REMARK    2  A    between atoms: N_8  and  C_9
REMARK    3  A    between atoms: C_9  and  C_10
REMARK    4  A    between atoms: C_14  and  C_15
REMARK                            x       y       z     vdW  Elec       q    Type
REMARK                         _______ _______ _______ _____ _____    ______ ____
ROOT
ATOM      1  C   UNL     1      46.612   2.399   7.597  0.00  0.00    +0.000 A 
ATOM      2  C   UNL     1      45.923   2.046   8.751  0.00  0.00    +0.000 A 
ATOM      3  C   UNL     1      45.284   3.039   9.492  0.00  0.00    +0.000 A 
ATOM      4  C   UNL     1      45.364   4.368   9.086  0.00  0.00    +0.000 A 
ATOM      5  N   UNL     1      44.681   5.392   9.712  0.00  0.00    +0.000 N 
ATOM      6  N   UNL     1      46.046   4.724   7.979  0.00  0.00    +0.000 NA
ATOM      7  C   UNL     1      46.658   3.742   7.263  0.00  0.00    +0.000 A 
ATOM      8  H   UNL     1      44.981   6.268   9.292  0.00  0.00    +0.000 HD
ENDROOT
BRANCH   1  10
ATOM      9  N   UNL     1      48.307   1.862   5.942  0.00  0.00    +0.000 N 
ATOM     10  C   UNL     1      47.290   1.409   6.737  0.00  0.00    +0.000 C 
ATOM     11  O   UNL     1      46.976   0.226   6.756  0.00  0.00    +0.000 OA
ATOM     12  H   UNL     1      48.827   1.158   5.431  0.00  0.00    +0.000 HD
ATOM     13  H   UNL     1      48.755   2.755   6.086  0.00  0.00    +0.000 HD
ENDBRANCH   1  10
BRANCH   5  14
ATOM     14  C   UNL     1      44.555   5.427  11.158  0.00  0.00    +0.000 C 
BRANCH  14  15
ATOM     15  C   UNL     1      45.263   6.638  11.723  0.00  0.00    +0.000 A 
ATOM     16  C   UNL     1      44.538   7.773  12.086  0.00  0.00    +0.000 A 
ATOM     17  C   UNL     1      45.233   8.890  12.518  0.00  0.00    +0.000 A 
ATOM     18  N   UNL     1      46.580   8.957  12.602  0.00  0.00    +0.000 NA
ATOM     19  C   UNL     1      47.293   7.860  12.245  0.00  0.00    +0.000 A 
ATOM     20  C   UNL     1      46.663   6.703  11.789  0.00  0.00    +0.000 A 
BRANCH  19  21
ATOM     21  C   UNL     1      48.757   7.977  12.350  0.00  0.00    +0.000 A 
ATOM     22  C   UNL     1      49.610   7.896  11.236  0.00  0.00    +0.000 A 
ATOM     23  C   UNL     1      50.990   8.031  11.384  0.00  0.00    +0.000 A 
ATOM     24  C   UNL     1      51.494   8.244  12.652  0.00  0.00    +0.000 A 
ATOM     25  N   UNL     1      50.726   8.322  13.757  0.00  0.00    +0.000 NA
ATOM     26  C   UNL     1      49.386   8.180  13.579  0.00  0.00    +0.000 A 
ENDBRANCH  19  21
ENDBRANCH  14  15
ENDBRANCH   5  14
TORSDOF 4
ENDMDL
MODEL 8
REMARK VINA RESULT:    -7.237      2.703      6.840
REMARK INTER + INTRA:          -9.645
REMARK INTER:                  -8.990
REMARK INTRA:                  -0.656
REMARK UNBOUND:                -0.716
REMARK  Name = 
REMARK  4 active torsions:
REMARK  status: ('A' for Active; 'I' for Inactive)
REMARK    1  A    between atoms: C_2  and  C_4
REMARK    2  A    between atoms: N_8  and  C_9
REMARK    3  A    between atoms: C_9  and  C_10
REMARK    4  A    between atoms: C_14  and  C_15
REMARK                            x       y       z     vdW  Elec       q    Type
REMARK                         _______ _______ _______ _____ _____    ______ ____
ROOT
ATOM      1  C   UNL     1      48.955   8.529  12.224  0.00  0.00    +0.000 A 
ATOM      2  C   UNL     1      47.673   9.064  12.166  0.00  0.00    +0.000 A 
ATOM      3  C   UNL     1      46.589   8.274  12.544  0.00  0.00    +0.000 A 
ATOM      4  C   UNL     1      46.796   6.958  12.950  0.00  0.00    +0.000 A 
ATOM      5  N   UNL     1      45.787   6.147  13.429  0.00  0.00    +0.000 N 
ATOM      6  N   UNL     1      48.033   6.423  12.991  0.00  0.00    +0.000 NA
ATOM      7  C   UNL     1      49.082   7.209  12.625  0.00  0.00    +0.000 A 
ATOM      8  H   UNL     1      46.174   5.216  13.563  0.00  0.00    +0.000 HD
ENDROOT
BRANCH   1  10
ATOM      9  N   UNL     1      49.971  10.533  11.301  0.00  0.00    +0.000 N 
ATOM     10  C   UNL     1      50.160   9.304  11.871  0.00  0.00    +0.000 C 
ATOM     11  O   UNL     1      51.284   8.879  12.108  0.00  0.00    +0.000 OA
ATOM     12  H   UNL     1      50.803  11.094  11.153  0.00  0.00    +0.000 HD
ATOM     13  H   UNL     1      49.085  11.015  11.327  0.00  0.00    +0.000 HD
ENDBRANCH   1  10
BRANCH   5  14
ATOM     14  C   UNL     1      44.465   6.172  12.831  0.00  0.00    +0.000 C 
BRANCH  14  15
ATOM     15  C   UNL     1      44.233   4.930  12.001  0.00  0.00    +0.000 A 
ATOM     16  C   UNL     1      43.359   3.938  12.446  0.00  0.00    +0.000 A 
ATOM     17  C   UNL     1      43.242   2.778  11.698  0.00  0.00    +0.000 A 
ATOM     18  N   UNL     1      43.933   2.537  10.563  0.00  0.00    +0.000 NA
ATOM     19  C   UNL     1      44.790   3.493  10.126  0.00  0.00    +0.000 A 
ATOM     20  C   UNL     1      44.970   4.681  10.833  0.00  0.00    +0.000 A 
BRANCH  19  21
ATOM     21  C   UNL     1      45.523   3.189   8.887  0.00  0.00    +0.000 A 
ATOM     22  C   UNL     1      45.982   1.900   8.570  0.00  0.00    +0.000 A 
ATOM     23  C   UNL     1      46.656   1.657   7.373  0.00  0.00    +0.000 A 
ATOM     24  C   UNL     1      46.862   2.718   6.512  0.00  0.00    +0.000 A 
ATOM     25  N   UNL     1      46.452   3.976   6.766  0.00  0.00    +0.000 NA
ATOM     26  C   UNL     1      45.804   4.179   7.944  0.00  0.00    +0.000 A 
ENDBRANCH  19  21
ENDBRANCH  14  15
ENDBRANCH   5  14
TORSDOF 4
ENDMDL
MODEL 9
REMARK VINA RESULT:    -6.913      3.989      7.776
REMARK INTER + INTRA:          -9.245
REMARK INTER:                  -8.790
REMARK INTRA:                  -0.455
REMARK UNBOUND:                -0.716
REMARK  Name = 
REMARK  4 active torsions:
REMARK  status: ('A' for Active; 'I' for Inactive)
REMARK    1  A    between atoms: C_2  and  C_4
REMARK    2  A    between atoms: N_8  and  C_9
REMARK    3  A    between atoms: C_9  and  C_10
REMARK    4  A    between atoms: C_14  and  C_15
REMARK                            x       y       z     vdW  Elec       q    Type
REMARK                         _______ _______ _______ _____ _____    ______ ____
ROOT
ATOM      1  C   UNL     1      49.210   3.968  17.144  0.00  0.00    +0.000 A 
ATOM      2  C   UNL     1      48.842   5.281  16.874  0.00  0.00    +0.000 A 
ATOM      3  C   UNL     1      47.805   5.525  15.975  0.00  0.00    +0.000 A 
ATOM      4  C   UNL     1      47.170   4.460  15.341  0.00  0.00    +0.000 A 
ATOM      5  N   UNL     1      46.075   4.617  14.515  0.00  0.00    +0.000 N 
ATOM      6  N   UNL     1      47.532   3.184  15.581  0.00  0.00    +0.000 NA
ATOM      7  C   UNL     1      48.541   2.962  16.466  0.00  0.00    +0.000 A 
ATOM      8  H   UNL     1      45.863   3.711  14.105  0.00  0.00    +0.000 HD
ENDROOT
BRANCH   1  10
ATOM      9  N   UNL     1      50.920   2.427  17.917  0.00  0.00    +0.000 N 
ATOM     10  C   UNL     1      50.275   3.618  18.104  0.00  0.00    +0.000 C 
ATOM     11  O   UNL     1      50.590   4.376  19.012  0.00  0.00    +0.000 OA
ATOM     12  H   UNL     1      51.712   2.244  18.522  0.00  0.00    +0.000 HD
ATOM     13  H   UNL     1      50.869   1.909  17.052  0.00  0.00    +0.000 HD
ENDBRANCH   1  10
BRANCH   5  14
ATOM     14  C   UNL     1      45.996   5.732  13.589  0.00  0.00    +0.000 C 
BRANCH  14  15
ATOM     15  C   UNL     1      45.181   5.355  12.372  0.00  0.00    +0.000 A 
ATOM     16  C   UNL     1      43.806   5.592  12.344  0.00  0.00    +0.000 A 
ATOM     17  C   UNL     1      43.084   5.154  11.247  0.00  0.00    +0.000 A 
ATOM     18  N   UNL     1      43.625   4.496  10.198  0.00  0.00    +0.000 NA
ATOM     19  C   UNL     1      44.959   4.256  10.220  0.00  0.00    +0.000 A 
ATOM     20  C   UNL     1      45.750   4.657  11.297  0.00  0.00    +0.000 A 
BRANCH  19  21
ATOM     21  C   UNL     1      45.507   3.536   9.059  0.00  0.00    +0.000 A 
ATOM     22  C   UNL     1      46.001   4.192   7.919  0.00  0.00    +0.000 A 
ATOM     23  C   UNL     1      46.527   3.466   6.851  0.00  0.00    +0.000 A 
ATOM     24  C   UNL     1      46.548   2.088   6.944  0.00  0.00    +0.000 A 
ATOM     25  N   UNL     1      46.082   1.404   8.008  0.00  0.00    +0.000 NA
ATOM     26  C   UNL     1      45.570   2.142   9.029  0.00  0.00    +0.000 A 
ENDBRANCH  19  21
ENDBRANCH  14  15
ENDBRANCH   5  14
TORSDOF 4
ENDMDL
