MODEL 1
REMARK VINA RESULT:    -9.104      0.000      0.000
REMARK INTER + INTRA:         -12.468
REMARK INTER:                 -11.765
REMARK INTRA:                  -0.703
REMARK UNBOUND:                -0.703
REMARK  Name = 
REMARK  5 active torsions:
REMARK  status: ('A' for Active; 'I' for Inactive)
REMARK    1  A    between atoms: C_2  and  C_4
REMARK    2  A    between atoms: C_7  and  N_8
REMARK    3  A    between atoms: N_8  and  C_9
REMARK    4  A    between atoms: C_9  and  C_10
REMARK    5  A    between atoms: C_15  and  C_16
REMARK                            x       y       z     vdW  Elec       q    Type
REMARK                         _______ _______ _______ _____ _____    ______ ____
ROOT
ATOM      1  C   UNL     1      43.651   4.441  11.215  0.00  0.00    +0.000 C 
ENDROOT
BRANCH   1   2
ATOM      2  C   UNL     1      44.943   4.794  11.930  0.00  0.00    +0.000 A 
ATOM      3  C   UNL     1      45.515   3.894  12.836  0.00  0.00    +0.000 A 
ATOM      4  C   UNL     1      46.688   4.231  13.494  0.00  0.00    +0.000 A 
ATOM      5  F   UNL     1      47.227   3.366  14.364  0.00  0.00    +0.000 F 
ATOM      6  C   UNL     1      47.312   5.456  13.277  0.00  0.00    +0.000 A 
ATOM      7  C   UNL     1      46.781   6.389  12.368  0.00  0.00    +0.000 A 
ATOM      8  C   UNL     1      45.592   6.023  11.697  0.00  0.00    +0.000 A 
BRANCH   7   9
ATOM      9  C   UNL     1      47.442   7.700  12.137  0.00  0.00    +0.000 A 
ATOM     10  C   UNL     1      46.739   8.917  12.253  0.00  0.00    +0.000 A 
ATOM     11  C   UNL     1      47.355  10.152  12.016  0.00  0.00    +0.000 A 
ATOM     12  C   UNL     1      48.701  10.202  11.669  0.00  0.00    +0.000 A 
ATOM     13  C   UNL     1      49.419   9.018  11.555  0.00  0.00    +0.000 A 
ATOM     14 CL   UNL     1      51.088   9.070  11.135  0.00  0.00    +0.000 Cl
ATOM     15  C   UNL     1      48.801   7.784  11.778  0.00  0.00    +0.000 A 
ENDBRANCH   7   9
ENDBRANCH   1   2
BRANCH   1  16
ATOM     16  N   UNL     1      43.787   4.782   9.803  0.00  0.00    +0.000 N 
ATOM     17  H   UNL     1      44.015   5.765   9.678  0.00  0.00    +0.000 HD
BRANCH  16  21
ATOM     18  C   UNL     1      46.384   2.319   7.773  0.00  0.00    +0.000 A 
ATOM     19  C   UNL     1      46.400   3.688   7.559  0.00  0.00    +0.000 A 
ATOM     20  N   UNL     1      45.555   4.543   8.203  0.00  0.00    +0.000 NA
ATOM     21  C   UNL     1      44.682   3.989   9.072  0.00  0.00    +0.000 A 
ATOM     22  C   UNL     1      44.698   2.601   9.285  0.00  0.00    +0.000 A 
ATOM     23  N   UNL     1      45.525   1.730   8.648  0.00  0.00    +0.000 NA
BRANCH  18  25
ATOM     24  N   UNL     1      48.415   2.053   6.482  0.00  0.00    +0.000 N 
ATOM     25  C   UNL     1      47.322   1.434   7.028  0.00  0.00    +0.000 C 
ATOM     26  O   UNL     1      47.136   0.230   6.915  0.00  0.00    +0.000 OA
ATOM     27  H   UNL     1      49.093   1.507   5.970  0.00  0.00    +0.000 HD
ATOM     28  H   UNL     1      48.545   3.052   6.600  0.00  0.00    +0.000 HD
ENDBRANCH  18  25
ENDBRANCH  16  21
ENDBRANCH   1  16
TORSDOF 5
ENDMDL
MODEL 2
REMARK VINA RESULT:    -8.665      1.266      1.583
REMARK INTER + INTRA:         -11.902
REMARK INTER:                 -11.195
REMARK INTRA:                  -0.706
REMARK UNBOUND:                -0.703
REMARK  Name = 
REMARK  5 active torsions:
REMARK  status: ('A' for Active; 'I' for Inactive)
REMARK    1  A    between atoms: C_2  and  C_4
REMARK    2  A    between atoms: C_7  and  N_8
REMARK    3  A    between atoms: N_8  and  C_9
REMARK    4  A    between atoms: C_9  and  C_10
REMARK    5  A    between atoms: C_15  and  C_16
REMARK                            x       y       z     vdW  Elec       q    Type
REMARK                         _______ _______ _______ _____ _____    ______ ____
ROOT
ATOM      1  C   UNL     1      43.740   4.134  11.283  0.00  0.00    +0.000 C 
ENDROOT
BRANCH   1   2
ATOM      2  C   UNL     1      44.968   4.634  12.022  0.00  0.00    +0.000 A 
ATOM      3  C   UNL     1      45.593   3.826  12.978  0.00  0.00    +0.000 A 
ATOM      4  C   UNL     1      46.706   4.297  13.658  0.00  0.00    +0.000 A 
ATOM      5  F   UNL     1      47.296   3.519  14.575  0.00  0.00    +0.000 F 
ATOM      6  C   UNL     1      47.217   5.569  13.413  0.00  0.00    +0.000 A 
ATOM      7  C   UNL     1      46.631   6.413  12.454  0.00  0.00    +0.000 A 
ATOM      8  C   UNL     1      45.504   5.911  11.762  0.00  0.00    +0.000 A 
BRANCH   7   9
ATOM      9  C   UNL     1      47.171   7.773  12.193  0.00  0.00    +0.000 A 
ATOM     10  C   UNL     1      48.551   8.004  12.022  0.00  0.00    +0.000 A 
ATOM     11  C   UNL     1      49.064   9.287  11.796  0.00  0.00    +0.000 A 
ATOM     12  C   UNL     1      48.202  10.377  11.720  0.00  0.00    +0.000 A 
ATOM     13  C   UNL     1      46.836  10.175  11.877  0.00  0.00    +0.000 A 
ATOM     14 CL   UNL     1      45.760  11.516  11.776  0.00  0.00    +0.000 Cl
ATOM     15  C   UNL     1      46.326   8.897  12.117  0.00  0.00    +0.000 A 
ENDBRANCH   7   9
ENDBRANCH   1   2
BRANCH   1  16
ATOM     16  N   UNL     1      43.783   4.629   9.911  0.00  0.00    +0.000 N 
ATOM     17  H   UNL     1      43.894   5.639   9.883  0.00  0.00    +0.000 HD
BRANCH  16  21
ATOM     18  C   UNL     1      46.548   2.693   7.558  0.00  0.00    +0.000 A 
ATOM     19  C   UNL     1      46.486   4.077   7.576  0.00  0.00    +0.000 A 
ATOM     20  N   UNL     1      45.583   4.762   8.335  0.00  0.00    +0.000 NA
ATOM     21  C   UNL     1      44.733   4.021   9.078  0.00  0.00    +0.000 A 
ATOM     22  C   UNL     1      44.828   2.621   9.056  0.00  0.00    +0.000 A 
ATOM     23  N   UNL     1      45.713   1.918   8.301  0.00  0.00    +0.000 NA
BRANCH  18  25
ATOM     24  N   UNL     1      47.992   2.711   5.614  0.00  0.00    +0.000 N 
ATOM     25  C   UNL     1      47.546   2.000   6.697  0.00  0.00    +0.000 C 
ATOM     26  O   UNL     1      47.950   0.871   6.940  0.00  0.00    +0.000 OA
ATOM     27  H   UNL     1      48.676   2.301   4.995  0.00  0.00    +0.000 HD
ATOM     28  H   UNL     1      47.644   3.648   5.444  0.00  0.00    +0.000 HD
ENDBRANCH  18  25
ENDBRANCH  16  21
ENDBRANCH   1  16
TORSDOF 5
ENDMDL
MODEL 3
REMARK VINA RESULT:    -8.559      2.503      3.911
REMARK INTER + INTRA:         -11.764
REMARK INTER:                 -11.021
REMARK INTRA:                  -0.743
REMARK UNBOUND:                -0.703
REMARK  Name = 
REMARK  5 active torsions:
REMARK  status: ('A' for Active; 'I' for Inactive)
REMARK    1  A    between atoms: C_2  and  C_4
REMARK    2  A    between atoms: C_7  and  N_8
REMARK    3  A    between atoms: N_8  and  C_9
REMARK    4  A    between atoms: C_9  and  C_10
REMARK    5  A    between atoms: C_15  and  C_16
REMARK                            x       y       z     vdW  Elec       q    Type
REMARK                         _______ _______ _______ _____ _____    ______ ____
ROOT
ATOM      1  C   UNL     1      43.967   4.534  11.363  0.00  0.00    +0.000 C 
ENDROOT
BRANCH   1   2
ATOM      2  C   UNL     1      45.079   5.304  12.053  0.00  0.00    +0.000 A 
ATOM      3  C   UNL     1      45.488   6.546  11.557  0.00  0.00    +0.000 A 
ATOM      4  C   UNL     1      46.514   7.235  12.186  0.00  0.00    +0.000 A 
ATOM      5  F   UNL     1      46.904   8.422  11.703  0.00  0.00    +0.000 F 
ATOM      6  C   UNL     1      47.156   6.712  13.306  0.00  0.00    +0.000 A 
ATOM      7  C   UNL     1      46.773   5.473  13.847  0.00  0.00    +0.000 A 
ATOM      8  C   UNL     1      45.717   4.790  13.200  0.00  0.00    +0.000 A 
BRANCH   7   9
ATOM      9  C   UNL     1      47.458   4.908  15.040  0.00  0.00    +0.000 A 
ATOM     10  C   UNL     1      47.305   3.558  15.415  0.00  0.00    +0.000 A 
ATOM     11  C   UNL     1      47.933   3.030  16.549  0.00  0.00    +0.000 A 
ATOM     12  C   UNL     1      48.748   3.841  17.334  0.00  0.00    +0.000 A 
ATOM     13  C   UNL     1      48.921   5.174  16.982  0.00  0.00    +0.000 A 
ATOM     14 CL   UNL     1      49.934   6.183  17.941  0.00  0.00    +0.000 Cl
ATOM     15  C   UNL     1      48.282   5.705  15.858  0.00  0.00    +0.000 A 
ENDBRANCH   7   9
ENDBRANCH   1   2
BRANCH   1  16
ATOM     16  N   UNL     1      43.990   4.850   9.939  0.00  0.00    +0.000 N 
ATOM     17  H   UNL     1      44.195   5.833   9.779  0.00  0.00    +0.000 HD
BRANCH  16  21
ATOM     18  C   UNL     1      46.447   2.376   7.755  0.00  0.00    +0.000 A 
ATOM     19  C   UNL     1      46.468   3.746   7.552  0.00  0.00    +0.000 A 
ATOM     20  N   UNL     1      45.668   4.604   8.246  0.00  0.00    +0.000 NA
ATOM     21  C   UNL     1      44.836   4.053   9.155  0.00  0.00    +0.000 A 
ATOM     22  C   UNL     1      44.846   2.663   9.356  0.00  0.00    +0.000 A 
ATOM     23  N   UNL     1      45.628   1.789   8.669  0.00  0.00    +0.000 NA
BRANCH  18  25
ATOM     24  N   UNL     1      48.415   2.093   6.374  0.00  0.00    +0.000 N 
ATOM     25  C   UNL     1      47.333   1.487   6.955  0.00  0.00    +0.000 C 
ATOM     26  O   UNL     1      47.118   0.288   6.827  0.00  0.00    +0.000 OA
ATOM     27  H   UNL     1      49.060   1.544   5.824  0.00  0.00    +0.000 HD
ATOM     28  H   UNL     1      48.571   3.087   6.505  0.00  0.00    +0.000 HD
ENDBRANCH  18  25
ENDBRANCH  16  21
ENDBRANCH   1  16
TORSDOF 5
ENDMDL
MODEL 4
REMARK VINA RESULT:    -8.510      4.546      7.264
REMARK INTER + INTRA:         -11.700
REMARK INTER:                 -11.275
REMARK INTRA:                  -0.425
REMARK UNBOUND:                -0.703
REMARK  Name = 
REMARK  5 active torsions:
REMARK  status: ('A' for Active; 'I' for Inactive)
REMARK    1  A    between atoms: C_2  and  C_4
REMARK    2  A    between atoms: C_7  and  N_8
REMARK    3  A    between atoms: N_8  and  C_9
REMARK    4  A    between atoms: C_9  and  C_10
REMARK    5  A    between atoms: C_15  and  C_16
REMARK                            x       y       z     vdW  Elec       q    Type
REMARK                         _______ _______ _______ _____ _____    ______ ____
ROOT
ATOM      1  C   UNL     1      46.250   7.215  12.086  0.00  0.00    +0.000 C 
ENDROOT
BRANCH   1   2
ATOM      2  C   UNL     1      45.416   6.202  11.324  0.00  0.00    +0.000 A 
ATOM      3  C   UNL     1      44.071   6.006  11.655  0.00  0.00    +0.000 A 
ATOM      4  C   UNL     1      43.320   5.068  10.962  0.00  0.00    +0.000 A 
ATOM      5  F   UNL     1      42.034   4.882  11.288  0.00  0.00    +0.000 F 
ATOM      6  C   UNL     1      43.881   4.306   9.940  0.00  0.00    +0.000 A 
ATOM      7  C   UNL     1      45.225   4.474   9.565  0.00  0.00    +0.000 A 
ATOM      8  C   UNL     1      45.971   5.444  10.273  0.00  0.00    +0.000 A 
BRANCH   7   9
ATOM      9  C   UNL     1      45.828   3.660   8.477  0.00  0.00    +0.000 A 
ATOM     10  C   UNL     1      46.317   4.247   7.292  0.00  0.00    +0.000 A 
ATOM     11  C   UNL     1      46.866   3.480   6.258  0.00  0.00    +0.000 A 
ATOM     12  C   UNL     1      46.956   2.098   6.391  0.00  0.00    +0.000 A 
ATOM     13  C   UNL     1      46.489   1.494   7.552  0.00  0.00    +0.000 A 
ATOM     14 CL   UNL     1      46.603  -0.215   7.729  0.00  0.00    +0.000 Cl
ATOM     15  C   UNL     1      45.926   2.259   8.578  0.00  0.00    +0.000 A 
ENDBRANCH   7   9
ENDBRANCH   1   2
BRANCH   1  16
ATOM     16  N   UNL     1      47.532   6.607  12.428  0.00  0.00    +0.000 N 
ATOM     17  H   UNL     1      48.284   7.291  12.412  0.00  0.00    +0.000 HD
BRANCH  16  21
ATOM     18  C   UNL     1      47.468   4.431  15.919  0.00  0.00    +0.000 A 
ATOM     19  C   UNL     1      48.231   5.583  15.822  0.00  0.00    +0.000 A 
ATOM     20  N   UNL     1      48.289   6.333  14.685  0.00  0.00    +0.000 NA
ATOM     21  C   UNL     1      47.560   5.896  13.636  0.00  0.00    +0.000 A 
ATOM     22  C   UNL     1      46.780   4.735  13.764  0.00  0.00    +0.000 A 
ATOM     23  N   UNL     1      46.716   3.968  14.885  0.00  0.00    +0.000 NA
BRANCH  18  25
ATOM     24  N   UNL     1      48.555   3.796  17.988  0.00  0.00    +0.000 N 
ATOM     25  C   UNL     1      47.457   3.644  17.184  0.00  0.00    +0.000 C 
ATOM     26  O   UNL     1      46.525   2.912  17.493  0.00  0.00    +0.000 OA
ATOM     27  H   UNL     1      48.606   3.296  18.863  0.00  0.00    +0.000 HD
ATOM     28  H   UNL     1      49.307   4.416  17.708  0.00  0.00    +0.000 HD
ENDBRANCH  18  25
ENDBRANCH  16  21
ENDBRANCH   1  16
TORSDOF 5
ENDMDL
MODEL 5
REMARK VINA RESULT:    -8.483      2.805      3.858
REMARK INTER + INTRA:         -11.666
REMARK INTER:                 -10.906
REMARK INTRA:                  -0.759
REMARK UNBOUND:                -0.703
REMARK  Name = 
REMARK  5 active torsions:
REMARK  status: ('A' for Active; 'I' for Inactive)
REMARK    1  A    between atoms: C_2  and  C_4
REMARK    2  A    between atoms: C_7  and  N_8
REMARK    3  A    between atoms: N_8  and  C_9
REMARK    4  A    between atoms: C_9  and  C_10
REMARK    5  A    between atoms: C_15  and  C_16
REMARK                            x       y       z     vdW  Elec       q    Type
REMARK                         _______ _______ _______ _____ _____    ______ ____
ROOT
ATOM      1  C   UNL     1      43.881   4.539  11.289  0.00  0.00    +0.000 C 
ENDROOT
BRANCH   1   2
ATOM      2  C   UNL     1      44.847   5.529  11.915  0.00  0.00    +0.000 A 
ATOM      3  C   UNL     1      44.972   6.819  11.390  0.00  0.00    +0.000 A 
ATOM      4  C   UNL     1      45.866   7.712  11.961  0.00  0.00    +0.000 A 
ATOM      5  F   UNL     1      45.984   8.944  11.450  0.00  0.00    +0.000 F 
ATOM      6  C   UNL     1      46.655   7.348  13.049  0.00  0.00    +0.000 A 
ATOM      7  C   UNL     1      46.557   6.066  13.619  0.00  0.00    +0.000 A 
ATOM      8  C   UNL     1      45.630   5.174  13.032  0.00  0.00    +0.000 A 
BRANCH   7   9
ATOM      9  C   UNL     1      47.400   5.673  14.778  0.00  0.00    +0.000 A 
ATOM     10  C   UNL     1      48.496   6.453  15.199  0.00  0.00    +0.000 A 
ATOM     11  C   UNL     1      49.304   6.073  16.277  0.00  0.00    +0.000 A 
ATOM     12  C   UNL     1      49.024   4.904  16.977  0.00  0.00    +0.000 A 
ATOM     13  C   UNL     1      47.944   4.120  16.588  0.00  0.00    +0.000 A 
ATOM     14 CL   UNL     1      47.585   2.676  17.453  0.00  0.00    +0.000 Cl
ATOM     15  C   UNL     1      47.148   4.492  15.502  0.00  0.00    +0.000 A 
ENDBRANCH   7   9
ENDBRANCH   1   2
BRANCH   1  16
ATOM     16  N   UNL     1      43.854   4.755   9.847  0.00  0.00    +0.000 N 
ATOM     17  H   UNL     1      43.993   5.735   9.615  0.00  0.00    +0.000 HD
BRANCH  16  21
ATOM     18  C   UNL     1      46.418   2.291   7.777  0.00  0.00    +0.000 A 
ATOM     19  C   UNL     1      46.364   3.646   7.494  0.00  0.00    +0.000 A 
ATOM     20  N   UNL     1      45.526   4.500   8.149  0.00  0.00    +0.000 NA
ATOM     21  C   UNL     1      44.734   3.959   9.099  0.00  0.00    +0.000 A 
ATOM     22  C   UNL     1      44.821   2.587   9.380  0.00  0.00    +0.000 A 
ATOM     23  N   UNL     1      45.642   1.716   8.734  0.00  0.00    +0.000 NA
BRANCH  18  25
ATOM     24  N   UNL     1      48.447   2.016   6.484  0.00  0.00    +0.000 N 
ATOM     25  C   UNL     1      47.343   1.405   7.018  0.00  0.00    +0.000 C 
ATOM     26  O   UNL     1      47.139   0.205   6.882  0.00  0.00    +0.000 OA
ATOM     27  H   UNL     1      49.118   1.469   5.964  0.00  0.00    +0.000 HD
ATOM     28  H   UNL     1      48.593   3.010   6.620  0.00  0.00    +0.000 HD
ENDBRANCH  18  25
ENDBRANCH  16  21
ENDBRANCH   1  16
TORSDOF 5
ENDMDL
MODEL 6
REMARK VINA RESULT:    -8.235      2.484      3.039
REMARK INTER + INTRA:         -11.345
REMARK INTER:                 -10.515
REMARK INTRA:                  -0.830
REMARK UNBOUND:                -0.703
REMARK  Name = 
REMARK  5 active torsions:
REMARK  status: ('A' for Active; 'I' for Inactive)
REMARK    1  A    between atoms: C_2  and  C_4
REMARK    2  A    between atoms: C_7  and  N_8
REMARK    3  A    between atoms: N_8  and  C_9
REMARK    4  A    between atoms: C_9  and  C_10
REMARK    5  A    between atoms: C_15  and  C_16
REMARK                            x       y       z     vdW  Elec       q    Type
REMARK                         _______ _______ _______ _____ _____    ______ ____
ROOT
ATOM      1  C   UNL     1      44.126   3.802  11.797  0.00  0.00    +0.000 C 
ENDROOT
BRANCH   1   2
ATOM      2  C   UNL     1      44.976   4.989  12.213  0.00  0.00    +0.000 A 
ATOM      3  C   UNL     1      46.089   4.803  13.039  0.00  0.00    +0.000 A 
ATOM      4  C   UNL     1      46.852   5.895  13.424  0.00  0.00    +0.000 A 
ATOM      5  F   UNL     1      47.914   5.710  14.219  0.00  0.00    +0.000 F 
ATOM      6  C   UNL     1      46.528   7.185  13.010  0.00  0.00    +0.000 A 
ATOM      7  C   UNL     1      45.425   7.421  12.171  0.00  0.00    +0.000 A 
ATOM      8  C   UNL     1      44.667   6.294  11.778  0.00  0.00    +0.000 A 
BRANCH   7   9
ATOM      9  C   UNL     1      45.074   8.796  11.730  0.00  0.00    +0.000 A 
ATOM     10  C   UNL     1      45.884   9.907  12.043  0.00  0.00    +0.000 A 
ATOM     11  C   UNL     1      45.544  11.205  11.646  0.00  0.00    +0.000 A 
ATOM     12  C   UNL     1      44.386  11.426  10.908  0.00  0.00    +0.000 A 
ATOM     13  C   UNL     1      43.573  10.348  10.580  0.00  0.00    +0.000 A 
ATOM     14 CL   UNL     1      42.142  10.609   9.659  0.00  0.00    +0.000 Cl
ATOM     15  C   UNL     1      43.905   9.053  10.989  0.00  0.00    +0.000 A 
ENDBRANCH   7   9
ENDBRANCH   1   2
BRANCH   1  16
ATOM     16  N   UNL     1      43.733   3.971  10.402  0.00  0.00    +0.000 N 
ATOM     17  H   UNL     1      43.500   4.938  10.195  0.00  0.00    +0.000 HD
BRANCH  16  21
ATOM     18  C   UNL     1      46.392   2.705   7.528  0.00  0.00    +0.000 A 
ATOM     19  C   UNL     1      45.832   1.801   8.416  0.00  0.00    +0.000 A 
ATOM     20  N   UNL     1      44.952   2.174   9.388  0.00  0.00    +0.000 NA
ATOM     21  C   UNL     1      44.646   3.487   9.454  0.00  0.00    +0.000 A 
ATOM     22  C   UNL     1      45.212   4.381   8.531  0.00  0.00    +0.000 A 
ATOM     23  N   UNL     1      46.098   4.033   7.561  0.00  0.00    +0.000 NA
BRANCH  18  25
ATOM     24  N   UNL     1      47.403   2.980   5.345  0.00  0.00    +0.000 N 
ATOM     25  C   UNL     1      47.360   2.240   6.497  0.00  0.00    +0.000 C 
ATOM     26  O   UNL     1      48.078   1.262   6.664  0.00  0.00    +0.000 OA
ATOM     27  H   UNL     1      48.044   2.722   4.609  0.00  0.00    +0.000 HD
ATOM     28  H   UNL     1      46.801   3.790   5.239  0.00  0.00    +0.000 HD
ENDBRANCH  18  25
ENDBRANCH  16  21
ENDBRANCH   1  16
TORSDOF 5
ENDMDL
MODEL 7
REMARK VINA RESULT:    -8.056      2.202      2.795
REMARK INTER + INTRA:         -11.113
REMARK INTER:                 -10.402
REMARK INTRA:                  -0.711
REMARK UNBOUND:                -0.703
REMARK  Name = 
REMARK  5 active torsions:
REMARK  status: ('A' for Active; 'I' for Inactive)
REMARK    1  A    between atoms: C_2  and  C_4
REMARK    2  A    between atoms: C_7  and  N_8
REMARK    3  A    between atoms: N_8  and  C_9
REMARK    4  A    between atoms: C_9  and  C_10
REMARK    5  A    between atoms: C_15  and  C_16
REMARK                            x       y       z     vdW  Elec       q    Type
REMARK                         _______ _______ _______ _____ _____    ______ ____
ROOT
ATOM      1  C   UNL     1      44.583   3.426  11.634  0.00  0.00    +0.000 C 
ENDROOT
BRANCH   1   2
ATOM      2  C   UNL     1      44.897   4.910  11.704  0.00  0.00    +0.000 A 
ATOM      3  C   UNL     1      43.922   5.853  11.361  0.00  0.00    +0.000 A 
ATOM      4  C   UNL     1      44.223   7.206  11.416  0.00  0.00    +0.000 A 
ATOM      5  F   UNL     1      43.286   8.103  11.082  0.00  0.00    +0.000 F 
ATOM      6  C   UNL     1      45.485   7.650  11.800  0.00  0.00    +0.000 A 
ATOM      7  C   UNL     1      46.494   6.741  12.164  0.00  0.00    +0.000 A 
ATOM      8  C   UNL     1      46.165   5.366  12.115  0.00  0.00    +0.000 A 
BRANCH   7   9
ATOM      9  C   UNL     1      47.844   7.211  12.571  0.00  0.00    +0.000 A 
ATOM     10  C   UNL     1      48.657   7.973  11.707  0.00  0.00    +0.000 A 
ATOM     11  C   UNL     1      49.937   8.399  12.081  0.00  0.00    +0.000 A 
ATOM     12  C   UNL     1      50.434   8.086  13.342  0.00  0.00    +0.000 A 
ATOM     13  C   UNL     1      49.649   7.343  14.216  0.00  0.00    +0.000 A 
ATOM     14 CL   UNL     1      50.251   6.958  15.783  0.00  0.00    +0.000 Cl
ATOM     15  C   UNL     1      48.377   6.905  13.837  0.00  0.00    +0.000 A 
ENDBRANCH   7   9
ENDBRANCH   1   2
BRANCH   1  16
ATOM     16  N   UNL     1      43.988   3.132  10.334  0.00  0.00    +0.000 N 
ATOM     17  H   UNL     1      43.329   3.853  10.055  0.00  0.00    +0.000 HD
BRANCH  16  21
ATOM     18  C   UNL     1      46.598   2.567   7.204  0.00  0.00    +0.000 A 
ATOM     19  C   UNL     1      46.298   1.525   8.067  0.00  0.00    +0.000 A 
ATOM     20  N   UNL     1      45.445   1.667   9.121  0.00  0.00    +0.000 NA
ATOM     21  C   UNL     1      44.897   2.888   9.295  0.00  0.00    +0.000 A 
ATOM     22  C   UNL     1      45.202   3.923   8.396  0.00  0.00    +0.000 A 
ATOM     23  N   UNL     1      46.056   3.807   7.345  0.00  0.00    +0.000 NA
BRANCH  18  25
ATOM     24  N   UNL     1      47.484   3.275   5.065  0.00  0.00    +0.000 N 
ATOM     25  C   UNL     1      47.550   2.356   6.078  0.00  0.00    +0.000 C 
ATOM     26  O   UNL     1      48.346   1.427   6.058  0.00  0.00    +0.000 OA
ATOM     27  H   UNL     1      48.108   3.193   4.275  0.00  0.00    +0.000 HD
ATOM     28  H   UNL     1      46.819   4.039   5.114  0.00  0.00    +0.000 HD
ENDBRANCH  18  25
ENDBRANCH  16  21
ENDBRANCH   1  16
TORSDOF 5
ENDMDL
MODEL 8
REMARK VINA RESULT:    -8.052      1.962      2.567
REMARK INTER + INTRA:         -11.109
REMARK INTER:                 -10.319
REMARK INTRA:                  -0.789
REMARK UNBOUND:                -0.703
REMARK  Name = 
REMARK  5 active torsions:
REMARK  status: ('A' for Active; 'I' for Inactive)
REMARK    1  A    between atoms: C_2  and  C_4
REMARK    2  A    between atoms: C_7  and  N_8
REMARK    3  A    between atoms: N_8  and  C_9
REMARK    4  A    between atoms: C_9  and  C_10
REMARK    5  A    between atoms: C_15  and  C_16
REMARK                            x       y       z     vdW  Elec       q    Type
REMARK                         _______ _______ _______ _____ _____    ______ ____
ROOT
ATOM      1  C   UNL     1      44.221   4.861  11.339  0.00  0.00    +0.000 C 
ENDROOT
BRANCH   1   2
ATOM      2  C   UNL     1      44.830   6.238  11.528  0.00  0.00    +0.000 A 
ATOM      3  C   UNL     1      44.048   7.384  11.352  0.00  0.00    +0.000 A 
ATOM      4  C   UNL     1      44.617   8.639  11.514  0.00  0.00    +0.000 A 
ATOM      5  F   UNL     1      43.863   9.732  11.339  0.00  0.00    +0.000 F 
ATOM      6  C   UNL     1      45.962   8.785  11.844  0.00  0.00    +0.000 A 
ATOM      7  C   UNL     1      46.785   7.663  12.042  0.00  0.00    +0.000 A 
ATOM      8  C   UNL     1      46.185   6.392  11.885  0.00  0.00    +0.000 A 
BRANCH   7   9
ATOM      9  C   UNL     1      48.223   7.815  12.390  0.00  0.00    +0.000 A 
ATOM     10  C   UNL     1      48.648   8.014  13.720  0.00  0.00    +0.000 A 
ATOM     11  C   UNL     1      49.999   8.178  14.047  0.00  0.00    +0.000 A 
ATOM     12  C   UNL     1      50.967   8.130  13.049  0.00  0.00    +0.000 A 
ATOM     13  C   UNL     1      50.575   7.927  11.731  0.00  0.00    +0.000 A 
ATOM     14 CL   UNL     1      51.766   7.858  10.490  0.00  0.00    +0.000 Cl
ATOM     15  C   UNL     1      49.225   7.779  11.402  0.00  0.00    +0.000 A 
ENDBRANCH   7   9
ENDBRANCH   1   2
BRANCH   1  16
ATOM     16  N   UNL     1      43.839   4.703   9.940  0.00  0.00    +0.000 N 
ATOM     17  H   UNL     1      43.615   5.597   9.512  0.00  0.00    +0.000 HD
BRANCH  16  21
ATOM     18  C   UNL     1      46.509   2.519   7.696  0.00  0.00    +0.000 A 
ATOM     19  C   UNL     1      46.435   3.896   7.558  0.00  0.00    +0.000 A 
ATOM     20  N   UNL     1      45.563   4.660   8.275  0.00  0.00    +0.000 NA
ATOM     21  C   UNL     1      44.755   4.007   9.138  0.00  0.00    +0.000 A 
ATOM     22  C   UNL     1      44.862   2.613   9.273  0.00  0.00    +0.000 A 
ATOM     23  N   UNL     1      45.717   1.831   8.562  0.00  0.00    +0.000 NA
BRANCH  18  25
ATOM     24  N   UNL     1      48.560   2.428   6.413  0.00  0.00    +0.000 N 
ATOM     25  C   UNL     1      47.472   1.735   6.874  0.00  0.00    +0.000 C 
ATOM     26  O   UNL     1      47.310   0.547   6.629  0.00  0.00    +0.000 OA
ATOM     27  H   UNL     1      49.255   1.952   5.856  0.00  0.00    +0.000 HD
ATOM     28  H   UNL     1      48.670   3.410   6.639  0.00  0.00    +0.000 HD
ENDBRANCH  18  25
ENDBRANCH  16  21
ENDBRANCH   1  16
TORSDOF 5
ENDMDL
MODEL 9
REMARK VINA RESULT:    -7.862      5.432      8.089
REMARK INTER + INTRA:         -10.863
REMARK INTER:                 -10.303
REMARK INTRA:                  -0.561
REMARK UNBOUND:                -0.703
REMARK  Name = 
REMARK  5 active torsions:
REMARK  status: ('A' for Active; 'I' for Inactive)
REMARK    1  A    between atoms: C_2  and  C_4
REMARK    2  A    between atoms: C_7  and  N_8
REMARK    3  A    between atoms: N_8  and  C_9
REMARK    4  A    between atoms: C_9  and  C_10
REMARK    5  A    between atoms: C_15  and  C_16
REMARK                            x       y       z     vdW  Elec       q    Type
REMARK                         _______ _______ _______ _____ _____    ______ ____
ROOT
ATOM      1  C   UNL     1      46.131   5.120  13.711  0.00  0.00    +0.000 C 
ENDROOT
BRANCH   1   2
ATOM      2  C   UNL     1      45.268   4.881  12.486  0.00  0.00    +0.000 A 
ATOM      3  C   UNL     1      43.915   5.235  12.497  0.00  0.00    +0.000 A 
ATOM      4  C   UNL     1      43.132   5.000  11.377  0.00  0.00    +0.000 A 
ATOM      5  F   UNL     1      41.835   5.337  11.398  0.00  0.00    +0.000 F 
ATOM      6  C   UNL     1      43.664   4.410  10.234  0.00  0.00    +0.000 A 
ATOM      7  C   UNL     1      45.021   4.048  10.170  0.00  0.00    +0.000 A 
ATOM      8  C   UNL     1      45.807   4.306  11.317  0.00  0.00    +0.000 A 
BRANCH   7   9
ATOM      9  C   UNL     1      45.592   3.414   8.953  0.00  0.00    +0.000 A 
ATOM     10  C   UNL     1      45.941   4.171   7.816  0.00  0.00    +0.000 A 
ATOM     11  C   UNL     1      46.460   3.573   6.661  0.00  0.00    +0.000 A 
ATOM     12  C   UNL     1      46.659   2.197   6.619  0.00  0.00    +0.000 A 
ATOM     13  C   UNL     1      46.331   1.429   7.730  0.00  0.00    +0.000 A 
ATOM     14 CL   UNL     1      46.581  -0.274   7.692  0.00  0.00    +0.000 Cl
ATOM     15  C   UNL     1      45.798   2.024   8.877  0.00  0.00    +0.000 A 
ENDBRANCH   7   9
ENDBRANCH   1   2
BRANCH   1  16
ATOM     16  N   UNL     1      46.759   3.861  14.098  0.00  0.00    +0.000 N 
ATOM     17  H   UNL     1      47.404   3.532  13.384  0.00  0.00    +0.000 HD
BRANCH  16  21
ATOM     18  C   UNL     1      48.620   4.036  17.763  0.00  0.00    +0.000 A 
ATOM     19  C   UNL     1      48.579   2.848  17.051  0.00  0.00    +0.000 A 
ATOM     20  N   UNL     1      47.969   2.740  15.836  0.00  0.00    +0.000 NA
ATOM     21  C   UNL     1      47.392   3.859  15.349  0.00  0.00    +0.000 A 
ATOM     22  C   UNL     1      47.463   5.055  16.081  0.00  0.00    +0.000 A 
ATOM     23  N   UNL     1      48.058   5.183  17.297  0.00  0.00    +0.000 NA
BRANCH  18  25
ATOM     24  N   UNL     1      48.537   3.659  20.153  0.00  0.00    +0.000 N 
ATOM     25  C   UNL     1      49.289   4.088  19.092  0.00  0.00    +0.000 C 
ATOM     26  O   UNL     1      50.440   4.482  19.233  0.00  0.00    +0.000 OA
ATOM     27  H   UNL     1      48.935   3.662  21.081  0.00  0.00    +0.000 HD
ATOM     28  H   UNL     1      47.589   3.330  20.004  0.00  0.00    +0.000 HD
ENDBRANCH  18  25
ENDBRANCH  16  21
ENDBRANCH   1  16
TORSDOF 5
ENDMDL
