MODEL 1
REMARK VINA RESULT:    -9.210      0.000      0.000
REMARK INTER + INTRA:         -12.650
REMARK INTER:                 -11.364
REMARK INTRA:                  -1.286
REMARK UNBOUND:                -1.286
REMARK  Name = 
REMARK  4 active torsions:
REMARK  status: ('A' for Active; 'I' for Inactive)
REMARK    1  A    between atoms: C_2  and  C_4
REMARK    2  A    between atoms: N_8  and  C_9
REMARK    3  A    between atoms: C_9  and  C_10
REMARK    4  A    between atoms: C_14  and  C_15
REMARK                            x       y       z     vdW  Elec       q    Type
REMARK                         _______ _______ _______ _____ _____    ______ ____
ROOT
ATOM      1  C   UNL     1      43.836   4.969  11.373  0.00  0.00    +0.000 C 
ATOM      2  C   UNL     1      42.473   5.196  12.016  0.00  0.00    +0.000 C 
ATOM      3  C   UNL     1      43.000   6.194  11.038  0.00  0.00    +0.000 C 
ENDROOT
BRANCH   1   8
ATOM      4  C   UNL     1      46.574   2.747   7.505  0.00  0.00    +0.000 A 
ATOM      5  C   UNL     1      46.239   4.080   7.678  0.00  0.00    +0.000 A 
ATOM      6  C   UNL     1      45.344   4.432   8.685  0.00  0.00    +0.000 A 
ATOM      7  C   UNL     1      44.862   3.460   9.549  0.00  0.00    +0.000 A 
ATOM      8  N   UNL     1      43.931   3.733  10.559  0.00  0.00    +0.000 N 
ATOM      9  N   UNL     1      45.179   2.154   9.380  0.00  0.00    +0.000 NA
ATOM     10  C   UNL     1      46.000   1.813   8.350  0.00  0.00    +0.000 A 
ATOM     11  H   UNL     1      43.861   2.859  11.083  0.00  0.00    +0.000 HD
BRANCH   4  13
ATOM     12  N   UNL     1      47.304   3.009   5.220  0.00  0.00    +0.000 N 
ATOM     13  C   UNL     1      47.456   2.320   6.399  0.00  0.00    +0.000 C 
ATOM     14  O   UNL     1      48.254   1.422   6.529  0.00  0.00    +0.000 OA
ATOM     15  H   UNL     1      47.914   2.751   4.454  0.00  0.00    +0.000 HD
ATOM     16  H   UNL     1      46.783   3.869   5.147  0.00  0.00    +0.000 HD
ENDBRANCH   4  13
ENDBRANCH   1   8
BRANCH   1  17
ATOM     17  C   UNL     1      45.084   5.187  12.208  0.00  0.00    +0.000 A 
ATOM     18  C   UNL     1      45.592   4.160  13.020  0.00  0.00    +0.000 A 
ATOM     19  C   UNL     1      46.847   4.261  13.606  0.00  0.00    +0.000 A 
ATOM     20  C   UNL     1      47.615   5.396  13.388  0.00  0.00    +0.000 A 
ATOM     21  C   UNL     1      47.148   6.447  12.580  0.00  0.00    +0.000 A 
ATOM     22  C   UNL     1      45.861   6.343  12.043  0.00  0.00    +0.000 A 
BRANCH  21  23
ATOM     23  C   UNL     1      48.043   7.536  12.168  0.00  0.00    +0.000 A 
ATOM     24  C   UNL     1      47.553   8.854  12.152  0.00  0.00    +0.000 A 
ATOM     25  C   UNL     1      48.371   9.928  11.829  0.00  0.00    +0.000 A 
ATOM     26  C   UNL     1      49.709   9.704  11.523  0.00  0.00    +0.000 A 
ATOM     27  C   UNL     1      50.225   8.410  11.544  0.00  0.00    +0.000 A 
ATOM     28  C   UNL     1      49.399   7.332  11.863  0.00  0.00    +0.000 A 
ENDBRANCH  21  23
ENDBRANCH   1  17
TORSDOF 4
ENDMDL
MODEL 2
REMARK VINA RESULT:    -8.863      1.588      3.333
REMARK INTER + INTRA:         -12.222
REMARK INTER:                 -11.363
REMARK INTRA:                  -0.859
REMARK UNBOUND:                -1.286
REMARK  Name = 
REMARK  4 active torsions:
REMARK  status: ('A' for Active; 'I' for Inactive)
REMARK    1  A    between atoms: C_2  and  C_4
REMARK    2  A    between atoms: N_8  and  C_9
REMARK    3  A    between atoms: C_9  and  C_10
REMARK    4  A    between atoms: C_14  and  C_15
REMARK                            x       y       z     vdW  Elec       q    Type
REMARK                         _______ _______ _______ _____ _____    ______ ____
ROOT
ATOM      1  C   UNL     1      44.042   4.956  11.471  0.00  0.00    +0.000 C 
ATOM      2  C   UNL     1      42.883   5.018  12.458  0.00  0.00    +0.000 C 
ATOM      3  C   UNL     1      42.979   6.038  11.372  0.00  0.00    +0.000 C 
ENDROOT
BRANCH   1   8
ATOM      4  C   UNL     1      46.550   2.710   7.463  0.00  0.00    +0.000 A 
ATOM      5  C   UNL     1      46.220   4.042   7.645  0.00  0.00    +0.000 A 
ATOM      6  C   UNL     1      45.387   4.400   8.701  0.00  0.00    +0.000 A 
ATOM      7  C   UNL     1      44.963   3.434   9.601  0.00  0.00    +0.000 A 
ATOM      8  N   UNL     1      44.093   3.713  10.663  0.00  0.00    +0.000 N 
ATOM      9  N   UNL     1      45.274   2.128   9.425  0.00  0.00    +0.000 NA
ATOM     10  C   UNL     1      46.033   1.781   8.351  0.00  0.00    +0.000 A 
ATOM     11  H   UNL     1      44.059   2.843  11.198  0.00  0.00    +0.000 HD
BRANCH   4  13
ATOM     12  N   UNL     1      47.137   2.951   5.136  0.00  0.00    +0.000 N 
ATOM     13  C   UNL     1      47.366   2.275   6.310  0.00  0.00    +0.000 C 
ATOM     14  O   UNL     1      48.176   1.384   6.400  0.00  0.00    +0.000 OA
ATOM     15  H   UNL     1      47.700   2.689   4.336  0.00  0.00    +0.000 HD
ATOM     16  H   UNL     1      46.607   3.807   5.086  0.00  0.00    +0.000 HD
ENDBRANCH   4  13
ENDBRANCH   1   8
BRANCH   1  17
ATOM     17  C   UNL     1      45.423   5.379  11.937  0.00  0.00    +0.000 A 
ATOM     18  C   UNL     1      46.067   6.483  11.356  0.00  0.00    +0.000 A 
ATOM     19  C   UNL     1      47.218   7.021  11.919  0.00  0.00    +0.000 A 
ATOM     20  C   UNL     1      47.742   6.459  13.075  0.00  0.00    +0.000 A 
ATOM     21  C   UNL     1      47.128   5.355  13.691  0.00  0.00    +0.000 A 
ATOM     22  C   UNL     1      46.000   4.801  13.077  0.00  0.00    +0.000 A 
BRANCH  21  23
ATOM     23  C   UNL     1      47.547   4.907  15.025  0.00  0.00    +0.000 A 
ATOM     24  C   UNL     1      48.279   5.786  15.842  0.00  0.00    +0.000 A 
ATOM     25  C   UNL     1      48.648   5.436  17.134  0.00  0.00    +0.000 A 
ATOM     26  C   UNL     1      48.281   4.195  17.641  0.00  0.00    +0.000 A 
ATOM     27  C   UNL     1      47.544   3.309  16.858  0.00  0.00    +0.000 A 
ATOM     28  C   UNL     1      47.180   3.660  15.558  0.00  0.00    +0.000 A 
ENDBRANCH  21  23
ENDBRANCH   1  17
TORSDOF 4
ENDMDL
MODEL 3
REMARK VINA RESULT:    -6.994      4.382      7.961
REMARK INTER + INTRA:          -9.916
REMARK INTER:                 -10.024
REMARK INTRA:                   0.108
REMARK UNBOUND:                -1.286
REMARK  Name = 
REMARK  4 active torsions:
REMARK  status: ('A' for Active; 'I' for Inactive)
REMARK    1  A    between atoms: C_2  and  C_4
REMARK    2  A    between atoms: N_8  and  C_9
REMARK    3  A    between atoms: C_9  and  C_10
REMARK    4  A    between atoms: C_14  and  C_15
REMARK                            x       y       z     vdW  Elec       q    Type
REMARK                         _______ _______ _______ _____ _____    ______ ____
ROOT
ATOM      1  C   UNL     1      46.338   5.399  13.163  0.00  0.00    +0.000 C 
ATOM      2  C   UNL     1      47.546   6.225  12.740  0.00  0.00    +0.000 C 
ATOM      3  C   UNL     1      46.404   6.894  13.430  0.00  0.00    +0.000 C 
ENDROOT
BRANCH   1   8
ATOM      4  C   UNL     1      48.222   4.589  17.978  0.00  0.00    +0.000 A 
ATOM      5  C   UNL     1      48.598   5.543  17.047  0.00  0.00    +0.000 A 
ATOM      6  C   UNL     1      48.092   5.466  15.752  0.00  0.00    +0.000 A 
ATOM      7  C   UNL     1      47.162   4.489  15.432  0.00  0.00    +0.000 A 
ATOM      8  N   UNL     1      46.641   4.327  14.142  0.00  0.00    +0.000 N 
ATOM      9  N   UNL     1      46.797   3.549  16.335  0.00  0.00    +0.000 NA
ATOM     10  C   UNL     1      47.348   3.592  17.578  0.00  0.00    +0.000 A 
ATOM     11  H   UNL     1      45.915   3.616  14.250  0.00  0.00    +0.000 HD
BRANCH   4  13
ATOM     12  N   UNL     1      48.501   3.479  20.102  0.00  0.00    +0.000 N 
ATOM     13  C   UNL     1      48.795   4.585  19.341  0.00  0.00    +0.000 C 
ATOM     14  O   UNL     1      49.472   5.496  19.752  0.00  0.00    +0.000 OA
ATOM     15  H   UNL     1      48.902   3.440  21.031  0.00  0.00    +0.000 HD
ATOM     16  H   UNL     1      48.098   2.637  19.720  0.00  0.00    +0.000 HD
ENDBRANCH   4  13
ENDBRANCH   1   8
BRANCH   1  17
ATOM     17  C   UNL     1      45.366   4.926  12.097  0.00  0.00    +0.000 A 
ATOM     18  C   UNL     1      44.083   5.486  11.999  0.00  0.00    +0.000 A 
ATOM     19  C   UNL     1      43.271   5.235  10.900  0.00  0.00    +0.000 A 
ATOM     20  C   UNL     1      43.734   4.416   9.879  0.00  0.00    +0.000 A 
ATOM     21  C   UNL     1      45.014   3.837   9.934  0.00  0.00    +0.000 A 
ATOM     22  C   UNL     1      45.791   4.065  11.075  0.00  0.00    +0.000 A 
BRANCH  21  23
ATOM     23  C   UNL     1      45.587   3.163   8.763  0.00  0.00    +0.000 A 
ATOM     24  C   UNL     1      45.988   3.935   7.659  0.00  0.00    +0.000 A 
ATOM     25  C   UNL     1      46.591   3.357   6.550  0.00  0.00    +0.000 A 
ATOM     26  C   UNL     1      46.816   1.985   6.528  0.00  0.00    +0.000 A 
ATOM     27  C   UNL     1      46.441   1.197   7.614  0.00  0.00    +0.000 A 
ATOM     28  C   UNL     1      45.829   1.780   8.725  0.00  0.00    +0.000 A 
ENDBRANCH  21  23
ENDBRANCH   1  17
TORSDOF 4
ENDMDL
MODEL 4
REMARK VINA RESULT:    -6.993      3.333      6.775
REMARK INTER + INTRA:          -9.914
REMARK INTER:                  -8.765
REMARK INTRA:                  -1.149
REMARK UNBOUND:                -1.286
REMARK  Name = 
REMARK  4 active torsions:
REMARK  status: ('A' for Active; 'I' for Inactive)
REMARK    1  A    between atoms: C_2  and  C_4
REMARK    2  A    between atoms: N_8  and  C_9
REMARK    3  A    between atoms: C_9  and  C_10
REMARK    4  A    between atoms: C_14  and  C_15
REMARK                            x       y       z     vdW  Elec       q    Type
REMARK                         _______ _______ _______ _____ _____    ______ ____
ROOT
ATOM      1  C   UNL     1      46.121   5.100  13.417  0.00  0.00    +0.000 C 
ATOM      2  C   UNL     1      46.072   4.269  14.695  0.00  0.00    +0.000 C 
ATOM      3  C   UNL     1      47.227   4.115  13.762  0.00  0.00    +0.000 C 
ENDROOT
BRANCH   1   8
ATOM      4  C   UNL     1      48.330   9.504  11.653  0.00  0.00    +0.000 A 
ATOM      5  C   UNL     1      48.874   8.234  11.740  0.00  0.00    +0.000 A 
ATOM      6  C   UNL     1      48.173   7.237  12.413  0.00  0.00    +0.000 A 
ATOM      7  C   UNL     1      46.909   7.506  12.919  0.00  0.00    +0.000 A 
ATOM      8  N   UNL     1      46.163   6.565  13.641  0.00  0.00    +0.000 N 
ATOM      9  N   UNL     1      46.375   8.747  12.845  0.00  0.00    +0.000 NA
ATOM     10  C   UNL     1      47.098   9.730  12.245  0.00  0.00    +0.000 A 
ATOM     11  H   UNL     1      45.255   7.012  13.775  0.00  0.00    +0.000 HD
BRANCH   4  13
ATOM     12  N   UNL     1      48.308  11.516  10.322  0.00  0.00    +0.000 N 
ATOM     13  C   UNL     1      49.074  10.612  11.018  0.00  0.00    +0.000 C 
ATOM     14  O   UNL     1      50.275  10.709  11.106  0.00  0.00    +0.000 OA
ATOM     15  H   UNL     1      48.791  12.298   9.897  0.00  0.00    +0.000 HD
ATOM     16  H   UNL     1      47.302  11.556  10.389  0.00  0.00    +0.000 HD
ENDBRANCH   4  13
ENDBRANCH   1   8
BRANCH   1  17
ATOM     17  C   UNL     1      45.197   4.733  12.271  0.00  0.00    +0.000 A 
ATOM     18  C   UNL     1      43.943   5.351  12.136  0.00  0.00    +0.000 A 
ATOM     19  C   UNL     1      43.188   5.200  10.980  0.00  0.00    +0.000 A 
ATOM     20  C   UNL     1      43.679   4.427   9.938  0.00  0.00    +0.000 A 
ATOM     21  C   UNL     1      44.930   3.793  10.028  0.00  0.00    +0.000 A 
ATOM     22  C   UNL     1      45.647   3.919  11.222  0.00  0.00    +0.000 A 
BRANCH  21  23
ATOM     23  C   UNL     1      45.545   3.167   8.851  0.00  0.00    +0.000 A 
ATOM     24  C   UNL     1      46.023   3.987   7.813  0.00  0.00    +0.000 A 
ATOM     25  C   UNL     1      46.667   3.452   6.705  0.00  0.00    +0.000 A 
ATOM     26  C   UNL     1      46.856   2.077   6.618  0.00  0.00    +0.000 A 
ATOM     27  C   UNL     1      46.405   1.243   7.638  0.00  0.00    +0.000 A 
ATOM     28  C   UNL     1      45.753   1.782   8.747  0.00  0.00    +0.000 A 
ENDBRANCH  21  23
ENDBRANCH   1  17
TORSDOF 4
ENDMDL
MODEL 5
REMARK VINA RESULT:    -6.748      4.716      8.258
REMARK INTER + INTRA:          -9.612
REMARK INTER:                  -8.502
REMARK INTRA:                  -1.110
REMARK UNBOUND:                -1.286
REMARK  Name = 
REMARK  4 active torsions:
REMARK  status: ('A' for Active; 'I' for Inactive)
REMARK    1  A    between atoms: C_2  and  C_4
REMARK    2  A    between atoms: N_8  and  C_9
REMARK    3  A    between atoms: C_9  and  C_10
REMARK    4  A    between atoms: C_14  and  C_15
REMARK                            x       y       z     vdW  Elec       q    Type
REMARK                         _______ _______ _______ _____ _____    ______ ____
ROOT
ATOM      1  C   UNL     1      48.932   7.838  12.618  0.00  0.00    +0.000 C 
ATOM      2  C   UNL     1      49.873   7.984  11.427  0.00  0.00    +0.000 C 
ATOM      3  C   UNL     1      49.525   9.186  12.241  0.00  0.00    +0.000 C 
ENDROOT
BRANCH   1   8
ATOM      4  C   UNL     1      48.479   6.817  17.731  0.00  0.00    +0.000 A 
ATOM      5  C   UNL     1      48.427   8.038  17.081  0.00  0.00    +0.000 A 
ATOM      6  C   UNL     1      48.756   8.105  15.729  0.00  0.00    +0.000 A 
ATOM      7  C   UNL     1      49.054   6.942  15.035  0.00  0.00    +0.000 A 
ATOM      8  N   UNL     1      49.431   6.938  13.686  0.00  0.00    +0.000 N 
ATOM      9  N   UNL     1      49.115   5.746  15.666  0.00  0.00    +0.000 NA
ATOM     10  C   UNL     1      48.858   5.703  17.001  0.00  0.00    +0.000 A 
ATOM     11  H   UNL     1      49.472   5.947  13.438  0.00  0.00    +0.000 HD
BRANCH   4  13
ATOM     12  N   UNL     1      47.368   5.697  19.556  0.00  0.00    +0.000 N 
ATOM     13  C   UNL     1      48.216   6.712  19.181  0.00  0.00    +0.000 C 
ATOM     14  O   UNL     1      48.714   7.471  19.978  0.00  0.00    +0.000 OA
ATOM     15  H   UNL     1      47.190   5.589  20.548  0.00  0.00    +0.000 HD
ATOM     16  H   UNL     1      47.093   4.950  18.937  0.00  0.00    +0.000 HD
ENDBRANCH   4  13
ENDBRANCH   1   8
BRANCH   1  17
ATOM     17  C   UNL     1      47.451   7.633  12.358  0.00  0.00    +0.000 A 
ATOM     18  C   UNL     1      46.548   8.701  12.480  0.00  0.00    +0.000 A 
ATOM     19  C   UNL     1      45.239   8.591  12.028  0.00  0.00    +0.000 A 
ATOM     20  C   UNL     1      44.813   7.406  11.445  0.00  0.00    +0.000 A 
ATOM     21  C   UNL     1      45.685   6.312  11.299  0.00  0.00    +0.000 A 
ATOM     22  C   UNL     1      46.982   6.431  11.808  0.00  0.00    +0.000 A 
BRANCH  21  23
ATOM     23  C   UNL     1      45.306   5.150  10.486  0.00  0.00    +0.000 A 
ATOM     24  C   UNL     1      45.700   5.103   9.137  0.00  0.00    +0.000 A 
ATOM     25  C   UNL     1      45.421   4.001   8.339  0.00  0.00    +0.000 A 
ATOM     26  C   UNL     1      44.747   2.913   8.881  0.00  0.00    +0.000 A 
ATOM     27  C   UNL     1      44.356   2.927  10.218  0.00  0.00    +0.000 A 
ATOM     28  C   UNL     1      44.632   4.038  11.017  0.00  0.00    +0.000 A 
ENDBRANCH  21  23
ENDBRANCH   1  17
TORSDOF 4
ENDMDL
MODEL 6
REMARK VINA RESULT:    -6.648      4.000      7.464
REMARK INTER + INTRA:          -9.488
REMARK INTER:                  -9.325
REMARK INTRA:                  -0.163
REMARK UNBOUND:                -1.286
REMARK  Name = 
REMARK  4 active torsions:
REMARK  status: ('A' for Active; 'I' for Inactive)
REMARK    1  A    between atoms: C_2  and  C_4
REMARK    2  A    between atoms: N_8  and  C_9
REMARK    3  A    between atoms: C_9  and  C_10
REMARK    4  A    between atoms: C_14  and  C_15
REMARK                            x       y       z     vdW  Elec       q    Type
REMARK                         _______ _______ _______ _____ _____    ______ ____
ROOT
ATOM      1  C   UNL     1      48.204   7.728  12.728  0.00  0.00    +0.000 C 
ATOM      2  C   UNL     1      49.386   7.201  11.924  0.00  0.00    +0.000 C 
ATOM      3  C   UNL     1      49.011   8.643  11.821  0.00  0.00    +0.000 C 
ENDROOT
BRANCH   1   8
ATOM      4  C   UNL     1      47.956   4.274  16.653  0.00  0.00    +0.000 A 
ATOM      5  C   UNL     1      47.190   4.337  15.501  0.00  0.00    +0.000 A 
ATOM      6  C   UNL     1      47.298   5.450  14.671  0.00  0.00    +0.000 A 
ATOM      7  C   UNL     1      48.223   6.440  14.964  0.00  0.00    +0.000 A 
ATOM      8  N   UNL     1      48.360   7.605  14.198  0.00  0.00    +0.000 N 
ATOM      9  N   UNL     1      48.969   6.389  16.093  0.00  0.00    +0.000 NA
ATOM     10  C   UNL     1      48.807   5.331  16.931  0.00  0.00    +0.000 A 
ATOM     11  H   UNL     1      49.179   8.072  14.591  0.00  0.00    +0.000 HD
BRANCH   4  13
ATOM     12  N   UNL     1      48.929   2.874  18.360  0.00  0.00    +0.000 N 
ATOM     13  C   UNL     1      47.816   3.151  17.603  0.00  0.00    +0.000 C 
ATOM     14  O   UNL     1      46.790   2.521  17.701  0.00  0.00    +0.000 OA
ATOM     15  H   UNL     1      48.851   2.124  19.036  0.00  0.00    +0.000 HD
ATOM     16  H   UNL     1      49.721   3.495  18.424  0.00  0.00    +0.000 HD
ENDBRANCH   4  13
ENDBRANCH   1   8
BRANCH   1  17
ATOM     17  C   UNL     1      46.798   7.371  12.281  0.00  0.00    +0.000 A 
ATOM     18  C   UNL     1      45.772   8.329  12.311  0.00  0.00    +0.000 A 
ATOM     19  C   UNL     1      44.549   8.091  11.697  0.00  0.00    +0.000 A 
ATOM     20  C   UNL     1      44.334   6.887  11.042  0.00  0.00    +0.000 A 
ATOM     21  C   UNL     1      45.334   5.901  10.985  0.00  0.00    +0.000 A 
ATOM     22  C   UNL     1      46.538   6.144  11.654  0.00  0.00    +0.000 A 
BRANCH  21  23
ATOM     23  C   UNL     1      45.191   4.732  10.108  0.00  0.00    +0.000 A 
ATOM     24  C   UNL     1      45.712   4.789   8.803  0.00  0.00    +0.000 A 
ATOM     25  C   UNL     1      45.658   3.693   7.952  0.00  0.00    +0.000 A 
ATOM     26  C   UNL     1      45.087   2.506   8.397  0.00  0.00    +0.000 A 
ATOM     27  C   UNL     1      44.575   2.417   9.690  0.00  0.00    +0.000 A 
ATOM     28  C   UNL     1      44.625   3.522  10.541  0.00  0.00    +0.000 A 
ENDBRANCH  21  23
ENDBRANCH   1  17
TORSDOF 4
ENDMDL
MODEL 7
REMARK VINA RESULT:    -6.490      3.512      5.921
REMARK INTER + INTRA:          -9.294
REMARK INTER:                  -8.691
REMARK INTRA:                  -0.603
REMARK UNBOUND:                -1.286
REMARK  Name = 
REMARK  4 active torsions:
REMARK  status: ('A' for Active; 'I' for Inactive)
REMARK    1  A    between atoms: C_2  and  C_4
REMARK    2  A    between atoms: N_8  and  C_9
REMARK    3  A    between atoms: C_9  and  C_10
REMARK    4  A    between atoms: C_14  and  C_15
REMARK                            x       y       z     vdW  Elec       q    Type
REMARK                         _______ _______ _______ _____ _____    ______ ____
ROOT
ATOM      1  C   UNL     1      47.485   8.421  13.301  0.00  0.00    +0.000 C 
ATOM      2  C   UNL     1      47.692   9.751  12.586  0.00  0.00    +0.000 C 
ATOM      3  C   UNL     1      48.398   8.532  12.090  0.00  0.00    +0.000 C 
ENDROOT
BRANCH   1   8
ATOM      4  C   UNL     1      44.430   4.620  11.399  0.00  0.00    +0.000 A 
ATOM      5  C   UNL     1      45.518   5.239  10.806  0.00  0.00    +0.000 A 
ATOM      6  C   UNL     1      46.080   6.358  11.414  0.00  0.00    +0.000 A 
ATOM      7  C   UNL     1      45.596   6.792  12.640  0.00  0.00    +0.000 A 
ATOM      8  N   UNL     1      46.085   7.932  13.290  0.00  0.00    +0.000 N 
ATOM      9  N   UNL     1      44.527   6.197  13.220  0.00  0.00    +0.000 NA
ATOM     10  C   UNL     1      43.944   5.146  12.584  0.00  0.00    +0.000 A 
ATOM     11  H   UNL     1      45.618   7.924  14.199  0.00  0.00    +0.000 HD
BRANCH   4  13
ATOM     12  N   UNL     1      44.012   3.323   9.408  0.00  0.00    +0.000 N 
ATOM     13  C   UNL     1      43.753   3.479  10.748  0.00  0.00    +0.000 C 
ATOM     14  O   UNL     1      43.021   2.737  11.360  0.00  0.00    +0.000 OA
ATOM     15  H   UNL     1      43.580   2.534   8.944  0.00  0.00    +0.000 HD
ATOM     16  H   UNL     1      44.753   3.812   8.928  0.00  0.00    +0.000 HD
ENDBRANCH   4  13
ENDBRANCH   1   8
BRANCH   1  17
ATOM     17  C   UNL     1      48.144   8.206  14.651  0.00  0.00    +0.000 A 
ATOM     18  C   UNL     1      48.171   9.234  15.606  0.00  0.00    +0.000 A 
ATOM     19  C   UNL     1      48.560   8.988  16.917  0.00  0.00    +0.000 A 
ATOM     20  C   UNL     1      48.929   7.704  17.291  0.00  0.00    +0.000 A 
ATOM     21  C   UNL     1      48.914   6.643  16.368  0.00  0.00    +0.000 A 
ATOM     22  C   UNL     1      48.567   6.928  15.044  0.00  0.00    +0.000 A 
BRANCH  21  23
ATOM     23  C   UNL     1      49.083   5.255  16.813  0.00  0.00    +0.000 A 
ATOM     24  C   UNL     1      48.025   4.346  16.633  0.00  0.00    +0.000 A 
ATOM     25  C   UNL     1      48.153   3.007  16.980  0.00  0.00    +0.000 A 
ATOM     26  C   UNL     1      49.354   2.545  17.507  0.00  0.00    +0.000 A 
ATOM     27  C   UNL     1      50.423   3.421  17.684  0.00  0.00    +0.000 A 
ATOM     28  C   UNL     1      50.290   4.767  17.341  0.00  0.00    +0.000 A 
ENDBRANCH  21  23
ENDBRANCH   1  17
TORSDOF 4
ENDMDL
MODEL 8
REMARK VINA RESULT:    -6.289      3.815      6.570
REMARK INTER + INTRA:          -9.046
REMARK INTER:                  -7.920
REMARK INTRA:                  -1.126
REMARK UNBOUND:                -1.286
REMARK  Name = 
REMARK  4 active torsions:
REMARK  status: ('A' for Active; 'I' for Inactive)
REMARK    1  A    between atoms: C_2  and  C_4
REMARK    2  A    between atoms: N_8  and  C_9
REMARK    3  A    between atoms: C_9  and  C_10
REMARK    4  A    between atoms: C_14  and  C_15
REMARK                            x       y       z     vdW  Elec       q    Type
REMARK                         _______ _______ _______ _____ _____    ______ ____
ROOT
ATOM      1  C   UNL     1      48.987   8.360  12.585  0.00  0.00    +0.000 C 
ATOM      2  C   UNL     1      49.813   9.430  11.881  0.00  0.00    +0.000 C 
ATOM      3  C   UNL     1      50.260   8.007  11.832  0.00  0.00    +0.000 C 
ENDROOT
BRANCH   1   8
ATOM      4  C   UNL     1      44.797   5.230  12.769  0.00  0.00    +0.000 A 
ATOM      5  C   UNL     1      46.138   4.888  12.797  0.00  0.00    +0.000 A 
ATOM      6  C   UNL     1      47.096   5.868  12.551  0.00  0.00    +0.000 A 
ATOM      7  C   UNL     1      46.702   7.184  12.360  0.00  0.00    +0.000 A 
ATOM      8  N   UNL     1      47.605   8.215  12.069  0.00  0.00    +0.000 N 
ATOM      9  N   UNL     1      45.392   7.523  12.323  0.00  0.00    +0.000 NA
ATOM     10  C   UNL     1      44.462   6.546  12.497  0.00  0.00    +0.000 A 
ATOM     11  H   UNL     1      47.037   9.064  12.096  0.00  0.00    +0.000 HD
BRANCH   4  13
ATOM     12  N   UNL     1      44.114   2.920  12.638  0.00  0.00    +0.000 N 
ATOM     13  C   UNL     1      43.745   4.207  12.945  0.00  0.00    +0.000 C 
ATOM     14  O   UNL     1      42.636   4.491  13.332  0.00  0.00    +0.000 OA
ATOM     15  H   UNL     1      43.418   2.196  12.774  0.00  0.00    +0.000 HD
ATOM     16  H   UNL     1      45.072   2.640  12.494  0.00  0.00    +0.000 HD
ENDBRANCH   4  13
ENDBRANCH   1   8
BRANCH   1  17
ATOM     17  C   UNL     1      49.032   8.282  14.100  0.00  0.00    +0.000 A 
ATOM     18  C   UNL     1      48.634   9.376  14.886  0.00  0.00    +0.000 A 
ATOM     19  C   UNL     1      48.450   9.247  16.257  0.00  0.00    +0.000 A 
ATOM     20  C   UNL     1      48.661   8.017  16.863  0.00  0.00    +0.000 A 
ATOM     21  C   UNL     1      49.056   6.894  16.115  0.00  0.00    +0.000 A 
ATOM     22  C   UNL     1      49.284   7.063  14.745  0.00  0.00    +0.000 A 
BRANCH  21  23
ATOM     23  C   UNL     1      49.060   5.553  16.712  0.00  0.00    +0.000 A 
ATOM     24  C   UNL     1      47.943   4.719  16.525  0.00  0.00    +0.000 A 
ATOM     25  C   UNL     1      47.918   3.420  17.016  0.00  0.00    +0.000 A 
ATOM     26  C   UNL     1      49.022   2.923  17.700  0.00  0.00    +0.000 A 
ATOM     27  C   UNL     1      50.147   3.723  17.889  0.00  0.00    +0.000 A 
ATOM     28  C   UNL     1      50.167   5.030  17.400  0.00  0.00    +0.000 A 
ENDBRANCH  21  23
ENDBRANCH   1  17
TORSDOF 4
ENDMDL
