MODEL 1
REMARK VINA RESULT:    -9.256      0.000      0.000
REMARK INTER + INTRA:         -11.983
REMARK INTER:                 -11.420
REMARK INTRA:                  -0.563
REMARK UNBOUND:                -0.563
REMARK  Name = 
REMARK  4 active torsions:
REMARK  status: ('A' for Active; 'I' for Inactive)
REMARK    1  A    between atoms: C_2  and  C_4
REMARK    2  A    between atoms: N_8  and  C_9
REMARK    3  A    between atoms: C_9  and  C_10
REMARK    4  A    between atoms: C_14  and  C_15
REMARK                            x       y       z     vdW  Elec       q    Type
REMARK                         _______ _______ _______ _____ _____    ______ ____
ROOT
ATOM      1  C   UNL     1      45.155   5.022  12.061  0.00  0.00    +0.000 A 
ATOM      2  C   UNL     1      45.727   6.244  11.680  0.00  0.00    +0.000 A 
ATOM      3  C   UNL     1      46.805   6.768  12.382  0.00  0.00    +0.000 A 
ATOM      4  C   UNL     1      47.299   6.092  13.498  0.00  0.00    +0.000 A 
ATOM      5  C   UNL     1      46.719   4.892  13.951  0.00  0.00    +0.000 A 
ATOM      6  C   UNL     1      45.660   4.355  13.193  0.00  0.00    +0.000 A 
ENDROOT
BRANCH   5   7
ATOM      7  C   UNL     1      47.164   4.257  15.213  0.00  0.00    +0.000 A 
ATOM      8  C   UNL     1      46.772   4.747  16.445  0.00  0.00    +0.000 A 
ATOM      9  C   UNL     1      47.229   4.071  17.549  0.00  0.00    +0.000 A 
ATOM     10  N   UNL     1      48.010   2.985  17.472  0.00  0.00    +0.000 NA
ATOM     11  C   UNL     1      48.315   2.559  16.244  0.00  0.00    +0.000 A 
ATOM     12  N   UNL     1      49.117   1.440  16.158  0.00  0.00    +0.000 N 
ATOM     13  N   UNL     1      47.938   3.154  15.107  0.00  0.00    +0.000 NA
ATOM     14  H   UNL     1      49.642   1.343  17.017  0.00  0.00    +0.000 HD
ATOM     15  H   UNL     1      49.640   1.460  15.295  0.00  0.00    +0.000 HD
ENDBRANCH   5   7
BRANCH   1  16
ATOM     16  C   UNL     1      43.942   4.502  11.322  0.00  0.00    +0.000 C 
BRANCH  16  21
ATOM     17  C   UNL     1      46.435   2.336   7.648  0.00  0.00    +0.000 A 
ATOM     18  C   UNL     1      45.713   1.870   8.717  0.00  0.00    +0.000 A 
ATOM     19  N   UNL     1      44.938   2.657   9.490  0.00  0.00    +0.000 NA
ATOM     20  C   UNL     1      44.891   3.965   9.192  0.00  0.00    +0.000 A 
ATOM     21  N   UNL     1      44.060   4.802   9.908  0.00  0.00    +0.000 N 
ATOM     22  N   UNL     1      45.583   4.521   8.188  0.00  0.00    +0.000 NA
ATOM     23  C   UNL     1      46.351   3.693   7.437  0.00  0.00    +0.000 A 
ATOM     24  H   UNL     1      44.312   5.759   9.693  0.00  0.00    +0.000 HD
BRANCH  17  26
ATOM     25  N   UNL     1      48.274   2.079   6.087  0.00  0.00    +0.000 N 
ATOM     26  C   UNL     1      47.271   1.480   6.799  0.00  0.00    +0.000 C 
ATOM     27  O   UNL     1      47.093   0.271   6.754  0.00  0.00    +0.000 OA
ATOM     28  H   UNL     1      48.893   1.459   5.578  0.00  0.00    +0.000 HD
ATOM     29  H   UNL     1      48.619   3.008   6.283  0.00  0.00    +0.000 HD
ENDBRANCH  17  26
ENDBRANCH  16  21
ENDBRANCH   1  16
TORSDOF 4
ENDMDL
MODEL 2
REMARK VINA RESULT:    -9.243      3.009      4.440
REMARK INTER + INTRA:         -11.967
REMARK INTER:                 -11.283
REMARK INTRA:                  -0.683
REMARK UNBOUND:                -0.563
REMARK  Name = 
REMARK  4 active torsions:
REMARK  status: ('A' for Active; 'I' for Inactive)
REMARK    1  A    between atoms: C_2  and  C_4
REMARK    2  A    between atoms: N_8  and  C_9
REMARK    3  A    between atoms: C_9  and  C_10
REMARK    4  A    between atoms: C_14  and  C_15
REMARK                            x       y       z     vdW  Elec       q    Type
REMARK                         _______ _______ _______ _____ _____    ______ ____
ROOT
ATOM      1  C   UNL     1      44.728   4.902  12.009  0.00  0.00    +0.000 A 
ATOM      2  C   UNL     1      45.360   3.993  12.869  0.00  0.00    +0.000 A 
ATOM      3  C   UNL     1      46.474   4.376  13.606  0.00  0.00    +0.000 A 
ATOM      4  C   UNL     1      46.990   5.663  13.460  0.00  0.00    +0.000 A 
ATOM      5  C   UNL     1      46.424   6.591  12.565  0.00  0.00    +0.000 A 
ATOM      6  C   UNL     1      45.264   6.195  11.868  0.00  0.00    +0.000 A 
ENDROOT
BRANCH   5   7
ATOM      7  C   UNL     1      47.062   7.904  12.319  0.00  0.00    +0.000 A 
ATOM      8  C   UNL     1      48.397   8.005  11.977  0.00  0.00    +0.000 A 
ATOM      9  C   UNL     1      48.880   9.271  11.755  0.00  0.00    +0.000 A 
ATOM     10  N   UNL     1      48.123  10.372  11.849  0.00  0.00    +0.000 NA
ATOM     11  C   UNL     1      46.837  10.183  12.152  0.00  0.00    +0.000 A 
ATOM     12  N   UNL     1      46.050  11.313  12.248  0.00  0.00    +0.000 N 
ATOM     13  N   UNL     1      46.271   8.997  12.405  0.00  0.00    +0.000 NA
ATOM     14  H   UNL     1      46.641  12.110  12.438  0.00  0.00    +0.000 HD
ATOM     15  H   UNL     1      45.283  11.142  12.881  0.00  0.00    +0.000 HD
ENDBRANCH   5   7
BRANCH   1  16
ATOM     16  C   UNL     1      43.555   4.445  11.169  0.00  0.00    +0.000 C 
BRANCH  16  21
ATOM     17  C   UNL     1      46.396   2.340   7.719  0.00  0.00    +0.000 A 
ATOM     18  C   UNL     1      45.586   1.856   8.716  0.00  0.00    +0.000 A 
ATOM     19  N   UNL     1      44.735   2.627   9.420  0.00  0.00    +0.000 NA
ATOM     20  C   UNL     1      44.699   3.937   9.129  0.00  0.00    +0.000 A 
ATOM     21  N   UNL     1      43.797   4.758   9.773  0.00  0.00    +0.000 N 
ATOM     22  N   UNL     1      45.472   4.509   8.195  0.00  0.00    +0.000 NA
ATOM     23  C   UNL     1      46.314   3.697   7.511  0.00  0.00    +0.000 A 
ATOM     24  H   UNL     1      44.055   5.720   9.589  0.00  0.00    +0.000 HD
BRANCH  17  26
ATOM     25  N   UNL     1      48.462   2.082   6.474  0.00  0.00    +0.000 N 
ATOM     26  C   UNL     1      47.316   1.501   6.943  0.00  0.00    +0.000 C 
ATOM     27  O   UNL     1      47.077   0.316   6.748  0.00  0.00    +0.000 OA
ATOM     28  H   UNL     1      49.123   1.464   6.017  0.00  0.00    +0.000 HD
ATOM     29  H   UNL     1      48.822   2.962   6.816  0.00  0.00    +0.000 HD
ENDBRANCH  17  26
ENDBRANCH  16  21
ENDBRANCH   1  16
TORSDOF 4
ENDMDL
MODEL 3
REMARK VINA RESULT:    -9.214      0.976      1.112
REMARK INTER + INTRA:         -11.931
REMARK INTER:                 -11.436
REMARK INTRA:                  -0.495
REMARK UNBOUND:                -0.563
REMARK  Name = 
REMARK  4 active torsions:
REMARK  status: ('A' for Active; 'I' for Inactive)
REMARK    1  A    between atoms: C_2  and  C_4
REMARK    2  A    between atoms: N_8  and  C_9
REMARK    3  A    between atoms: C_9  and  C_10
REMARK    4  A    between atoms: C_14  and  C_15
REMARK                            x       y       z     vdW  Elec       q    Type
REMARK                         _______ _______ _______ _____ _____    ______ ____
ROOT
ATOM      1  C   UNL     1      45.595   5.286  12.076  0.00  0.00    +0.000 A 
ATOM      2  C   UNL     1      46.192   6.401  11.469  0.00  0.00    +0.000 A 
ATOM      3  C   UNL     1      47.274   7.034  12.067  0.00  0.00    +0.000 A 
ATOM      4  C   UNL     1      47.747   6.581  13.299  0.00  0.00    +0.000 A 
ATOM      5  C   UNL     1      47.141   5.503  13.972  0.00  0.00    +0.000 A 
ATOM      6  C   UNL     1      46.079   4.846  13.321  0.00  0.00    +0.000 A 
ENDROOT
BRANCH   5   7
ATOM      7  C   UNL     1      47.564   5.120  15.339  0.00  0.00    +0.000 A 
ATOM      8  C   UNL     1      48.493   5.864  16.042  0.00  0.00    +0.000 A 
ATOM      9  C   UNL     1      48.799   5.428  17.308  0.00  0.00    +0.000 A 
ATOM     10  N   UNL     1      48.239   4.345  17.865  0.00  0.00    +0.000 NA
ATOM     11  C   UNL     1      47.329   3.703  17.130  0.00  0.00    +0.000 A 
ATOM     12  N   UNL     1      46.748   2.588  17.699  0.00  0.00    +0.000 N 
ATOM     13  N   UNL     1      46.973   4.033  15.883  0.00  0.00    +0.000 NA
ATOM     14  H   UNL     1      47.361   2.226  18.416  0.00  0.00    +0.000 HD
ATOM     15  H   UNL     1      46.453   1.950  16.975  0.00  0.00    +0.000 HD
ENDBRANCH   5   7
BRANCH   1  16
ATOM     16  C   UNL     1      44.378   4.652  11.438  0.00  0.00    +0.000 C 
BRANCH  16  21
ATOM     17  C   UNL     1      46.547   2.484   7.566  0.00  0.00    +0.000 A 
ATOM     18  C   UNL     1      45.935   2.018   8.702  0.00  0.00    +0.000 A 
ATOM     19  N   UNL     1      45.224   2.802   9.537  0.00  0.00    +0.000 NA
ATOM     20  C   UNL     1      45.132   4.107   9.233  0.00  0.00    +0.000 A 
ATOM     21  N   UNL     1      44.359   4.940  10.017  0.00  0.00    +0.000 N 
ATOM     22  N   UNL     1      45.719   4.662   8.164  0.00  0.00    +0.000 NA
ATOM     23  C   UNL     1      46.425   3.837   7.352  0.00  0.00    +0.000 A 
ATOM     24  H   UNL     1      44.577   5.898   9.771  0.00  0.00    +0.000 HD
BRANCH  17  26
ATOM     25  N   UNL     1      48.288   2.224   5.897  0.00  0.00    +0.000 N 
ATOM     26  C   UNL     1      47.313   1.631   6.650  0.00  0.00    +0.000 C 
ATOM     27  O   UNL     1      47.103   0.427   6.585  0.00  0.00    +0.000 OA
ATOM     28  H   UNL     1      48.862   1.603   5.337  0.00  0.00    +0.000 HD
ATOM     29  H   UNL     1      48.667   3.140   6.095  0.00  0.00    +0.000 HD
ENDBRANCH  17  26
ENDBRANCH  16  21
ENDBRANCH   1  16
TORSDOF 4
ENDMDL
MODEL 4
REMARK VINA RESULT:    -8.263      1.376      1.967
REMARK INTER + INTRA:         -10.757
REMARK INTER:                 -10.391
REMARK INTRA:                  -0.367
REMARK UNBOUND:                -0.563
REMARK  Name = 
REMARK  4 active torsions:
REMARK  status: ('A' for Active; 'I' for Inactive)
REMARK    1  A    between atoms: C_2  and  C_4
REMARK    2  A    between atoms: N_8  and  C_9
REMARK    3  A    between atoms: C_9  and  C_10
REMARK    4  A    between atoms: C_14  and  C_15
REMARK                            x       y       z     vdW  Elec       q    Type
REMARK                         _______ _______ _______ _____ _____    ______ ____
ROOT
ATOM      1  C   UNL     1      44.465   4.922  11.440  0.00  0.00    +0.000 A 
ATOM      2  C   UNL     1      44.147   6.253  11.137  0.00  0.00    +0.000 A 
ATOM      3  C   UNL     1      44.790   7.298  11.789  0.00  0.00    +0.000 A 
ATOM      4  C   UNL     1      45.733   7.021  12.778  0.00  0.00    +0.000 A 
ATOM      5  C   UNL     1      46.042   5.700  13.155  0.00  0.00    +0.000 A 
ATOM      6  C   UNL     1      45.414   4.658  12.444  0.00  0.00    +0.000 A 
ENDROOT
BRANCH   5   7
ATOM      7  C   UNL     1      46.942   5.422  14.298  0.00  0.00    +0.000 A 
ATOM      8  C   UNL     1      48.039   6.219  14.564  0.00  0.00    +0.000 A 
ATOM      9  C   UNL     1      48.794   5.880  15.659  0.00  0.00    +0.000 A 
ATOM     10  N   UNL     1      48.507   4.841  16.454  0.00  0.00    +0.000 NA
ATOM     11  C   UNL     1      47.412   4.143  16.146  0.00  0.00    +0.000 A 
ATOM     12  N   UNL     1      47.110   3.072  16.962  0.00  0.00    +0.000 N 
ATOM     13  N   UNL     1      46.620   4.377  15.094  0.00  0.00    +0.000 NA
ATOM     14  H   UNL     1      47.951   2.767  17.431  0.00  0.00    +0.000 HD
ATOM     15  H   UNL     1      46.592   2.380  16.440  0.00  0.00    +0.000 HD
ENDBRANCH   5   7
BRANCH   1  16
ATOM     16  C   UNL     1      43.706   3.800  10.764  0.00  0.00    +0.000 C 
BRANCH  16  21
ATOM     17  C   UNL     1      46.801   2.422   7.168  0.00  0.00    +0.000 A 
ATOM     18  C   UNL     1      46.502   3.622   7.764  0.00  0.00    +0.000 A 
ATOM     19  N   UNL     1      45.757   3.730   8.882  0.00  0.00    +0.000 NA
ATOM     20  C   UNL     1      45.281   2.597   9.421  0.00  0.00    +0.000 A 
ATOM     21  N   UNL     1      44.571   2.647  10.604  0.00  0.00    +0.000 N 
ATOM     22  N   UNL     1      45.492   1.382   8.898  0.00  0.00    +0.000 NA
ATOM     23  C   UNL     1      46.245   1.319   7.772  0.00  0.00    +0.000 A 
ATOM     24  H   UNL     1      44.119   1.751  10.741  0.00  0.00    +0.000 HD
BRANCH  17  26
ATOM     25  N   UNL     1      47.356   3.158   4.925  0.00  0.00    +0.000 N 
ATOM     26  C   UNL     1      47.619   2.300   5.957  0.00  0.00    +0.000 C 
ATOM     27  O   UNL     1      48.523   1.479   5.886  0.00  0.00    +0.000 OA
ATOM     28  H   UNL     1      47.988   3.115   4.134  0.00  0.00    +0.000 HD
ATOM     29  H   UNL     1      46.809   4.002   5.026  0.00  0.00    +0.000 HD
ENDBRANCH  17  26
ENDBRANCH  16  21
ENDBRANCH   1  16
TORSDOF 4
ENDMDL
MODEL 5
REMARK VINA RESULT:    -7.742      3.162      8.110
REMARK INTER + INTRA:         -10.115
REMARK INTER:                  -9.649
REMARK INTRA:                  -0.467
REMARK UNBOUND:                -0.563
REMARK  Name = 
REMARK  4 active torsions:
REMARK  status: ('A' for Active; 'I' for Inactive)
REMARK    1  A    between atoms: C_2  and  C_4
REMARK    2  A    between atoms: N_8  and  C_9
REMARK    3  A    between atoms: C_9  and  C_10
REMARK    4  A    between atoms: C_14  and  C_15
REMARK                            x       y       z     vdW  Elec       q    Type
REMARK                         _______ _______ _______ _____ _____    ______ ____
ROOT
ATOM      1  C   UNL     1      44.927   4.025  11.916  0.00  0.00    +0.000 A 
ATOM      2  C   UNL     1      43.953   4.976  11.583  0.00  0.00    +0.000 A 
ATOM      3  C   UNL     1      43.551   5.144  10.264  0.00  0.00    +0.000 A 
ATOM      4  C   UNL     1      44.150   4.387   9.257  0.00  0.00    +0.000 A 
ATOM      5  C   UNL     1      45.173   3.461   9.537  0.00  0.00    +0.000 A 
ATOM      6  C   UNL     1      45.526   3.273  10.888  0.00  0.00    +0.000 A 
ENDROOT
BRANCH   5   7
ATOM      7  C   UNL     1      45.893   2.765   8.446  0.00  0.00    +0.000 A 
ATOM      8  C   UNL     1      46.471   3.462   7.402  0.00  0.00    +0.000 A 
ATOM      9  C   UNL     1      47.128   2.716   6.455  0.00  0.00    +0.000 A 
ATOM     10  N   UNL     1      47.230   1.382   6.513  0.00  0.00    +0.000 NA
ATOM     11  C   UNL     1      46.672   0.790   7.572  0.00  0.00    +0.000 A 
ATOM     12  N   UNL     1      46.775  -0.584   7.639  0.00  0.00    +0.000 N 
ATOM     13  N   UNL     1      45.995   1.419   8.539  0.00  0.00    +0.000 NA
ATOM     14  H   UNL     1      46.927  -0.949   6.709  0.00  0.00    +0.000 HD
ATOM     15  H   UNL     1      45.999  -0.960   8.164  0.00  0.00    +0.000 HD
ENDBRANCH   5   7
BRANCH   1  16
ATOM     16  C   UNL     1      45.395   3.903  13.350  0.00  0.00    +0.000 C 
BRANCH  16  21
ATOM     17  C   UNL     1      48.618   4.150  17.085  0.00  0.00    +0.000 A 
ATOM     18  C   UNL     1      47.900   3.133  16.509  0.00  0.00    +0.000 A 
ATOM     19  N   UNL     1      47.223   3.266  15.351  0.00  0.00    +0.000 NA
ATOM     20  C   UNL     1      47.253   4.466  14.750  0.00  0.00    +0.000 A 
ATOM     21  N   UNL     1      46.634   4.636  13.528  0.00  0.00    +0.000 N 
ATOM     22  N   UNL     1      47.900   5.528  15.248  0.00  0.00    +0.000 NA
ATOM     23  C   UNL     1      48.567   5.351  16.415  0.00  0.00    +0.000 A 
ATOM     24  H   UNL     1      46.575   5.629  13.337  0.00  0.00    +0.000 HD
BRANCH  17  26
ATOM     25  N   UNL     1      48.649   3.744  19.476  0.00  0.00    +0.000 N 
ATOM     26  C   UNL     1      49.364   4.006  18.340  0.00  0.00    +0.000 C 
ATOM     27  O   UNL     1      50.585   4.090  18.361  0.00  0.00    +0.000 OA
ATOM     28  H   UNL     1      49.190   3.561  20.314  0.00  0.00    +0.000 HD
ATOM     29  H   UNL     1      47.693   3.416  19.470  0.00  0.00    +0.000 HD
ENDBRANCH  17  26
ENDBRANCH  16  21
ENDBRANCH   1  16
TORSDOF 4
ENDMDL
MODEL 6
REMARK VINA RESULT:    -7.708      3.487      7.861
REMARK INTER + INTRA:         -10.073
REMARK INTER:                  -9.452
REMARK INTRA:                  -0.621
REMARK UNBOUND:                -0.563
REMARK  Name = 
REMARK  4 active torsions:
REMARK  status: ('A' for Active; 'I' for Inactive)
REMARK    1  A    between atoms: C_2  and  C_4
REMARK    2  A    between atoms: N_8  and  C_9
REMARK    3  A    between atoms: C_9  and  C_10
REMARK    4  A    between atoms: C_14  and  C_15
REMARK                            x       y       z     vdW  Elec       q    Type
REMARK                         _______ _______ _______ _____ _____    ______ ____
ROOT
ATOM      1  C   UNL     1      47.988   6.553  14.347  0.00  0.00    +0.000 A 
ATOM      2  C   UNL     1      48.740   7.326  13.451  0.00  0.00    +0.000 A 
ATOM      3  C   UNL     1      48.377   7.408  12.112  0.00  0.00    +0.000 A 
ATOM      4  C   UNL     1      47.279   6.685  11.648  0.00  0.00    +0.000 A 
ATOM      5  C   UNL     1      46.529   5.851  12.499  0.00  0.00    +0.000 A 
ATOM      6  C   UNL     1      46.886   5.825  13.862  0.00  0.00    +0.000 A 
ENDROOT
BRANCH   5   7
ATOM      7  C   UNL     1      45.452   4.985  11.967  0.00  0.00    +0.000 A 
ATOM      8  C   UNL     1      44.665   4.215  12.803  0.00  0.00    +0.000 A 
ATOM      9  C   UNL     1      43.684   3.464  12.203  0.00  0.00    +0.000 A 
ATOM     10  N   UNL     1      43.469   3.459  10.881  0.00  0.00    +0.000 NA
ATOM     11  C   UNL     1      44.253   4.255  10.150  0.00  0.00    +0.000 A 
ATOM     12  N   UNL     1      44.035   4.256   8.787  0.00  0.00    +0.000 N 
ATOM     13  N   UNL     1      45.246   5.011  10.630  0.00  0.00    +0.000 NA
ATOM     14  H   UNL     1      43.579   3.393   8.526  0.00  0.00    +0.000 HD
ATOM     15  H   UNL     1      44.889   4.494   8.305  0.00  0.00    +0.000 HD
ENDBRANCH   5   7
BRANCH   1  16
ATOM     16  C   UNL     1      48.438   6.428  15.786  0.00  0.00    +0.000 C 
BRANCH  16  21
ATOM     17  C   UNL     1      50.935   2.460  17.345  0.00  0.00    +0.000 A 
ATOM     18  C   UNL     1      51.117   3.815  17.471  0.00  0.00    +0.000 A 
ATOM     19  N   UNL     1      50.183   4.724  17.129  0.00  0.00    +0.000 NA
ATOM     20  C   UNL     1      49.026   4.266  16.628  0.00  0.00    +0.000 A 
ATOM     21  N   UNL     1      48.011   5.151  16.327  0.00  0.00    +0.000 N 
ATOM     22  N   UNL     1      48.765   2.965  16.438  0.00  0.00    +0.000 NA
ATOM     23  C   UNL     1      49.732   2.085  16.794  0.00  0.00    +0.000 A 
ATOM     24  H   UNL     1      47.318   4.663  15.773  0.00  0.00    +0.000 HD
BRANCH  17  26
ATOM     25  N   UNL     1      51.506   0.228  18.102  0.00  0.00    +0.000 N 
ATOM     26  C   UNL     1      51.945   1.467  17.726  0.00  0.00    +0.000 C 
ATOM     27  O   UNL     1      53.139   1.733  17.681  0.00  0.00    +0.000 OA
ATOM     28  H   UNL     1      52.223  -0.467  18.276  0.00  0.00    +0.000 HD
ATOM     29  H   UNL     1      50.575  -0.115  17.913  0.00  0.00    +0.000 HD
ENDBRANCH  17  26
ENDBRANCH  16  21
ENDBRANCH   1  16
TORSDOF 4
ENDMDL
MODEL 7
REMARK VINA RESULT:    -7.604      3.698      7.425
REMARK INTER + INTRA:          -9.945
REMARK INTER:                  -9.311
REMARK INTRA:                  -0.634
REMARK UNBOUND:                -0.563
REMARK  Name = 
REMARK  4 active torsions:
REMARK  status: ('A' for Active; 'I' for Inactive)
REMARK    1  A    between atoms: C_2  and  C_4
REMARK    2  A    between atoms: N_8  and  C_9
REMARK    3  A    between atoms: C_9  and  C_10
REMARK    4  A    between atoms: C_14  and  C_15
REMARK                            x       y       z     vdW  Elec       q    Type
REMARK                         _______ _______ _______ _____ _____    ______ ____
ROOT
ATOM      1  C   UNL     1      44.585   5.395  11.053  0.00  0.00    +0.000 A 
ATOM      2  C   UNL     1      43.534   4.704  11.673  0.00  0.00    +0.000 A 
ATOM      3  C   UNL     1      43.272   3.379  11.348  0.00  0.00    +0.000 A 
ATOM      4  C   UNL     1      44.036   2.743  10.370  0.00  0.00    +0.000 A 
ATOM      5  C   UNL     1      45.063   3.414   9.680  0.00  0.00    +0.000 A 
ATOM      6  C   UNL     1      45.343   4.741  10.064  0.00  0.00    +0.000 A 
ENDROOT
BRANCH   5   7
ATOM      7  C   UNL     1      45.775   2.771   8.552  0.00  0.00    +0.000 A 
ATOM      8  C   UNL     1      46.275   3.511   7.497  0.00  0.00    +0.000 A 
ATOM      9  C   UNL     1      46.932   2.814   6.514  0.00  0.00    +0.000 A 
ATOM     10  N   UNL     1      47.103   1.486   6.547  0.00  0.00    +0.000 NA
ATOM     11  C   UNL     1      46.618   0.851   7.617  0.00  0.00    +0.000 A 
ATOM     12  N   UNL     1      46.794  -0.517   7.658  0.00  0.00    +0.000 N 
ATOM     13  N   UNL     1      45.948   1.431   8.619  0.00  0.00    +0.000 NA
ATOM     14  H   UNL     1      46.928  -0.860   6.717  0.00  0.00    +0.000 HD
ATOM     15  H   UNL     1      46.059  -0.939   8.206  0.00  0.00    +0.000 HD
ENDBRANCH   5   7
BRANCH   1  16
ATOM     16  C   UNL     1      44.812   6.856  11.375  0.00  0.00    +0.000 C 
BRANCH  16  21
ATOM     17  C   UNL     1      49.383   7.823  12.981  0.00  0.00    +0.000 A 
ATOM     18  C   UNL     1      48.608   8.305  11.956  0.00  0.00    +0.000 A 
ATOM     19  N   UNL     1      47.294   8.034  11.828  0.00  0.00    +0.000 NA
ATOM     20  C   UNL     1      46.733   7.238  12.751  0.00  0.00    +0.000 A 
ATOM     21  N   UNL     1      45.377   6.985  12.705  0.00  0.00    +0.000 N 
ATOM     22  N   UNL     1      47.411   6.694  13.771  0.00  0.00    +0.000 NA
ATOM     23  C   UNL     1      48.731   6.992  13.862  0.00  0.00    +0.000 A 
ATOM     24  H   UNL     1      45.176   6.215  13.332  0.00  0.00    +0.000 HD
BRANCH  17  26
ATOM     25  N   UNL     1      51.419   7.759  14.298  0.00  0.00    +0.000 N 
ATOM     26  C   UNL     1      50.811   8.125  13.128  0.00  0.00    +0.000 C 
ATOM     27  O   UNL     1      51.439   8.660  12.225  0.00  0.00    +0.000 OA
ATOM     28  H   UNL     1      52.422   7.897  14.343  0.00  0.00    +0.000 HD
ATOM     29  H   UNL     1      51.020   7.101  14.952  0.00  0.00    +0.000 HD
ENDBRANCH  17  26
ENDBRANCH  16  21
ENDBRANCH   1  16
TORSDOF 4
ENDMDL
MODEL 8
REMARK VINA RESULT:    -7.540      3.141      7.572
REMARK INTER + INTRA:          -9.866
REMARK INTER:                  -9.591
REMARK INTRA:                  -0.276
REMARK UNBOUND:                -0.563
REMARK  Name = 
REMARK  4 active torsions:
REMARK  status: ('A' for Active; 'I' for Inactive)
REMARK    1  A    between atoms: C_2  and  C_4
REMARK    2  A    between atoms: N_8  and  C_9
REMARK    3  A    between atoms: C_9  and  C_10
REMARK    4  A    between atoms: C_14  and  C_15
REMARK                            x       y       z     vdW  Elec       q    Type
REMARK                         _______ _______ _______ _____ _____    ______ ____
ROOT
ATOM      1  C   UNL     1      44.716   5.270  11.008  0.00  0.00    +0.000 A 
ATOM      2  C   UNL     1      43.614   4.624  11.587  0.00  0.00    +0.000 A 
ATOM      3  C   UNL     1      43.298   3.317  11.236  0.00  0.00    +0.000 A 
ATOM      4  C   UNL     1      44.060   2.656  10.274  0.00  0.00    +0.000 A 
ATOM      5  C   UNL     1      45.139   3.284   9.624  0.00  0.00    +0.000 A 
ATOM      6  C   UNL     1      45.471   4.591  10.034  0.00  0.00    +0.000 A 
ENDROOT
BRANCH   5   7
ATOM      7  C   UNL     1      45.853   2.621   8.510  0.00  0.00    +0.000 A 
ATOM      8  C   UNL     1      46.411   3.348   7.475  0.00  0.00    +0.000 A 
ATOM      9  C   UNL     1      47.065   2.631   6.503  0.00  0.00    +0.000 A 
ATOM     10  N   UNL     1      47.181   1.297   6.529  0.00  0.00    +0.000 NA
ATOM     11  C   UNL     1      46.641   0.675   7.580  0.00  0.00    +0.000 A 
ATOM     12  N   UNL     1      46.759  -0.700   7.614  0.00  0.00    +0.000 N 
ATOM     13  N   UNL     1      45.969   1.275   8.569  0.00  0.00    +0.000 NA
ATOM     14  H   UNL     1      46.903  -1.041   6.674  0.00  0.00    +0.000 HD
ATOM     15  H   UNL     1      45.993  -1.095   8.139  0.00  0.00    +0.000 HD
ENDBRANCH   5   7
BRANCH   1  16
ATOM     16  C   UNL     1      45.003   6.714  11.357  0.00  0.00    +0.000 C 
BRANCH  16  21
ATOM     17  C   UNL     1      48.124   6.065  15.131  0.00  0.00    +0.000 A 
ATOM     18  C   UNL     1      47.053   5.358  14.645  0.00  0.00    +0.000 A 
ATOM     19  N   UNL     1      46.465   5.623  13.461  0.00  0.00    +0.000 NA
ATOM     20  C   UNL     1      46.955   6.643  12.740  0.00  0.00    +0.000 A 
ATOM     21  N   UNL     1      46.434   6.913  11.491  0.00  0.00    +0.000 N 
ATOM     22  N   UNL     1      47.977   7.412  13.143  0.00  0.00    +0.000 NA
ATOM     23  C   UNL     1      48.539   7.110  14.340  0.00  0.00    +0.000 A 
ATOM     24  H   UNL     1      46.768   7.823  11.197  0.00  0.00    +0.000 HD
BRANCH  17  26
ATOM     25  N   UNL     1      48.088   6.081  17.557  0.00  0.00    +0.000 N 
ATOM     26  C   UNL     1      48.773   5.772  16.414  0.00  0.00    +0.000 C 
ATOM     27  O   UNL     1      49.876   5.244  16.456  0.00  0.00    +0.000 OA
ATOM     28  H   UNL     1      48.516   5.791  18.428  0.00  0.00    +0.000 HD
ATOM     29  H   UNL     1      47.096   6.273  17.578  0.00  0.00    +0.000 HD
ENDBRANCH  17  26
ENDBRANCH  16  21
ENDBRANCH   1  16
TORSDOF 4
ENDMDL
MODEL 9
REMARK VINA RESULT:    -7.127      3.999      8.407
REMARK INTER + INTRA:          -9.356
REMARK INTER:                  -8.738
REMARK INTRA:                  -0.619
REMARK UNBOUND:                -0.563
REMARK  Name = 
REMARK  4 active torsions:
REMARK  status: ('A' for Active; 'I' for Inactive)
REMARK    1  A    between atoms: C_2  and  C_4
REMARK    2  A    between atoms: N_8  and  C_9
REMARK    3  A    between atoms: C_9  and  C_10
REMARK    4  A    between atoms: C_14  and  C_15
REMARK                            x       y       z     vdW  Elec       q    Type
REMARK                         _______ _______ _______ _____ _____    ______ ____
ROOT
ATOM      1  C   UNL     1      47.705   7.246  13.529  0.00  0.00    +0.000 A 
ATOM      2  C   UNL     1      47.121   8.520  13.484  0.00  0.00    +0.000 A 
ATOM      3  C   UNL     1      45.834   8.689  12.988  0.00  0.00    +0.000 A 
ATOM      4  C   UNL     1      45.132   7.588  12.496  0.00  0.00    +0.000 A 
ATOM      5  C   UNL     1      45.701   6.301  12.468  0.00  0.00    +0.000 A 
ATOM      6  C   UNL     1      46.987   6.147  13.023  0.00  0.00    +0.000 A 
ENDROOT
BRANCH   5   7
ATOM      7  C   UNL     1      45.000   5.169  11.820  0.00  0.00    +0.000 A 
ATOM      8  C   UNL     1      44.449   4.140  12.561  0.00  0.00    +0.000 A 
ATOM      9  C   UNL     1      43.807   3.151  11.858  0.00  0.00    +0.000 A 
ATOM     10  N   UNL     1      43.696   3.155  10.523  0.00  0.00    +0.000 NA
ATOM     11  C   UNL     1      44.227   4.201   9.886  0.00  0.00    +0.000 A 
ATOM     12  N   UNL     1      44.114   4.212   8.511  0.00  0.00    +0.000 N 
ATOM     13  N   UNL     1      44.888   5.206  10.473  0.00  0.00    +0.000 NA
ATOM     14  H   UNL     1      43.980   3.265   8.184  0.00  0.00    +0.000 HD
ATOM     15  H   UNL     1      44.877   4.738   8.110  0.00  0.00    +0.000 HD
ENDBRANCH   5   7
BRANCH   1  16
ATOM     16  C   UNL     1      49.131   7.095  14.013  0.00  0.00    +0.000 C 
BRANCH  16  21
ATOM     17  C   UNL     1      48.928   5.181  18.563  0.00  0.00    +0.000 A 
ATOM     18  C   UNL     1      49.472   4.764  17.374  0.00  0.00    +0.000 A 
ATOM     19  N   UNL     1      49.582   5.556  16.289  0.00  0.00    +0.000 NA
ATOM     20  C   UNL     1      49.118   6.812  16.390  0.00  0.00    +0.000 A 
ATOM     21  N   UNL     1      49.269   7.685  15.331  0.00  0.00    +0.000 N 
ATOM     22  N   UNL     1      48.543   7.303  17.496  0.00  0.00    +0.000 NA
ATOM     23  C   UNL     1      48.452   6.471  18.563  0.00  0.00    +0.000 A 
ATOM     24  H   UNL     1      48.684   8.494  15.501  0.00  0.00    +0.000 HD
BRANCH  17  26
ATOM     25  N   UNL     1      48.298   3.070  19.578  0.00  0.00    +0.000 N 
ATOM     26  C   UNL     1      48.817   4.324  19.748  0.00  0.00    +0.000 C 
ATOM     27  O   UNL     1      49.201   4.710  20.844  0.00  0.00    +0.000 OA
ATOM     28  H   UNL     1      48.311   2.465  20.391  0.00  0.00    +0.000 HD
ATOM     29  H   UNL     1      48.210   2.620  18.677  0.00  0.00    +0.000 HD
ENDBRANCH  17  26
ENDBRANCH  16  21
ENDBRANCH   1  16
TORSDOF 4
ENDMDL
