MODEL 1
REMARK VINA RESULT:    -9.270      0.000      0.000
REMARK INTER + INTRA:         -12.376
REMARK INTER:                 -11.438
REMARK INTRA:                  -0.938
REMARK UNBOUND:                -0.938
REMARK  Name = 
REMARK  4 active torsions:
REMARK  status: ('A' for Active; 'I' for Inactive)
REMARK    1  A    between atoms: C_2  and  C_4
REMARK    2  A    between atoms: N_8  and  C_9
REMARK    3  A    between atoms: C_9  and  C_10
REMARK    4  A    between atoms: C_14  and  C_15
REMARK                            x       y       z     vdW  Elec       q    Type
REMARK                         _______ _______ _______ _____ _____    ______ ____
ROOT
ATOM      1  C   UNL     1      44.085   4.716  11.484  0.00  0.00    +0.000 C 
ATOM      2  C   UNL     1      42.763   4.796  12.239  0.00  0.00    +0.000 C 
ATOM      3  C   UNL     1      43.022   5.725  11.100  0.00  0.00    +0.000 C 
ENDROOT
BRANCH   1   8
ATOM      4  C   UNL     1      46.602   2.743   7.361  0.00  0.00    +0.000 A 
ATOM      5  C   UNL     1      46.416   4.066   7.746  0.00  0.00    +0.000 A 
ATOM      6  C   UNL     1      45.641   4.343   8.876  0.00  0.00    +0.000 A 
ATOM      7  C   UNL     1      45.099   3.298   9.616  0.00  0.00    +0.000 A 
ATOM      8  N   UNL     1      44.274   3.480  10.721  0.00  0.00    +0.000 N 
ATOM      9  N   UNL     1      45.289   2.009   9.257  0.00  0.00    +0.000 NA
ATOM     10  C   UNL     1      46.012   1.759   8.136  0.00  0.00    +0.000 A 
ATOM     11  H   UNL     1      44.137   2.584  11.177  0.00  0.00    +0.000 HD
BRANCH   4  13
ATOM     12  N   UNL     1      47.163   3.108   5.027  0.00  0.00    +0.000 N 
ATOM     13  C   UNL     1      47.349   2.349   6.150  0.00  0.00    +0.000 C 
ATOM     14  O   UNL     1      48.115   1.397   6.151  0.00  0.00    +0.000 OA
ATOM     15  H   UNL     1      47.740   2.878   4.229  0.00  0.00    +0.000 HD
ATOM     16  H   UNL     1      46.742   4.026   5.055  0.00  0.00    +0.000 HD
ENDBRANCH   4  13
ENDBRANCH   1   8
BRANCH   1  17
ATOM     17  C   UNL     1      45.355   5.202  12.175  0.00  0.00    +0.000 A 
ATOM     18  C   UNL     1      45.928   6.446  11.870  0.00  0.00    +0.000 A 
ATOM     19  C   UNL     1      47.009   6.945  12.595  0.00  0.00    +0.000 A 
ATOM     20  C   UNL     1      47.513   6.224  13.680  0.00  0.00    +0.000 A 
ATOM     21  C   UNL     1      46.963   4.985  14.043  0.00  0.00    +0.000 A 
ATOM     22  C   UNL     1      45.932   4.473  13.234  0.00  0.00    +0.000 A 
BRANCH  21  23
ATOM     23  C   UNL     1      47.364   4.286  15.280  0.00  0.00    +0.000 A 
ATOM     24  C   UNL     1      47.149   4.850  16.541  0.00  0.00    +0.000 A 
ATOM     25  C   UNL     1      47.469   4.123  17.681  0.00  0.00    +0.000 A 
ATOM     26  C   UNL     1      48.001   2.849  17.549  0.00  0.00    +0.000 A 
ATOM     27  C   UNL     1      48.181   2.354  16.269  0.00  0.00    +0.000 A 
ATOM     28  N   UNL     1      47.870   3.034  15.142  0.00  0.00    +0.000 NA
ENDBRANCH  21  23
ENDBRANCH   1  17
TORSDOF 4
ENDMDL
MODEL 2
REMARK VINA RESULT:    -8.805      1.981      3.912
REMARK INTER + INTRA:         -11.802
REMARK INTER:                 -10.697
REMARK INTRA:                  -1.105
REMARK UNBOUND:                -0.938
REMARK  Name = 
REMARK  4 active torsions:
REMARK  status: ('A' for Active; 'I' for Inactive)
REMARK    1  A    between atoms: C_2  and  C_4
REMARK    2  A    between atoms: N_8  and  C_9
REMARK    3  A    between atoms: C_9  and  C_10
REMARK    4  A    between atoms: C_14  and  C_15
REMARK                            x       y       z     vdW  Elec       q    Type
REMARK                         _______ _______ _______ _____ _____    ______ ____
ROOT
ATOM      1  C   UNL     1      43.920   4.967  11.548  0.00  0.00    +0.000 C 
ATOM      2  C   UNL     1      42.534   5.197  12.138  0.00  0.00    +0.000 C 
ATOM      3  C   UNL     1      43.012   6.055  11.014  0.00  0.00    +0.000 C 
ENDROOT
BRANCH   1   8
ATOM      4  C   UNL     1      46.462   2.708   7.590  0.00  0.00    +0.000 A 
ATOM      5  C   UNL     1      46.322   4.054   7.912  0.00  0.00    +0.000 A 
ATOM      6  C   UNL     1      45.529   4.413   9.005  0.00  0.00    +0.000 A 
ATOM      7  C   UNL     1      44.924   3.426   9.774  0.00  0.00    +0.000 A 
ATOM      8  N   UNL     1      44.078   3.691  10.846  0.00  0.00    +0.000 N 
ATOM      9  N   UNL     1      45.069   2.115   9.477  0.00  0.00    +0.000 NA
ATOM     10  C   UNL     1      45.811   1.785   8.389  0.00  0.00    +0.000 A 
ATOM     11  H   UNL     1      43.890   2.823  11.336  0.00  0.00    +0.000 HD
BRANCH   4  13
ATOM     12  N   UNL     1      47.159   2.986   5.280  0.00  0.00    +0.000 N 
ATOM     13  C   UNL     1      47.225   2.231   6.419  0.00  0.00    +0.000 C 
ATOM     14  O   UNL     1      47.900   1.213   6.467  0.00  0.00    +0.000 OA
ATOM     15  H   UNL     1      47.748   2.692   4.513  0.00  0.00    +0.000 HD
ATOM     16  H   UNL     1      46.822   3.938   5.278  0.00  0.00    +0.000 HD
ENDBRANCH   4  13
ENDBRANCH   1   8
BRANCH   1  17
ATOM     17  C   UNL     1      45.143   5.359  12.372  0.00  0.00    +0.000 A 
ATOM     18  C   UNL     1      45.744   4.463  13.268  0.00  0.00    +0.000 A 
ATOM     19  C   UNL     1      46.937   4.778  13.919  0.00  0.00    +0.000 A 
ATOM     20  C   UNL     1      47.581   5.987  13.648  0.00  0.00    +0.000 A 
ATOM     21  C   UNL     1      47.034   6.911  12.744  0.00  0.00    +0.000 A 
ATOM     22  C   UNL     1      45.786   6.598  12.174  0.00  0.00    +0.000 A 
BRANCH  21  23
ATOM     23  C   UNL     1      47.774   8.114  12.316  0.00  0.00    +0.000 A 
ATOM     24  C   UNL     1      49.093   8.037  11.858  0.00  0.00    +0.000 A 
ATOM     25  C   UNL     1      49.725   9.183  11.389  0.00  0.00    +0.000 A 
ATOM     26  C   UNL     1      49.036  10.387  11.386  0.00  0.00    +0.000 A 
ATOM     27  C   UNL     1      47.732  10.385  11.850  0.00  0.00    +0.000 A 
ATOM     28  N   UNL     1      47.089   9.286  12.303  0.00  0.00    +0.000 NA
ENDBRANCH  21  23
ENDBRANCH   1  17
TORSDOF 4
ENDMDL
MODEL 3
REMARK VINA RESULT:    -6.980      3.567      7.147
REMARK INTER + INTRA:          -9.550
REMARK INTER:                  -8.540
REMARK INTRA:                  -1.010
REMARK UNBOUND:                -0.938
REMARK  Name = 
REMARK  4 active torsions:
REMARK  status: ('A' for Active; 'I' for Inactive)
REMARK    1  A    between atoms: C_2  and  C_4
REMARK    2  A    between atoms: N_8  and  C_9
REMARK    3  A    between atoms: C_9  and  C_10
REMARK    4  A    between atoms: C_14  and  C_15
REMARK                            x       y       z     vdW  Elec       q    Type
REMARK                         _______ _______ _______ _____ _____    ______ ____
ROOT
ATOM      1  C   UNL     1      46.135   5.118  13.381  0.00  0.00    +0.000 C 
ATOM      2  C   UNL     1      46.068   4.263  14.642  0.00  0.00    +0.000 C 
ATOM      3  C   UNL     1      47.259   4.170  13.747  0.00  0.00    +0.000 C 
ENDROOT
BRANCH   1   8
ATOM      4  C   UNL     1      48.590   9.428  11.760  0.00  0.00    +0.000 A 
ATOM      5  C   UNL     1      48.859   8.090  11.491  0.00  0.00    +0.000 A 
ATOM      6  C   UNL     1      48.081   7.103  12.102  0.00  0.00    +0.000 A 
ATOM      7  C   UNL     1      47.032   7.469  12.938  0.00  0.00    +0.000 A 
ATOM      8  N   UNL     1      46.240   6.557  13.629  0.00  0.00    +0.000 N 
ATOM      9  N   UNL     1      46.754   8.767  13.192  0.00  0.00    +0.000 NA
ATOM     10  C   UNL     1      47.544   9.712  12.621  0.00  0.00    +0.000 A 
ATOM     11  H   UNL     1      45.456   7.053  14.041  0.00  0.00    +0.000 HD
BRANCH   4  13
ATOM     12  N   UNL     1      48.733  11.482  10.473  0.00  0.00    +0.000 N 
ATOM     13  C   UNL     1      49.393  10.541  11.215  0.00  0.00    +0.000 C 
ATOM     14  O   UNL     1      50.593  10.629  11.430  0.00  0.00    +0.000 OA
ATOM     15  H   UNL     1      49.278  12.279  10.174  0.00  0.00    +0.000 HD
ATOM     16  H   UNL     1      47.728  11.575  10.483  0.00  0.00    +0.000 HD
ENDBRANCH   4  13
ENDBRANCH   1   8
BRANCH   1  17
ATOM     17  C   UNL     1      45.223   4.769  12.209  0.00  0.00    +0.000 A 
ATOM     18  C   UNL     1      43.952   5.344  12.070  0.00  0.00    +0.000 A 
ATOM     19  C   UNL     1      43.177   5.125  10.931  0.00  0.00    +0.000 A 
ATOM     20  C   UNL     1      43.683   4.359   9.879  0.00  0.00    +0.000 A 
ATOM     21  C   UNL     1      44.959   3.779   9.957  0.00  0.00    +0.000 A 
ATOM     22  C   UNL     1      45.675   3.947  11.156  0.00  0.00    +0.000 A 
BRANCH  21  23
ATOM     23  C   UNL     1      45.581   3.109   8.798  0.00  0.00    +0.000 A 
ATOM     24  C   UNL     1      46.009   3.829   7.679  0.00  0.00    +0.000 A 
ATOM     25  C   UNL     1      46.663   3.168   6.647  0.00  0.00    +0.000 A 
ATOM     26  C   UNL     1      46.877   1.801   6.741  0.00  0.00    +0.000 A 
ATOM     27  C   UNL     1      46.429   1.155   7.881  0.00  0.00    +0.000 A 
ATOM     28  N   UNL     1      45.800   1.773   8.905  0.00  0.00    +0.000 NA
ENDBRANCH  21  23
ENDBRANCH   1  17
TORSDOF 4
ENDMDL
MODEL 4
REMARK VINA RESULT:    -6.920      3.132      7.620
REMARK INTER + INTRA:          -9.476
REMARK INTER:                  -9.639
REMARK INTRA:                   0.163
REMARK UNBOUND:                -0.938
REMARK  Name = 
REMARK  4 active torsions:
REMARK  status: ('A' for Active; 'I' for Inactive)
REMARK    1  A    between atoms: C_2  and  C_4
REMARK    2  A    between atoms: N_8  and  C_9
REMARK    3  A    between atoms: C_9  and  C_10
REMARK    4  A    between atoms: C_14  and  C_15
REMARK                            x       y       z     vdW  Elec       q    Type
REMARK                         _______ _______ _______ _____ _____    ______ ____
ROOT
ATOM      1  C   UNL     1      48.606   7.900  12.589  0.00  0.00    +0.000 C 
ATOM      2  C   UNL     1      49.709   7.396  11.667  0.00  0.00    +0.000 C 
ATOM      3  C   UNL     1      49.442   8.861  11.769  0.00  0.00    +0.000 C 
ENDROOT
BRANCH   1   8
ATOM      4  C   UNL     1      47.767   4.542  16.494  0.00  0.00    +0.000 A 
ATOM      5  C   UNL     1      47.191   4.606  15.230  0.00  0.00    +0.000 A 
ATOM      6  C   UNL     1      47.544   5.653  14.374  0.00  0.00    +0.000 A 
ATOM      7  C   UNL     1      48.489   6.589  14.779  0.00  0.00    +0.000 A 
ATOM      8  N   UNL     1      48.862   7.690  14.016  0.00  0.00    +0.000 N 
ATOM      9  N   UNL     1      49.066   6.523  15.999  0.00  0.00    +0.000 NA
ATOM     10  C   UNL     1      48.683   5.523  16.834  0.00  0.00    +0.000 A 
ATOM     11  H   UNL     1      49.667   8.131  14.450  0.00  0.00    +0.000 HD
BRANCH   4  13
ATOM     12  N   UNL     1      48.270   3.346  18.547  0.00  0.00    +0.000 N 
ATOM     13  C   UNL     1      47.414   3.514  17.494  0.00  0.00    +0.000 C 
ATOM     14  O   UNL     1      46.391   2.851  17.396  0.00  0.00    +0.000 OA
ATOM     15  H   UNL     1      47.976   2.698  19.265  0.00  0.00    +0.000 HD
ATOM     16  H   UNL     1      48.976   4.028  18.788  0.00  0.00    +0.000 HD
ENDBRANCH   4  13
ENDBRANCH   1   8
BRANCH   1  17
ATOM     17  C   UNL     1      47.152   7.659  12.193  0.00  0.00    +0.000 A 
ATOM     18  C   UNL     1      46.190   8.677  12.271  0.00  0.00    +0.000 A 
ATOM     19  C   UNL     1      44.896   8.492  11.784  0.00  0.00    +0.000 A 
ATOM     20  C   UNL     1      44.551   7.291  11.161  0.00  0.00    +0.000 A 
ATOM     21  C   UNL     1      45.481   6.247  11.036  0.00  0.00    +0.000 A 
ATOM     22  C   UNL     1      46.748   6.437  11.618  0.00  0.00    +0.000 A 
BRANCH  21  23
ATOM     23  C   UNL     1      45.194   5.039  10.239  0.00  0.00    +0.000 A 
ATOM     24  C   UNL     1      45.691   4.884   8.941  0.00  0.00    +0.000 A 
ATOM     25  C   UNL     1      45.464   3.696   8.257  0.00  0.00    +0.000 A 
ATOM     26  C   UNL     1      44.743   2.683   8.872  0.00  0.00    +0.000 A 
ATOM     27  C   UNL     1      44.287   2.906  10.160  0.00  0.00    +0.000 A 
ATOM     28  N   UNL     1      44.501   4.047  10.854  0.00  0.00    +0.000 NA
ENDBRANCH  21  23
ENDBRANCH   1  17
TORSDOF 4
ENDMDL
MODEL 5
REMARK VINA RESULT:    -6.902      2.190      3.472
REMARK INTER + INTRA:          -9.455
REMARK INTER:                  -9.214
REMARK INTRA:                  -0.241
REMARK UNBOUND:                -0.938
REMARK  Name = 
REMARK  4 active torsions:
REMARK  status: ('A' for Active; 'I' for Inactive)
REMARK    1  A    between atoms: C_2  and  C_4
REMARK    2  A    between atoms: N_8  and  C_9
REMARK    3  A    between atoms: C_9  and  C_10
REMARK    4  A    between atoms: C_14  and  C_15
REMARK                            x       y       z     vdW  Elec       q    Type
REMARK                         _______ _______ _______ _____ _____    ______ ____
ROOT
ATOM      1  C   UNL     1      44.283   5.696  11.109  0.00  0.00    +0.000 C 
ATOM      2  C   UNL     1      42.947   4.975  11.244  0.00  0.00    +0.000 C 
ATOM      3  C   UNL     1      42.989   6.466  11.276  0.00  0.00    +0.000 C 
ENDROOT
BRANCH   1   8
ATOM      4  C   UNL     1      46.255   2.144   7.835  0.00  0.00    +0.000 A 
ATOM      5  C   UNL     1      45.900   2.027   9.175  0.00  0.00    +0.000 A 
ATOM      6  C   UNL     1      45.444   3.157   9.859  0.00  0.00    +0.000 A 
ATOM      7  C   UNL     1      45.317   4.367   9.188  0.00  0.00    +0.000 A 
ATOM      8  N   UNL     1      44.922   5.553   9.799  0.00  0.00    +0.000 N 
ATOM      9  N   UNL     1      45.645   4.485   7.882  0.00  0.00    +0.000 NA
ATOM     10  C   UNL     1      46.123   3.388   7.242  0.00  0.00    +0.000 A 
ATOM     11  H   UNL     1      44.757   6.251   9.082  0.00  0.00    +0.000 HD
BRANCH   4  13
ATOM     12  N   UNL     1      46.741  -0.223   7.594  0.00  0.00    +0.000 N 
ATOM     13  C   UNL     1      46.807   1.027   7.042  0.00  0.00    +0.000 C 
ATOM     14  O   UNL     1      47.289   1.206   5.933  0.00  0.00    +0.000 OA
ATOM     15  H   UNL     1      47.048  -0.988   7.009  0.00  0.00    +0.000 HD
ATOM     16  H   UNL     1      46.142  -0.440   8.378  0.00  0.00    +0.000 HD
ENDBRANCH   4  13
ENDBRANCH   1   8
BRANCH   1  17
ATOM     17  C   UNL     1      45.267   5.639  12.274  0.00  0.00    +0.000 A 
ATOM     18  C   UNL     1      45.180   4.649  13.262  0.00  0.00    +0.000 A 
ATOM     19  C   UNL     1      46.157   4.519  14.249  0.00  0.00    +0.000 A 
ATOM     20  C   UNL     1      47.275   5.356  14.237  0.00  0.00    +0.000 A 
ATOM     21  C   UNL     1      47.424   6.350  13.257  0.00  0.00    +0.000 A 
ATOM     22  C   UNL     1      46.376   6.509  12.332  0.00  0.00    +0.000 A 
BRANCH  21  23
ATOM     23  C   UNL     1      48.668   7.132  13.123  0.00  0.00    +0.000 A 
ATOM     24  C   UNL     1      49.457   7.447  14.233  0.00  0.00    +0.000 A 
ATOM     25  C   UNL     1      50.662   8.115  14.051  0.00  0.00    +0.000 A 
ATOM     26  C   UNL     1      51.061   8.463  12.769  0.00  0.00    +0.000 A 
ATOM     27  C   UNL     1      50.231   8.113  11.718  0.00  0.00    +0.000 A 
ATOM     28  N   UNL     1      49.059   7.455  11.863  0.00  0.00    +0.000 NA
ENDBRANCH  21  23
ENDBRANCH   1  17
TORSDOF 4
ENDMDL
MODEL 6
REMARK VINA RESULT:    -6.638      4.058      8.520
REMARK INTER + INTRA:          -9.129
REMARK INTER:                  -8.193
REMARK INTRA:                  -0.936
REMARK UNBOUND:                -0.938
REMARK  Name = 
REMARK  4 active torsions:
REMARK  status: ('A' for Active; 'I' for Inactive)
REMARK    1  A    between atoms: C_2  and  C_4
REMARK    2  A    between atoms: N_8  and  C_9
REMARK    3  A    between atoms: C_9  and  C_10
REMARK    4  A    between atoms: C_14  and  C_15
REMARK                            x       y       z     vdW  Elec       q    Type
REMARK                         _______ _______ _______ _____ _____    ______ ____
ROOT
ATOM      1  C   UNL     1      48.946   7.747  12.529  0.00  0.00    +0.000 C 
ATOM      2  C   UNL     1      49.912   7.814  11.352  0.00  0.00    +0.000 C 
ATOM      3  C   UNL     1      49.637   9.042  12.154  0.00  0.00    +0.000 C 
ENDROOT
BRANCH   1   8
ATOM      4  C   UNL     1      48.831   7.420  17.735  0.00  0.00    +0.000 A 
ATOM      5  C   UNL     1      48.481   8.473  16.897  0.00  0.00    +0.000 A 
ATOM      6  C   UNL     1      48.661   8.334  15.518  0.00  0.00    +0.000 A 
ATOM      7  C   UNL     1      49.151   7.140  15.002  0.00  0.00    +0.000 A 
ATOM      8  N   UNL     1      49.412   6.930  13.652  0.00  0.00    +0.000 N 
ATOM      9  N   UNL     1      49.479   6.106  15.809  0.00  0.00    +0.000 NA
ATOM     10  C   UNL     1      49.334   6.271  17.149  0.00  0.00    +0.000 A 
ATOM     11  H   UNL     1      49.611   5.946  13.506  0.00  0.00    +0.000 HD
BRANCH   4  13
ATOM     12  N   UNL     1      47.654   8.137  19.734  0.00  0.00    +0.000 N 
ATOM     13  C   UNL     1      48.739   7.492  19.207  0.00  0.00    +0.000 C 
ATOM     14  O   UNL     1      49.585   6.983  19.928  0.00  0.00    +0.000 OA
ATOM     15  H   UNL     1      47.561   8.109  20.741  0.00  0.00    +0.000 HD
ATOM     16  H   UNL     1      46.829   8.347  19.191  0.00  0.00    +0.000 HD
ENDBRANCH   4  13
ENDBRANCH   1   8
BRANCH   1  17
ATOM     17  C   UNL     1      47.454   7.593  12.245  0.00  0.00    +0.000 A 
ATOM     18  C   UNL     1      46.564   8.667  12.390  0.00  0.00    +0.000 A 
ATOM     19  C   UNL     1      45.228   8.559  12.003  0.00  0.00    +0.000 A 
ATOM     20  C   UNL     1      44.765   7.381  11.415  0.00  0.00    +0.000 A 
ATOM     21  C   UNL     1      45.619   6.283  11.225  0.00  0.00    +0.000 A 
ATOM     22  C   UNL     1      46.936   6.397  11.708  0.00  0.00    +0.000 A 
BRANCH  21  23
ATOM     23  C   UNL     1      45.201   5.094  10.458  0.00  0.00    +0.000 A 
ATOM     24  C   UNL     1      45.588   4.908   9.128  0.00  0.00    +0.000 A 
ATOM     25  C   UNL     1      45.239   3.735   8.469  0.00  0.00    +0.000 A 
ATOM     26  C   UNL     1      44.508   2.768   9.142  0.00  0.00    +0.000 A 
ATOM     27  C   UNL     1      44.164   3.019  10.459  0.00  0.00    +0.000 A 
ATOM     28  N   UNL     1      44.498   4.146  11.129  0.00  0.00    +0.000 NA
ENDBRANCH  21  23
ENDBRANCH   1  17
TORSDOF 4
ENDMDL
MODEL 7
REMARK VINA RESULT:    -6.617      3.602      5.194
REMARK INTER + INTRA:          -9.102
REMARK INTER:                  -8.133
REMARK INTRA:                  -0.969
REMARK UNBOUND:                -0.938
REMARK  Name = 
REMARK  4 active torsions:
REMARK  status: ('A' for Active; 'I' for Inactive)
REMARK    1  A    between atoms: C_2  and  C_4
REMARK    2  A    between atoms: N_8  and  C_9
REMARK    3  A    between atoms: C_9  and  C_10
REMARK    4  A    between atoms: C_14  and  C_15
REMARK                            x       y       z     vdW  Elec       q    Type
REMARK                         _______ _______ _______ _____ _____    ______ ____
ROOT
ATOM      1  C   UNL     1      48.520   8.325  12.679  0.00  0.00    +0.000 C 
ATOM      2  C   UNL     1      49.355   9.358  11.933  0.00  0.00    +0.000 C 
ATOM      3  C   UNL     1      49.679   7.908  11.798  0.00  0.00    +0.000 C 
ENDROOT
BRANCH   1   8
ATOM      4  C   UNL     1      44.611   4.920  12.087  0.00  0.00    +0.000 A 
ATOM      5  C   UNL     1      45.959   4.698  12.348  0.00  0.00    +0.000 A 
ATOM      6  C   UNL     1      46.829   5.789  12.402  0.00  0.00    +0.000 A 
ATOM      7  C   UNL     1      46.335   7.077  12.233  0.00  0.00    +0.000 A 
ATOM      8  N   UNL     1      47.134   8.216  12.219  0.00  0.00    +0.000 N 
ATOM      9  N   UNL     1      45.024   7.302  11.995  0.00  0.00    +0.000 NA
ATOM     10  C   UNL     1      44.198   6.228  11.906  0.00  0.00    +0.000 A 
ATOM     11  H   UNL     1      46.535   9.035  12.236  0.00  0.00    +0.000 HD
BRANCH   4  13
ATOM     12  N   UNL     1      43.907   2.645  12.567  0.00  0.00    +0.000 N 
ATOM     13  C   UNL     1      43.623   3.831  11.946  0.00  0.00    +0.000 C 
ATOM     14  O   UNL     1      42.587   3.984  11.316  0.00  0.00    +0.000 OA
ATOM     15  H   UNL     1      43.188   1.936  12.531  0.00  0.00    +0.000 HD
ATOM     16  H   UNL     1      44.614   2.563  13.284  0.00  0.00    +0.000 HD
ENDBRANCH   4  13
ENDBRANCH   1   8
BRANCH   1  17
ATOM     17  C   UNL     1      48.665   8.220  14.195  0.00  0.00    +0.000 A 
ATOM     18  C   UNL     1      48.346   9.293  15.040  0.00  0.00    +0.000 A 
ATOM     19  C   UNL     1      48.353   9.152  16.427  0.00  0.00    +0.000 A 
ATOM     20  C   UNL     1      48.635   7.910  17.000  0.00  0.00    +0.000 A 
ATOM     21  C   UNL     1      48.938   6.797  16.200  0.00  0.00    +0.000 A 
ATOM     22  C   UNL     1      49.009   6.999  14.810  0.00  0.00    +0.000 A 
BRANCH  21  23
ATOM     23  C   UNL     1      49.075   5.442  16.770  0.00  0.00    +0.000 A 
ATOM     24  C   UNL     1      47.969   4.603  16.934  0.00  0.00    +0.000 A 
ATOM     25  C   UNL     1      48.154   3.307  17.398  0.00  0.00    +0.000 A 
ATOM     26  C   UNL     1      49.435   2.867  17.696  0.00  0.00    +0.000 A 
ATOM     27  C   UNL     1      50.482   3.752  17.505  0.00  0.00    +0.000 A 
ATOM     28  N   UNL     1      50.334   5.015  17.045  0.00  0.00    +0.000 NA
ENDBRANCH  21  23
ENDBRANCH   1  17
TORSDOF 4
ENDMDL
MODEL 8
REMARK VINA RESULT:    -6.564      3.912      8.442
REMARK INTER + INTRA:          -9.037
REMARK INTER:                  -8.394
REMARK INTRA:                  -0.643
REMARK UNBOUND:                -0.938
REMARK  Name = 
REMARK  4 active torsions:
REMARK  status: ('A' for Active; 'I' for Inactive)
REMARK    1  A    between atoms: C_2  and  C_4
REMARK    2  A    between atoms: N_8  and  C_9
REMARK    3  A    between atoms: C_9  and  C_10
REMARK    4  A    between atoms: C_14  and  C_15
REMARK                            x       y       z     vdW  Elec       q    Type
REMARK                         _______ _______ _______ _____ _____    ______ ____
ROOT
ATOM      1  C   UNL     1      48.232   4.821  17.223  0.00  0.00    +0.000 C 
ATOM      2  C   UNL     1      47.175   5.073  18.292  0.00  0.00    +0.000 C 
ATOM      3  C   UNL     1      47.230   3.750  17.602  0.00  0.00    +0.000 C 
ENDROOT
BRANCH   1   8
ATOM      4  C   UNL     1      52.408   1.724  17.665  0.00  0.00    +0.000 A 
ATOM      5  C   UNL     1      51.093   1.412  17.336  0.00  0.00    +0.000 A 
ATOM      6  C   UNL     1      50.131   2.425  17.343  0.00  0.00    +0.000 A 
ATOM      7  C   UNL     1      50.504   3.731  17.641  0.00  0.00    +0.000 A 
ATOM      8  N   UNL     1      49.608   4.792  17.723  0.00  0.00    +0.000 N 
ATOM      9  N   UNL     1      51.783   4.045  17.946  0.00  0.00    +0.000 NA
ATOM     10  C   UNL     1      52.698   3.042  17.973  0.00  0.00    +0.000 A 
ATOM     11  H   UNL     1      50.133   5.657  17.799  0.00  0.00    +0.000 HD
BRANCH   4  13
ATOM     12  N   UNL     1      53.182  -0.471  18.360  0.00  0.00    +0.000 N 
ATOM     13  C   UNL     1      53.483   0.715  17.748  0.00  0.00    +0.000 C 
ATOM     14  O   UNL     1      54.592   0.922  17.277  0.00  0.00    +0.000 OA
ATOM     15  H   UNL     1      53.900  -1.182  18.338  0.00  0.00    +0.000 HD
ATOM     16  H   UNL     1      52.232  -0.766  18.534  0.00  0.00    +0.000 HD
ENDBRANCH   4  13
ENDBRANCH   1   8
BRANCH   1  17
ATOM     17  C   UNL     1      48.093   5.523  15.875  0.00  0.00    +0.000 A 
ATOM     18  C   UNL     1      49.008   6.500  15.456  0.00  0.00    +0.000 A 
ATOM     19  C   UNL     1      48.954   7.043  14.172  0.00  0.00    +0.000 A 
ATOM     20  C   UNL     1      48.006   6.579  13.259  0.00  0.00    +0.000 A 
ATOM     21  C   UNL     1      47.081   5.586  13.618  0.00  0.00    +0.000 A 
ATOM     22  C   UNL     1      47.108   5.127  14.947  0.00  0.00    +0.000 A 
BRANCH  21  23
ATOM     23  C   UNL     1      46.183   4.963  12.626  0.00  0.00    +0.000 A 
ATOM     24  C   UNL     1      45.874   5.597  11.419  0.00  0.00    +0.000 A 
ATOM     25  C   UNL     1      45.089   4.939  10.479  0.00  0.00    +0.000 A 
ATOM     26  C   UNL     1      44.621   3.663  10.757  0.00  0.00    +0.000 A 
ATOM     27  C   UNL     1      44.971   3.097  11.971  0.00  0.00    +0.000 A 
ATOM     28  N   UNL     1      45.740   3.709  12.900  0.00  0.00    +0.000 NA
ENDBRANCH  21  23
ENDBRANCH   1  17
TORSDOF 4
ENDMDL
MODEL 9
REMARK VINA RESULT:    -6.385      3.432      7.386
REMARK INTER + INTRA:          -8.816
REMARK INTER:                  -8.111
REMARK INTRA:                  -0.705
REMARK UNBOUND:                -0.938
REMARK  Name = 
REMARK  4 active torsions:
REMARK  status: ('A' for Active; 'I' for Inactive)
REMARK    1  A    between atoms: C_2  and  C_4
REMARK    2  A    between atoms: N_8  and  C_9
REMARK    3  A    between atoms: C_9  and  C_10
REMARK    4  A    between atoms: C_14  and  C_15
REMARK                            x       y       z     vdW  Elec       q    Type
REMARK                         _______ _______ _______ _____ _____    ______ ____
ROOT
ATOM      1  C   UNL     1      44.844   6.452  11.514  0.00  0.00    +0.000 C 
ATOM      2  C   UNL     1      43.714   7.418  11.176  0.00  0.00    +0.000 C 
ATOM      3  C   UNL     1      43.965   7.042  12.598  0.00  0.00    +0.000 C 
ENDROOT
BRANCH   1   8
ATOM      4  C   UNL     1      49.446   7.361  13.800  0.00  0.00    +0.000 A 
ATOM      5  C   UNL     1      48.211   7.056  14.364  0.00  0.00    +0.000 A 
ATOM      6  C   UNL     1      47.099   6.915  13.530  0.00  0.00    +0.000 A 
ATOM      7  C   UNL     1      47.246   7.045  12.153  0.00  0.00    +0.000 A 
ATOM      8  N   UNL     1      46.188   6.973  11.253  0.00  0.00    +0.000 N 
ATOM      9  N   UNL     1      48.445   7.325  11.597  0.00  0.00    +0.000 NA
ATOM     10  C   UNL     1      49.508   7.497  12.424  0.00  0.00    +0.000 A 
ATOM     11  H   UNL     1      46.562   6.942  10.311  0.00  0.00    +0.000 HD
BRANCH   4  13
ATOM     12  N   UNL     1      50.616   7.264  15.926  0.00  0.00    +0.000 N 
ATOM     13  C   UNL     1      50.666   7.592  14.599  0.00  0.00    +0.000 C 
ATOM     14  O   UNL     1      51.685   8.042  14.095  0.00  0.00    +0.000 OA
ATOM     15  H   UNL     1      51.480   7.351  16.442  0.00  0.00    +0.000 HD
ATOM     16  H   UNL     1      49.893   6.674  16.312  0.00  0.00    +0.000 HD
ENDBRANCH   4  13
ENDBRANCH   1   8
BRANCH   1  17
ATOM     17  C   UNL     1      44.683   4.980  11.149  0.00  0.00    +0.000 A 
ATOM     18  C   UNL     1      43.702   4.176  11.748  0.00  0.00    +0.000 A 
ATOM     19  C   UNL     1      43.470   2.870  11.318  0.00  0.00    +0.000 A 
ATOM     20  C   UNL     1      44.189   2.354  10.239  0.00  0.00    +0.000 A 
ATOM     21  C   UNL     1      45.167   3.122   9.587  0.00  0.00    +0.000 A 
ATOM     22  C   UNL     1      45.435   4.403  10.106  0.00  0.00    +0.000 A 
BRANCH  21  23
ATOM     23  C   UNL     1      45.819   2.663   8.346  0.00  0.00    +0.000 A 
ATOM     24  C   UNL     1      46.050   3.533   7.276  0.00  0.00    +0.000 A 
ATOM     25  C   UNL     1      46.740   3.078   6.158  0.00  0.00    +0.000 A 
ATOM     26  C   UNL     1      47.185   1.766   6.121  0.00  0.00    +0.000 A 
ATOM     27  C   UNL     1      46.924   0.964   7.219  0.00  0.00    +0.000 A 
ATOM     28  N   UNL     1      46.265   1.381   8.323  0.00  0.00    +0.000 NA
ENDBRANCH  21  23
ENDBRANCH   1  17
TORSDOF 4
ENDMDL
