MODEL 1
REMARK VINA RESULT:    -9.948      0.000      0.000
REMARK INTER + INTRA:         -14.270
REMARK INTER:                 -13.437
REMARK INTRA:                  -0.833
REMARK UNBOUND:                -0.833
REMARK  Name = 
REMARK  6 active torsions:
REMARK  status: ('A' for Active; 'I' for Inactive)
REMARK    1  A    between atoms: C_2  and  C_4
REMARK    2  A    between atoms: N_8  and  C_9
REMARK    3  A    between atoms: C_9  and  C_10
REMARK    4  A    between atoms: C_10  and  C_13
REMARK    5  A    between atoms: C_17  and  N_18
REMARK    6  A    between atoms: N_18  and  C_19
REMARK                            x       y       z     vdW  Elec       q    Type
REMARK                         _______ _______ _______ _____ _____    ______ ____
ROOT
ATOM      1  C   UNL     1      43.495   5.598  12.173  0.00  0.00    +0.000 C 
ATOM      2  F   UNL     1      43.154   6.775  11.563  0.00  0.00    +0.000 F 
ATOM      3  F   UNL     1      42.609   5.459  13.204  0.00  0.00    +0.000 F 
ENDROOT
BRANCH   1   4
ATOM      4  C   UNL     1      44.933   5.607  12.664  0.00  0.00    +0.000 A 
ATOM      5  C   UNL     1      45.866   6.504  12.128  0.00  0.00    +0.000 A 
ATOM      6  C   UNL     1      47.198   6.468  12.547  0.00  0.00    +0.000 A 
ATOM      7  C   UNL     1      47.613   5.530  13.497  0.00  0.00    +0.000 A 
ATOM      8  C   UNL     1      46.705   4.623  14.043  0.00  0.00    +0.000 A 
ATOM      9  C   UNL     1      45.363   4.688  13.639  0.00  0.00    +0.000 A 
BRANCH   8  10
ATOM     10  N   UNL     1      47.059   3.683  15.037  0.00  0.00    +0.000 N 
ATOM     11  H   UNL     1      46.323   2.979  15.094  0.00  0.00    +0.000 HD
BRANCH  10  12
ATOM     12  C   UNL     1      47.487   3.992  16.357  0.00  0.00    +0.000 C 
ATOM     13  C   UNL     1      48.639   3.067  16.802  0.00  0.00    +0.000 C 
ATOM     14  C   UNL     1      47.849   2.948  18.111  0.00  0.00    +0.000 C 
ATOM     15  N   UNL     1      46.636   3.329  17.353  0.00  0.00    +0.000 NA
ATOM     16  H   UNL     1      46.018   3.964  17.855  0.00  0.00    +0.000 HD
ENDBRANCH  10  12
ENDBRANCH   8  10
ENDBRANCH   1   4
BRANCH   1  17
ATOM     17  C   UNL     1      43.275   4.444  11.157  0.00  0.00    +0.000 C 
BRANCH  17  22
ATOM     18  C   UNL     1      46.479   2.500   7.693  0.00  0.00    +0.000 A 
ATOM     19  C   UNL     1      45.635   1.850   8.587  0.00  0.00    +0.000 A 
ATOM     20  C   UNL     1      44.712   2.597   9.319  0.00  0.00    +0.000 A 
ATOM     21  C   UNL     1      44.657   3.979   9.162  0.00  0.00    +0.000 A 
ATOM     22  N   UNL     1      43.712   4.772   9.791  0.00  0.00    +0.000 N 
ATOM     23  N   UNL     1      45.490   4.623   8.321  0.00  0.00    +0.000 NA
ATOM     24  C   UNL     1      46.384   3.880   7.610  0.00  0.00    +0.000 A 
ATOM     25  H   UNL     1      43.947   5.750   9.625  0.00  0.00    +0.000 HD
BRANCH  18  27
ATOM     26  N   UNL     1      48.538   2.485   6.405  0.00  0.00    +0.000 N 
ATOM     27  C   UNL     1      47.452   1.779   6.847  0.00  0.00    +0.000 C 
ATOM     28  O   UNL     1      47.310   0.592   6.579  0.00  0.00    +0.000 OA
ATOM     29  H   UNL     1      49.248   1.953   5.917  0.00  0.00    +0.000 HD
ATOM     30  H   UNL     1      48.813   3.367   6.808  0.00  0.00    +0.000 HD
ENDBRANCH  18  27
ENDBRANCH  17  22
ENDBRANCH   1  17
TORSDOF 6
ENDMDL
MODEL 2
REMARK VINA RESULT:    -8.913      2.125      2.917
REMARK INTER + INTRA:         -12.872
REMARK INTER:                 -12.028
REMARK INTRA:                  -0.844
REMARK UNBOUND:                -0.833
REMARK  Name = 
REMARK  6 active torsions:
REMARK  status: ('A' for Active; 'I' for Inactive)
REMARK    1  A    between atoms: C_2  and  C_4
REMARK    2  A    between atoms: N_8  and  C_9
REMARK    3  A    between atoms: C_9  and  C_10
REMARK    4  A    between atoms: C_10  and  C_13
REMARK    5  A    between atoms: C_17  and  N_18
REMARK    6  A    between atoms: N_18  and  C_19
REMARK                            x       y       z     vdW  Elec       q    Type
REMARK                         _______ _______ _______ _____ _____    ______ ____
ROOT
ATOM      1  C   UNL     1      43.431   5.531  12.179  0.00  0.00    +0.000 C 
ATOM      2  F   UNL     1      42.997   6.697  11.608  0.00  0.00    +0.000 F 
ATOM      3  F   UNL     1      42.607   5.327  13.249  0.00  0.00    +0.000 F 
ENDROOT
BRANCH   1   4
ATOM      4  C   UNL     1      44.889   5.611  12.598  0.00  0.00    +0.000 A 
ATOM      5  C   UNL     1      45.501   4.542  13.266  0.00  0.00    +0.000 A 
ATOM      6  C   UNL     1      46.825   4.645  13.695  0.00  0.00    +0.000 A 
ATOM      7  C   UNL     1      47.550   5.820  13.471  0.00  0.00    +0.000 A 
ATOM      8  C   UNL     1      46.963   6.900  12.811  0.00  0.00    +0.000 A 
ATOM      9  C   UNL     1      45.641   6.775  12.357  0.00  0.00    +0.000 A 
BRANCH   8  10
ATOM     10  N   UNL     1      47.660   8.095  12.519  0.00  0.00    +0.000 N 
ATOM     11  H   UNL     1      48.534   7.853  12.052  0.00  0.00    +0.000 HD
BRANCH  10  12
ATOM     12  C   UNL     1      47.917   9.150  13.434  0.00  0.00    +0.000 C 
ATOM     13  C   UNL     1      49.228   8.911  14.211  0.00  0.00    +0.000 C 
ATOM     14  C   UNL     1      48.410   9.325  15.441  0.00  0.00    +0.000 C 
ATOM     15  N   UNL     1      47.190   8.942  14.693  0.00  0.00    +0.000 NA
ATOM     16  H   UNL     1      46.407   9.579  14.827  0.00  0.00    +0.000 HD
ENDBRANCH  10  12
ENDBRANCH   8  10
ENDBRANCH   1   4
BRANCH   1  17
ATOM     17  C   UNL     1      43.222   4.383  11.153  0.00  0.00    +0.000 C 
BRANCH  17  22
ATOM     18  C   UNL     1      46.484   2.499   7.710  0.00  0.00    +0.000 A 
ATOM     19  C   UNL     1      45.643   1.833   8.595  0.00  0.00    +0.000 A 
ATOM     20  C   UNL     1      44.702   2.564   9.321  0.00  0.00    +0.000 A 
ATOM     21  C   UNL     1      44.628   3.945   9.169  0.00  0.00    +0.000 A 
ATOM     22  N   UNL     1      43.666   4.722   9.792  0.00  0.00    +0.000 N 
ATOM     23  N   UNL     1      45.459   4.605   8.338  0.00  0.00    +0.000 NA
ATOM     24  C   UNL     1      46.370   3.877   7.632  0.00  0.00    +0.000 A 
ATOM     25  H   UNL     1      43.888   5.704   9.632  0.00  0.00    +0.000 HD
BRANCH  18  27
ATOM     26  N   UNL     1      48.571   2.509   6.468  0.00  0.00    +0.000 N 
ATOM     27  C   UNL     1      47.476   1.796   6.871  0.00  0.00    +0.000 C 
ATOM     28  O   UNL     1      47.338   0.615   6.574  0.00  0.00    +0.000 OA
ATOM     29  H   UNL     1      49.292   1.987   5.985  0.00  0.00    +0.000 HD
ATOM     30  H   UNL     1      48.838   3.382   6.897  0.00  0.00    +0.000 HD
ENDBRANCH  18  27
ENDBRANCH  17  22
ENDBRANCH   1  17
TORSDOF 6
ENDMDL
MODEL 3
REMARK VINA RESULT:    -8.884      3.083      4.778
REMARK INTER + INTRA:         -12.833
REMARK INTER:                 -12.003
REMARK INTRA:                  -0.830
REMARK UNBOUND:                -0.833
REMARK  Name = 
REMARK  6 active torsions:
REMARK  status: ('A' for Active; 'I' for Inactive)
REMARK    1  A    between atoms: C_2  and  C_4
REMARK    2  A    between atoms: N_8  and  C_9
REMARK    3  A    between atoms: C_9  and  C_10
REMARK    4  A    between atoms: C_10  and  C_13
REMARK    5  A    between atoms: C_17  and  N_18
REMARK    6  A    between atoms: N_18  and  C_19
REMARK                            x       y       z     vdW  Elec       q    Type
REMARK                         _______ _______ _______ _____ _____    ______ ____
ROOT
ATOM      1  C   UNL     1      44.414   4.570  12.341  0.00  0.00    +0.000 C 
ATOM      2  F   UNL     1      43.784   4.475  13.552  0.00  0.00    +0.000 F 
ATOM      3  F   UNL     1      45.246   3.488  12.284  0.00  0.00    +0.000 F 
ENDROOT
BRANCH   1   4
ATOM      4  C   UNL     1      45.180   5.876  12.199  0.00  0.00    +0.000 A 
ATOM      5  C   UNL     1      46.568   5.874  12.013  0.00  0.00    +0.000 A 
ATOM      6  C   UNL     1      47.270   7.079  11.938  0.00  0.00    +0.000 A 
ATOM      7  C   UNL     1      46.594   8.297  12.057  0.00  0.00    +0.000 A 
ATOM      8  C   UNL     1      45.212   8.327  12.247  0.00  0.00    +0.000 A 
ATOM      9  C   UNL     1      44.512   7.111  12.290  0.00  0.00    +0.000 A 
BRANCH   8  10
ATOM     10  N   UNL     1      44.471   9.528  12.331  0.00  0.00    +0.000 N 
ATOM     11  H   UNL     1      43.625   9.349  12.872  0.00  0.00    +0.000 HD
BRANCH  10  12
ATOM     12  C   UNL     1      44.136  10.373  11.240  0.00  0.00    +0.000 C 
ATOM     13  C   UNL     1      42.715  10.952  11.397  0.00  0.00    +0.000 C 
ATOM     14  C   UNL     1      42.552  10.579   9.918  0.00  0.00    +0.000 C 
ATOM     15  N   UNL     1      43.639   9.590  10.102  0.00  0.00    +0.000 NA
ATOM     16  H   UNL     1      44.290   9.541   9.320  0.00  0.00    +0.000 HD
ENDBRANCH  10  12
ENDBRANCH   8  10
ENDBRANCH   1   4
BRANCH   1  17
ATOM     17  C   UNL     1      43.342   4.446  11.224  0.00  0.00    +0.000 C 
BRANCH  17  22
ATOM     18  C   UNL     1      46.480   2.520   7.692  0.00  0.00    +0.000 A 
ATOM     19  C   UNL     1      45.574   1.871   8.524  0.00  0.00    +0.000 A 
ATOM     20  C   UNL     1      44.688   2.631   9.289  0.00  0.00    +0.000 A 
ATOM     21  C   UNL     1      44.732   4.021   9.228  0.00  0.00    +0.000 A 
ATOM     22  N   UNL     1      43.831   4.834   9.893  0.00  0.00    +0.000 N 
ATOM     23  N   UNL     1      45.627   4.660   8.448  0.00  0.00    +0.000 NA
ATOM     24  C   UNL     1      46.483   3.905   7.703  0.00  0.00    +0.000 A 
ATOM     25  H   UNL     1      44.137   5.802   9.799  0.00  0.00    +0.000 HD
BRANCH  18  27
ATOM     26  N   UNL     1      48.465   2.503   6.291  0.00  0.00    +0.000 N 
ATOM     27  C   UNL     1      47.420   1.791   6.816  0.00  0.00    +0.000 C 
ATOM     28  O   UNL     1      47.289   0.593   6.594  0.00  0.00    +0.000 OA
ATOM     29  H   UNL     1      49.158   1.969   5.782  0.00  0.00    +0.000 HD
ATOM     30  H   UNL     1      48.743   3.403   6.651  0.00  0.00    +0.000 HD
ENDBRANCH  18  27
ENDBRANCH  17  22
ENDBRANCH   1  17
TORSDOF 6
ENDMDL
MODEL 4
REMARK VINA RESULT:    -8.530      2.617      4.409
REMARK INTER + INTRA:         -12.354
REMARK INTER:                 -11.609
REMARK INTRA:                  -0.746
REMARK UNBOUND:                -0.833
REMARK  Name = 
REMARK  6 active torsions:
REMARK  status: ('A' for Active; 'I' for Inactive)
REMARK    1  A    between atoms: C_2  and  C_4
REMARK    2  A    between atoms: N_8  and  C_9
REMARK    3  A    between atoms: C_9  and  C_10
REMARK    4  A    between atoms: C_10  and  C_13
REMARK    5  A    between atoms: C_17  and  N_18
REMARK    6  A    between atoms: N_18  and  C_19
REMARK                            x       y       z     vdW  Elec       q    Type
REMARK                         _______ _______ _______ _____ _____    ______ ____
ROOT
ATOM      1  C   UNL     1      43.351   4.596  12.509  0.00  0.00    +0.000 C 
ATOM      2  F   UNL     1      42.232   5.363  12.689  0.00  0.00    +0.000 F 
ATOM      3  F   UNL     1      43.244   3.586  13.423  0.00  0.00    +0.000 F 
ENDROOT
BRANCH   1   4
ATOM      4  C   UNL     1      44.628   5.397  12.702  0.00  0.00    +0.000 A 
ATOM      5  C   UNL     1      45.825   4.760  13.055  0.00  0.00    +0.000 A 
ATOM      6  C   UNL     1      46.980   5.510  13.283  0.00  0.00    +0.000 A 
ATOM      7  C   UNL     1      46.950   6.904  13.170  0.00  0.00    +0.000 A 
ATOM      8  C   UNL     1      45.770   7.562  12.824  0.00  0.00    +0.000 A 
ATOM      9  C   UNL     1      44.622   6.797  12.567  0.00  0.00    +0.000 A 
BRANCH   8  10
ATOM     10  N   UNL     1      45.692   8.963  12.653  0.00  0.00    +0.000 N 
ATOM     11  H   UNL     1      45.455   9.386  13.551  0.00  0.00    +0.000 HD
BRANCH  10  12
ATOM     12  C   UNL     1      44.963   9.635  11.636  0.00  0.00    +0.000 C 
ATOM     13  C   UNL     1      45.576  11.018  11.329  0.00  0.00    +0.000 C 
ATOM     14  C   UNL     1      44.124  11.513  11.366  0.00  0.00    +0.000 C 
ATOM     15  N   UNL     1      43.798  10.331  12.197  0.00  0.00    +0.000 NA
ATOM     16  H   UNL     1      42.907   9.897  11.964  0.00  0.00    +0.000 HD
ENDBRANCH  10  12
ENDBRANCH   8  10
ENDBRANCH   1   4
BRANCH   1  17
ATOM     17  C   UNL     1      43.299   3.993  11.078  0.00  0.00    +0.000 C 
BRANCH  17  22
ATOM     18  C   UNL     1      46.552   2.623   7.392  0.00  0.00    +0.000 A 
ATOM     19  C   UNL     1      46.200   3.891   7.841  0.00  0.00    +0.000 A 
ATOM     20  C   UNL     1      45.420   4.015   8.991  0.00  0.00    +0.000 A 
ATOM     21  C   UNL     1      44.988   2.875   9.663  0.00  0.00    +0.000 A 
ATOM     22  N   UNL     1      44.284   2.924  10.854  0.00  0.00    +0.000 N 
ATOM     23  N   UNL     1      45.297   1.640   9.221  0.00  0.00    +0.000 NA
ATOM     24  C   UNL     1      46.063   1.535   8.098  0.00  0.00    +0.000 A 
ATOM     25  H   UNL     1      43.974   1.981  11.086  0.00  0.00    +0.000 HD
BRANCH  18  27
ATOM     26  N   UNL     1      47.202   3.215   5.128  0.00  0.00    +0.000 N 
ATOM     27  C   UNL     1      47.411   2.405   6.211  0.00  0.00    +0.000 C 
ATOM     28  O   UNL     1      48.295   1.556   6.211  0.00  0.00    +0.000 OA
ATOM     29  H   UNL     1      47.866   3.126   4.369  0.00  0.00    +0.000 HD
ATOM     30  H   UNL     1      46.673   4.071   5.186  0.00  0.00    +0.000 HD
ENDBRANCH  18  27
ENDBRANCH  17  22
ENDBRANCH   1  17
TORSDOF 6
ENDMDL
MODEL 5
REMARK VINA RESULT:    -8.386      1.876      2.042
REMARK INTER + INTRA:         -12.160
REMARK INTER:                 -11.606
REMARK INTRA:                  -0.554
REMARK UNBOUND:                -0.833
REMARK  Name = 
REMARK  6 active torsions:
REMARK  status: ('A' for Active; 'I' for Inactive)
REMARK    1  A    between atoms: C_2  and  C_4
REMARK    2  A    between atoms: N_8  and  C_9
REMARK    3  A    between atoms: C_9  and  C_10
REMARK    4  A    between atoms: C_10  and  C_13
REMARK    5  A    between atoms: C_17  and  N_18
REMARK    6  A    between atoms: N_18  and  C_19
REMARK                            x       y       z     vdW  Elec       q    Type
REMARK                         _______ _______ _______ _____ _____    ______ ____
ROOT
ATOM      1  C   UNL     1      43.188   4.744  12.406  0.00  0.00    +0.000 C 
ATOM      2  F   UNL     1      41.988   5.342  12.132  0.00  0.00    +0.000 F 
ATOM      3  F   UNL     1      43.010   4.116  13.606  0.00  0.00    +0.000 F 
ENDROOT
BRANCH   1   4
ATOM      4  C   UNL     1      44.326   5.750  12.461  0.00  0.00    +0.000 A 
ATOM      5  C   UNL     1      44.290   6.914  11.682  0.00  0.00    +0.000 A 
ATOM      6  C   UNL     1      45.365   7.805  11.698  0.00  0.00    +0.000 A 
ATOM      7  C   UNL     1      46.490   7.539  12.485  0.00  0.00    +0.000 A 
ATOM      8  C   UNL     1      46.553   6.385  13.267  0.00  0.00    +0.000 A 
ATOM      9  C   UNL     1      45.455   5.512  13.267  0.00  0.00    +0.000 A 
BRANCH   8  10
ATOM     10  N   UNL     1      47.645   6.087  14.113  0.00  0.00    +0.000 N 
ATOM     11  H   UNL     1      47.476   5.182  14.552  0.00  0.00    +0.000 HD
BRANCH  10  12
ATOM     12  C   UNL     1      48.204   6.960  15.085  0.00  0.00    +0.000 C 
ATOM     13  C   UNL     1      49.744   6.977  15.001  0.00  0.00    +0.000 C 
ATOM     14  C   UNL     1      49.688   6.860  16.529  0.00  0.00    +0.000 C 
ATOM     15  N   UNL     1      48.331   6.286  16.383  0.00  0.00    +0.000 NA
ATOM     16  H   UNL     1      47.668   6.612  17.083  0.00  0.00    +0.000 HD
ENDBRANCH  10  12
ENDBRANCH   8  10
ENDBRANCH   1   4
BRANCH   1  17
ATOM     17  C   UNL     1      43.460   3.677  11.310  0.00  0.00    +0.000 C 
BRANCH  17  22
ATOM     18  C   UNL     1      46.649   2.729   7.441  0.00  0.00    +0.000 A 
ATOM     19  C   UNL     1      45.970   1.843   8.271  0.00  0.00    +0.000 A 
ATOM     20  C   UNL     1      45.005   2.337   9.150  0.00  0.00    +0.000 A 
ATOM     21  C   UNL     1      44.748   3.703   9.202  0.00  0.00    +0.000 A 
ATOM     22  N   UNL     1      43.749   4.253   9.988  0.00  0.00    +0.000 N 
ATOM     23  N   UNL     1      45.422   4.574   8.425  0.00  0.00    +0.000 NA
ATOM     24  C   UNL     1      46.358   4.077   7.568  0.00  0.00    +0.000 A 
ATOM     25  H   UNL     1      43.834   5.268   9.957  0.00  0.00    +0.000 HD
BRANCH  18  27
ATOM     26  N   UNL     1      47.725   2.987   5.279  0.00  0.00    +0.000 N 
ATOM     27  C   UNL     1      47.651   2.284   6.451  0.00  0.00    +0.000 C 
ATOM     28  O   UNL     1      48.405   1.346   6.682  0.00  0.00    +0.000 OA
ATOM     29  H   UNL     1      48.485   2.739   4.657  0.00  0.00    +0.000 HD
ATOM     30  H   UNL     1      47.310   3.899   5.166  0.00  0.00    +0.000 HD
ENDBRANCH  18  27
ENDBRANCH  17  22
ENDBRANCH   1  17
TORSDOF 6
ENDMDL
MODEL 6
REMARK VINA RESULT:    -8.353      2.657      3.449
REMARK INTER + INTRA:         -12.116
REMARK INTER:                 -11.566
REMARK INTRA:                  -0.549
REMARK UNBOUND:                -0.833
REMARK  Name = 
REMARK  6 active torsions:
REMARK  status: ('A' for Active; 'I' for Inactive)
REMARK    1  A    between atoms: C_2  and  C_4
REMARK    2  A    between atoms: N_8  and  C_9
REMARK    3  A    between atoms: C_9  and  C_10
REMARK    4  A    between atoms: C_10  and  C_13
REMARK    5  A    between atoms: C_17  and  N_18
REMARK    6  A    between atoms: N_18  and  C_19
REMARK                            x       y       z     vdW  Elec       q    Type
REMARK                         _______ _______ _______ _____ _____    ______ ____
ROOT
ATOM      1  C   UNL     1      44.339   4.428  12.295  0.00  0.00    +0.000 C 
ATOM      2  F   UNL     1      43.694   4.237  13.486  0.00  0.00    +0.000 F 
ATOM      3  F   UNL     1      45.168   3.351  12.158  0.00  0.00    +0.000 F 
ENDROOT
BRANCH   1   4
ATOM      4  C   UNL     1      45.111   5.738  12.269  0.00  0.00    +0.000 A 
ATOM      5  C   UNL     1      44.452   6.951  12.027  0.00  0.00    +0.000 A 
ATOM      6  C   UNL     1      45.177   8.142  11.952  0.00  0.00    +0.000 A 
ATOM      7  C   UNL     1      46.566   8.133  12.107  0.00  0.00    +0.000 A 
ATOM      8  C   UNL     1      47.246   6.938  12.344  0.00  0.00    +0.000 A 
ATOM      9  C   UNL     1      46.506   5.751  12.448  0.00  0.00    +0.000 A 
BRANCH   8  10
ATOM     10  N   UNL     1      48.643   6.875  12.550  0.00  0.00    +0.000 N 
ATOM     11  H   UNL     1      48.818   6.397  13.435  0.00  0.00    +0.000 HD
BRANCH  10  12
ATOM     12  C   UNL     1      49.548   7.966  12.443  0.00  0.00    +0.000 C 
ATOM     13  C   UNL     1      50.477   7.803  11.222  0.00  0.00    +0.000 C 
ATOM     14  C   UNL     1      51.591   8.215  12.192  0.00  0.00    +0.000 C 
ATOM     15  N   UNL     1      50.721   7.761  13.301  0.00  0.00    +0.000 NA
ATOM     16  H   UNL     1      50.744   8.367  14.119  0.00  0.00    +0.000 HD
ENDBRANCH  10  12
ENDBRANCH   8  10
ENDBRANCH   1   4
BRANCH   1  17
ATOM     17  C   UNL     1      43.279   4.400  11.159  0.00  0.00    +0.000 C 
BRANCH  17  22
ATOM     18  C   UNL     1      46.493   2.531   7.663  0.00  0.00    +0.000 A 
ATOM     19  C   UNL     1      45.559   1.872   8.455  0.00  0.00    +0.000 A 
ATOM     20  C   UNL     1      44.660   2.621   9.215  0.00  0.00    +0.000 A 
ATOM     21  C   UNL     1      44.718   4.011   9.190  0.00  0.00    +0.000 A 
ATOM     22  N   UNL     1      43.807   4.816   9.851  0.00  0.00    +0.000 N 
ATOM     23  N   UNL     1      45.639   4.661   8.450  0.00  0.00    +0.000 NA
ATOM     24  C   UNL     1      46.508   3.916   7.710  0.00  0.00    +0.000 A 
ATOM     25  H   UNL     1      44.125   5.783   9.790  0.00  0.00    +0.000 HD
BRANCH  18  27
ATOM     26  N   UNL     1      48.521   2.526   6.327  0.00  0.00    +0.000 N 
ATOM     27  C   UNL     1      47.449   1.816   6.795  0.00  0.00    +0.000 C 
ATOM     28  O   UNL     1      47.306   0.628   6.529  0.00  0.00    +0.000 OA
ATOM     29  H   UNL     1      49.222   1.997   5.823  0.00  0.00    +0.000 HD
ATOM     30  H   UNL     1      48.802   3.409   6.725  0.00  0.00    +0.000 HD
ENDBRANCH  18  27
ENDBRANCH  17  22
ENDBRANCH   1  17
TORSDOF 6
ENDMDL
MODEL 7
REMARK VINA RESULT:    -7.673      3.144      8.053
REMARK INTER + INTRA:         -11.197
REMARK INTER:                 -10.531
REMARK INTRA:                  -0.666
REMARK UNBOUND:                -0.833
REMARK  Name = 
REMARK  6 active torsions:
REMARK  status: ('A' for Active; 'I' for Inactive)
REMARK    1  A    between atoms: C_2  and  C_4
REMARK    2  A    between atoms: N_8  and  C_9
REMARK    3  A    between atoms: C_9  and  C_10
REMARK    4  A    between atoms: C_10  and  C_13
REMARK    5  A    between atoms: C_17  and  N_18
REMARK    6  A    between atoms: N_18  and  C_19
REMARK                            x       y       z     vdW  Elec       q    Type
REMARK                         _______ _______ _______ _____ _____    ______ ____
ROOT
ATOM      1  C   UNL     1      45.778   6.249  11.559  0.00  0.00    +0.000 C 
ATOM      2  F   UNL     1      44.948   7.330  11.432  0.00  0.00    +0.000 F 
ATOM      3  F   UNL     1      46.982   6.662  11.063  0.00  0.00    +0.000 F 
ENDROOT
BRANCH   1   4
ATOM      4  C   UNL     1      45.249   5.034  10.814  0.00  0.00    +0.000 A 
ATOM      5  C   UNL     1      44.482   4.067  11.477  0.00  0.00    +0.000 A 
ATOM      6  C   UNL     1      44.046   2.928  10.798  0.00  0.00    +0.000 A 
ATOM      7  C   UNL     1      44.379   2.738   9.453  0.00  0.00    +0.000 A 
ATOM      8  C   UNL     1      45.145   3.683   8.772  0.00  0.00    +0.000 A 
ATOM      9  C   UNL     1      45.552   4.840   9.455  0.00  0.00    +0.000 A 
BRANCH   8  10
ATOM     10  N   UNL     1      45.476   3.564   7.402  0.00  0.00    +0.000 N 
ATOM     11  H   UNL     1      44.909   2.820   6.996  0.00  0.00    +0.000 HD
BRANCH  10  12
ATOM     12  C   UNL     1      46.790   3.468   6.872  0.00  0.00    +0.000 C 
ATOM     13  C   UNL     1      46.777   2.866   5.451  0.00  0.00    +0.000 C 
ATOM     14  C   UNL     1      47.947   2.011   5.955  0.00  0.00    +0.000 C 
ATOM     15  N   UNL     1      47.453   2.241   7.332  0.00  0.00    +0.000 NA
ATOM     16  H   UNL     1      48.193   2.403   8.013  0.00  0.00    +0.000 HD
ENDBRANCH  10  12
ENDBRANCH   8  10
ENDBRANCH   1   4
BRANCH   1  17
ATOM     17  C   UNL     1      45.934   5.933  13.072  0.00  0.00    +0.000 C 
BRANCH  17  22
ATOM     18  C   UNL     1      48.534   4.439  17.201  0.00  0.00    +0.000 A 
ATOM     19  C   UNL     1      47.484   3.813  16.537  0.00  0.00    +0.000 A 
ATOM     20  C   UNL     1      47.048   4.327  15.315  0.00  0.00    +0.000 A 
ATOM     21  C   UNL     1      47.651   5.464  14.785  0.00  0.00    +0.000 A 
ATOM     22  N   UNL     1      47.327   5.979  13.542  0.00  0.00    +0.000 N 
ATOM     23  N   UNL     1      48.648   6.097  15.435  0.00  0.00    +0.000 NA
ATOM     24  C   UNL     1      49.066   5.581  16.625  0.00  0.00    +0.000 A 
ATOM     25  H   UNL     1      47.803   6.873  13.427  0.00  0.00    +0.000 HD
BRANCH  18  27
ATOM     26  N   UNL     1      48.281   3.119  19.224  0.00  0.00    +0.000 N 
ATOM     27  C   UNL     1      49.085   3.934  18.475  0.00  0.00    +0.000 C 
ATOM     28  O   UNL     1      50.225   4.207  18.831  0.00  0.00    +0.000 OA
ATOM     29  H   UNL     1      48.709   2.696  20.039  0.00  0.00    +0.000 HD
ATOM     30  H   UNL     1      47.457   2.676  18.848  0.00  0.00    +0.000 HD
ENDBRANCH  18  27
ENDBRANCH  17  22
ENDBRANCH   1  17
TORSDOF 6
ENDMDL
MODEL 8
REMARK VINA RESULT:    -7.517      3.382      8.142
REMARK INTER + INTRA:         -10.987
REMARK INTER:                 -10.323
REMARK INTRA:                  -0.664
REMARK UNBOUND:                -0.833
REMARK  Name = 
REMARK  6 active torsions:
REMARK  status: ('A' for Active; 'I' for Inactive)
REMARK    1  A    between atoms: C_2  and  C_4
REMARK    2  A    between atoms: N_8  and  C_9
REMARK    3  A    between atoms: C_9  and  C_10
REMARK    4  A    between atoms: C_10  and  C_13
REMARK    5  A    between atoms: C_17  and  N_18
REMARK    6  A    between atoms: N_18  and  C_19
REMARK                            x       y       z     vdW  Elec       q    Type
REMARK                         _______ _______ _______ _____ _____    ______ ____
ROOT
ATOM      1  C   UNL     1      46.404   6.364  12.498  0.00  0.00    +0.000 C 
ATOM      2  F   UNL     1      46.037   7.467  13.220  0.00  0.00    +0.000 F 
ATOM      3  F   UNL     1      47.079   6.853  11.416  0.00  0.00    +0.000 F 
ENDROOT
BRANCH   1   4
ATOM      4  C   UNL     1      45.203   5.531  12.082  0.00  0.00    +0.000 A 
ATOM      5  C   UNL     1      43.907   5.905  12.461  0.00  0.00    +0.000 A 
ATOM      6  C   UNL     1      42.815   5.104  12.121  0.00  0.00    +0.000 A 
ATOM      7  C   UNL     1      43.007   3.917  11.407  0.00  0.00    +0.000 A 
ATOM      8  C   UNL     1      44.287   3.519  11.021  0.00  0.00    +0.000 A 
ATOM      9  C   UNL     1      45.374   4.347  11.342  0.00  0.00    +0.000 A 
BRANCH   8  10
ATOM     10  N   UNL     1      44.536   2.353  10.262  0.00  0.00    +0.000 N 
ATOM     11  H   UNL     1      45.372   1.899  10.631  0.00  0.00    +0.000 HD
BRANCH  10  12
ATOM     12  C   UNL     1      44.573   2.279   8.844  0.00  0.00    +0.000 C 
ATOM     13  C   UNL     1      46.024   2.186   8.327  0.00  0.00    +0.000 C 
ATOM     14  C   UNL     1      45.578   3.240   7.306  0.00  0.00    +0.000 C 
ATOM     15  N   UNL     1      44.498   3.617   8.246  0.00  0.00    +0.000 NA
ATOM     16  H   UNL     1      43.608   3.817   7.793  0.00  0.00    +0.000 HD
ENDBRANCH  10  12
ENDBRANCH   8  10
ENDBRANCH   1   4
BRANCH   1  17
ATOM     17  C   UNL     1      47.377   5.519  13.365  0.00  0.00    +0.000 C 
BRANCH  17  22
ATOM     18  C   UNL     1      48.639   4.568  18.217  0.00  0.00    +0.000 A 
ATOM     19  C   UNL     1      48.947   5.663  17.417  0.00  0.00    +0.000 A 
ATOM     20  C   UNL     1      48.335   5.788  16.169  0.00  0.00    +0.000 A 
ATOM     21  C   UNL     1      47.445   4.812  15.731  0.00  0.00    +0.000 A 
ATOM     22  N   UNL     1      46.740   4.913  14.543  0.00  0.00    +0.000 N 
ATOM     23  N   UNL     1      47.162   3.731  16.485  0.00  0.00    +0.000 NA
ATOM     24  C   UNL     1      47.764   3.625  17.703  0.00  0.00    +0.000 A 
ATOM     25  H   UNL     1      46.254   4.032  14.379  0.00  0.00    +0.000 HD
BRANCH  18  27
ATOM     26  N   UNL     1      48.456   3.679  20.470  0.00  0.00    +0.000 N 
ATOM     27  C   UNL     1      49.206   4.384  19.568  0.00  0.00    +0.000 C 
ATOM     28  O   UNL     1      50.314   4.818  19.861  0.00  0.00    +0.000 OA
ATOM     29  H   UNL     1      48.901   3.470  21.355  0.00  0.00    +0.000 HD
ATOM     30  H   UNL     1      47.677   3.102  20.193  0.00  0.00    +0.000 HD
ENDBRANCH  18  27
ENDBRANCH  17  22
ENDBRANCH   1  17
TORSDOF 6
ENDMDL
MODEL 9
REMARK VINA RESULT:    -7.147      2.859      7.026
REMARK INTER + INTRA:         -10.487
REMARK INTER:                  -9.795
REMARK INTRA:                  -0.692
REMARK UNBOUND:                -0.833
REMARK  Name = 
REMARK  6 active torsions:
REMARK  status: ('A' for Active; 'I' for Inactive)
REMARK    1  A    between atoms: C_2  and  C_4
REMARK    2  A    between atoms: N_8  and  C_9
REMARK    3  A    between atoms: C_9  and  C_10
REMARK    4  A    between atoms: C_10  and  C_13
REMARK    5  A    between atoms: C_17  and  N_18
REMARK    6  A    between atoms: N_18  and  C_19
REMARK                            x       y       z     vdW  Elec       q    Type
REMARK                         _______ _______ _______ _____ _____    ______ ____
ROOT
ATOM      1  C   UNL     1      45.613   7.130  11.938  0.00  0.00    +0.000 C 
ATOM      2  F   UNL     1      45.620   7.577  13.232  0.00  0.00    +0.000 F 
ATOM      3  F   UNL     1      45.139   8.177  11.199  0.00  0.00    +0.000 F 
ENDROOT
BRANCH   1   4
ATOM      4  C   UNL     1      44.754   5.888  11.770  0.00  0.00    +0.000 A 
ATOM      5  C   UNL     1      43.743   5.587  12.692  0.00  0.00    +0.000 A 
ATOM      6  C   UNL     1      42.995   4.416  12.559  0.00  0.00    +0.000 A 
ATOM      7  C   UNL     1      43.255   3.528  11.511  0.00  0.00    +0.000 A 
ATOM      8  C   UNL     1      44.259   3.802  10.581  0.00  0.00    +0.000 A 
ATOM      9  C   UNL     1      44.984   4.997  10.706  0.00  0.00    +0.000 A 
BRANCH   8  10
ATOM     10  N   UNL     1      44.536   2.963   9.478  0.00  0.00    +0.000 N 
ATOM     11  H   UNL     1      44.056   2.074   9.618  0.00  0.00    +0.000 HD
BRANCH  10  12
ATOM     12  C   UNL     1      45.824   2.698   8.941  0.00  0.00    +0.000 C 
ATOM     13  C   UNL     1      45.913   3.129   7.462  0.00  0.00    +0.000 C 
ATOM     14  C   UNL     1      46.597   1.771   7.254  0.00  0.00    +0.000 C 
ATOM     15  N   UNL     1      45.928   1.305   8.490  0.00  0.00    +0.000 NA
ATOM     16  H   UNL     1      46.517   0.722   9.083  0.00  0.00    +0.000 HD
ENDBRANCH  10  12
ENDBRANCH   8  10
ENDBRANCH   1   4
BRANCH   1  17
ATOM     17  C   UNL     1      47.080   6.836  11.519  0.00  0.00    +0.000 C 
BRANCH  17  22
ATOM     18  C   UNL     1      47.566   4.257  15.895  0.00  0.00    +0.000 A 
ATOM     19  C   UNL     1      47.132   3.818  14.648  0.00  0.00    +0.000 A 
ATOM     20  C   UNL     1      47.256   4.667  13.547  0.00  0.00    +0.000 A 
ATOM     21  C   UNL     1      47.790   5.942  13.709  0.00  0.00    +0.000 A 
ATOM     22  N   UNL     1      48.019   6.803  12.650  0.00  0.00    +0.000 N 
ATOM     23  N   UNL     1      48.185   6.388  14.918  0.00  0.00    +0.000 NA
ATOM     24  C   UNL     1      48.062   5.547  15.983  0.00  0.00    +0.000 A 
ATOM     25  H   UNL     1      48.293   7.711  13.024  0.00  0.00    +0.000 HD
BRANCH  18  27
ATOM     26  N   UNL     1      48.679   3.234  17.796  0.00  0.00    +0.000 N 
ATOM     27  C   UNL     1      47.513   3.406  17.101  0.00  0.00    +0.000 C 
ATOM     28  O   UNL     1      46.463   2.902  17.482  0.00  0.00    +0.000 OA
ATOM     29  H   UNL     1      48.606   2.738  18.676  0.00  0.00    +0.000 HD
ATOM     30  H   UNL     1      49.483   3.827  17.662  0.00  0.00    +0.000 HD
ENDBRANCH  18  27
ENDBRANCH  17  22
ENDBRANCH   1  17
TORSDOF 6
ENDMDL
