MODEL 1
REMARK VINA RESULT:    -9.138      0.000      0.000
REMARK INTER + INTRA:         -12.593
REMARK INTER:                 -12.343
REMARK INTRA:                  -0.250
REMARK UNBOUND:                -0.250
REMARK  Name = 
REMARK  6 active torsions:
REMARK  status: ('A' for Active; 'I' for Inactive)
REMARK    1  A    between atoms: C_2  and  C_3
REMARK    2  A    between atoms: C_6  and  N_7
REMARK    3  A    between atoms: N_7  and  C_8
REMARK    4  A    between atoms: C_8  and  C_9
REMARK    5  A    between atoms: C_13  and  N_14
REMARK    6  A    between atoms: C_17  and  C_18
REMARK                            x       y       z     vdW  Elec       q    Type
REMARK                         _______ _______ _______ _____ _____    ______ ____
ROOT
ATOM      1  C   UNL     1      45.169   5.576  11.883  0.00  0.00    +0.000 A 
ATOM      2  C   UNL     1      45.658   6.722  11.239  0.00  0.00    +0.000 A 
ATOM      3  C   UNL     1      46.735   7.430  11.759  0.00  0.00    +0.000 A 
ATOM      4  C   UNL     1      47.350   6.990  12.931  0.00  0.00    +0.000 A 
ATOM      5  C   UNL     1      46.942   5.818  13.583  0.00  0.00    +0.000 A 
ATOM      6  C   UNL     1      45.858   5.125  13.027  0.00  0.00    +0.000 A 
ENDROOT
BRANCH   5   7
ATOM      7  N   UNL     1      47.594   5.377  14.719  0.00  0.00    +0.000 N 
ATOM      8  C   UNL     1      47.418   4.004  15.187  0.00  0.00    +0.000 C 
ATOM      9  C   UNL     1      47.119   4.061  16.684  0.00  0.00    +0.000 C 
ATOM     10  C   UNL     1      48.241   4.789  17.441  0.00  0.00    +0.000 C 
ATOM     11  C   UNL     1      48.516   6.168  16.818  0.00  0.00    +0.000 C 
ATOM     12  C   UNL     1      48.722   6.101  15.300  0.00  0.00    +0.000 C 
BRANCH  10  13
ATOM     13  C   UNL     1      49.508   3.946  17.500  0.00  0.00    +0.000 C 
ATOM     14  N   UNL     1      49.391   2.766  18.175  0.00  0.00    +0.000 N 
ATOM     15  O   UNL     1      50.584   4.270  17.008  0.00  0.00    +0.000 OA
ATOM     16  H   UNL     1      48.581   2.529  18.732  0.00  0.00    +0.000 HD
ATOM     17  H   UNL     1      50.227   2.208  18.279  0.00  0.00    +0.000 HD
ENDBRANCH  10  13
ENDBRANCH   5   7
BRANCH   1  18
ATOM     18  C   UNL     1      43.883   4.913  11.412  0.00  0.00    +0.000 C 
ATOM     19  C   UNL     1      43.270   3.785  12.241  0.00  0.00    +0.000 C 
ATOM     20  C   UNL     1      42.681   5.154  12.308  0.00  0.00    +0.000 C 
BRANCH  18  21
ATOM     21  N   UNL     1      43.801   4.673   9.966  0.00  0.00    +0.000 N 
ATOM     22  H   UNL     1      42.887   4.381   9.628  0.00  0.00    +0.000 HD
BRANCH  21  26
ATOM     23  C   UNL     1      46.622   2.691   7.605  0.00  0.00    +0.000 A 
ATOM     24  C   UNL     1      46.532   4.078   7.640  0.00  0.00    +0.000 A 
ATOM     25  N   UNL     1      45.647   4.768   8.410  0.00  0.00    +0.000 NA
ATOM     26  C   UNL     1      44.816   4.056   9.204  0.00  0.00    +0.000 A 
ATOM     27  C   UNL     1      44.864   2.653   9.218  0.00  0.00    +0.000 A 
ATOM     28  F   UNL     1      44.027   1.956  10.001  0.00  0.00    +0.000 F 
ATOM     29  C   UNL     1      45.761   1.963   8.415  0.00  0.00    +0.000 A 
BRANCH  23  31
ATOM     30  N   UNL     1      48.318   1.506   6.049  0.00  0.00    +0.000 NA
ATOM     31  C   UNL     1      47.554   2.036   6.742  0.00  0.00    +0.000 C 
ENDBRANCH  23  31
ENDBRANCH  21  26
ENDBRANCH  18  21
ENDBRANCH   1  18
TORSDOF 6
ENDMDL
MODEL 2
REMARK VINA RESULT:    -8.691      0.995      1.415
REMARK INTER + INTRA:         -11.990
REMARK INTER:                 -12.138
REMARK INTRA:                   0.148
REMARK UNBOUND:                -0.250
REMARK  Name = 
REMARK  6 active torsions:
REMARK  status: ('A' for Active; 'I' for Inactive)
REMARK    1  A    between atoms: C_2  and  C_3
REMARK    2  A    between atoms: C_6  and  N_7
REMARK    3  A    between atoms: N_7  and  C_8
REMARK    4  A    between atoms: C_8  and  C_9
REMARK    5  A    between atoms: C_13  and  N_14
REMARK    6  A    between atoms: C_17  and  C_18
REMARK                            x       y       z     vdW  Elec       q    Type
REMARK                         _______ _______ _______ _____ _____    ______ ____
ROOT
ATOM      1  C   UNL     1      45.478   5.333  12.339  0.00  0.00    +0.000 A 
ATOM      2  C   UNL     1      46.248   6.251  11.610  0.00  0.00    +0.000 A 
ATOM      3  C   UNL     1      47.424   6.773  12.134  0.00  0.00    +0.000 A 
ATOM      4  C   UNL     1      47.857   6.370  13.396  0.00  0.00    +0.000 A 
ATOM      5  C   UNL     1      47.160   5.410  14.143  0.00  0.00    +0.000 A 
ATOM      6  C   UNL     1      45.982   4.899  13.581  0.00  0.00    +0.000 A 
ENDROOT
BRANCH   5   7
ATOM      7  N   UNL     1      47.630   4.993  15.375  0.00  0.00    +0.000 N 
ATOM      8  C   UNL     1      48.389   5.907  16.225  0.00  0.00    +0.000 C 
ATOM      9  C   UNL     1      49.637   5.167  16.701  0.00  0.00    +0.000 C 
ATOM     10  C   UNL     1      49.259   3.872  17.438  0.00  0.00    +0.000 C 
ATOM     11  C   UNL     1      48.322   3.006  16.579  0.00  0.00    +0.000 C 
ATOM     12  C   UNL     1      47.124   3.792  16.034  0.00  0.00    +0.000 C 
BRANCH  10  13
ATOM     13  C   UNL     1      48.645   4.168  18.800  0.00  0.00    +0.000 C 
ATOM     14  N   UNL     1      48.220   3.075  19.498  0.00  0.00    +0.000 N 
ATOM     15  O   UNL     1      48.503   5.292  19.270  0.00  0.00    +0.000 OA
ATOM     16  H   UNL     1      48.166   2.151  19.092  0.00  0.00    +0.000 HD
ATOM     17  H   UNL     1      47.759   3.241  20.382  0.00  0.00    +0.000 HD
ENDBRANCH  10  13
ENDBRANCH   5   7
BRANCH   1  18
ATOM     18  C   UNL     1      44.104   4.906  11.840  0.00  0.00    +0.000 C 
ATOM     19  C   UNL     1      43.347   3.801  12.576  0.00  0.00    +0.000 C 
ATOM     20  C   UNL     1      42.960   5.226  12.786  0.00  0.00    +0.000 C 
BRANCH  18  21
ATOM     21  N   UNL     1      43.971   4.821  10.382  0.00  0.00    +0.000 N 
ATOM     22  H   UNL     1      43.021   4.694  10.041  0.00  0.00    +0.000 HD
BRANCH  21  26
ATOM     23  C   UNL     1      46.457   2.678   7.795  0.00  0.00    +0.000 A 
ATOM     24  C   UNL     1      46.469   4.067   7.847  0.00  0.00    +0.000 A 
ATOM     25  N   UNL     1      45.696   4.808   8.688  0.00  0.00    +0.000 NA
ATOM     26  C   UNL     1      44.880   4.145   9.539  0.00  0.00    +0.000 A 
ATOM     27  C   UNL     1      44.829   2.742   9.538  0.00  0.00    +0.000 A 
ATOM     28  F   UNL     1      44.007   2.095  10.378  0.00  0.00    +0.000 F 
ATOM     29  C   UNL     1      45.612   2.001   8.663  0.00  0.00    +0.000 A 
BRANCH  23  31
ATOM     30  N   UNL     1      47.938   1.392   6.106  0.00  0.00    +0.000 NA
ATOM     31  C   UNL     1      47.272   1.971   6.858  0.00  0.00    +0.000 C 
ENDBRANCH  23  31
ENDBRANCH  21  26
ENDBRANCH  18  21
ENDBRANCH   1  18
TORSDOF 6
ENDMDL
MODEL 3
REMARK VINA RESULT:    -8.653      2.483      3.600
REMARK INTER + INTRA:         -11.938
REMARK INTER:                 -10.841
REMARK INTRA:                  -1.097
REMARK UNBOUND:                -0.250
REMARK  Name = 
REMARK  6 active torsions:
REMARK  status: ('A' for Active; 'I' for Inactive)
REMARK    1  A    between atoms: C_2  and  C_3
REMARK    2  A    between atoms: C_6  and  N_7
REMARK    3  A    between atoms: N_7  and  C_8
REMARK    4  A    between atoms: C_8  and  C_9
REMARK    5  A    between atoms: C_13  and  N_14
REMARK    6  A    between atoms: C_17  and  C_18
REMARK                            x       y       z     vdW  Elec       q    Type
REMARK                         _______ _______ _______ _____ _____    ______ ____
ROOT
ATOM      1  C   UNL     1      44.865   5.004  11.984  0.00  0.00    +0.000 A 
ATOM      2  C   UNL     1      45.108   3.767  12.600  0.00  0.00    +0.000 A 
ATOM      3  C   UNL     1      46.292   3.531  13.287  0.00  0.00    +0.000 A 
ATOM      4  C   UNL     1      47.250   4.540  13.381  0.00  0.00    +0.000 A 
ATOM      5  C   UNL     1      47.034   5.814  12.836  0.00  0.00    +0.000 A 
ATOM      6  C   UNL     1      45.826   6.020  12.156  0.00  0.00    +0.000 A 
ENDROOT
BRANCH   5   7
ATOM      7  N   UNL     1      47.980   6.813  12.977  0.00  0.00    +0.000 N 
ATOM      8  C   UNL     1      48.382   7.619  11.827  0.00  0.00    +0.000 C 
ATOM      9  C   UNL     1      49.909   7.661  11.803  0.00  0.00    +0.000 C 
ATOM     10  C   UNL     1      50.463   8.221  13.123  0.00  0.00    +0.000 C 
ATOM     11  C   UNL     1      49.889   7.455  14.326  0.00  0.00    +0.000 C 
ATOM     12  C   UNL     1      48.361   7.345  14.284  0.00  0.00    +0.000 C 
BRANCH  10  13
ATOM     13  C   UNL     1      50.203   9.717  13.242  0.00  0.00    +0.000 C 
ATOM     14  N   UNL     1      50.431  10.440  12.108  0.00  0.00    +0.000 N 
ATOM     15  O   UNL     1      49.832  10.279  14.267  0.00  0.00    +0.000 OA
ATOM     16  H   UNL     1      50.887  10.055  11.293  0.00  0.00    +0.000 HD
ATOM     17  H   UNL     1      50.320  11.443  12.169  0.00  0.00    +0.000 HD
ENDBRANCH  10  13
ENDBRANCH   5   7
BRANCH   1  18
ATOM     18  C   UNL     1      43.653   5.195  11.082  0.00  0.00    +0.000 C 
ATOM     19  C   UNL     1      42.309   5.580  11.700  0.00  0.00    +0.000 C 
ATOM     20  C   UNL     1      43.131   6.620  11.017  0.00  0.00    +0.000 C 
BRANCH  18  21
ATOM     21  N   UNL     1      43.528   4.219   9.994  0.00  0.00    +0.000 N 
ATOM     22  H   UNL     1      42.857   3.472  10.160  0.00  0.00    +0.000 HD
BRANCH  21  26
ATOM     23  C   UNL     1      46.575   2.603   7.635  0.00  0.00    +0.000 A 
ATOM     24  C   UNL     1      46.330   3.970   7.689  0.00  0.00    +0.000 A 
ATOM     25  N   UNL     1      45.366   4.545   8.459  0.00  0.00    +0.000 NA
ATOM     26  C   UNL     1      44.613   3.732   9.234  0.00  0.00    +0.000 A 
ATOM     27  C   UNL     1      44.817   2.343   9.228  0.00  0.00    +0.000 A 
ATOM     28  F   UNL     1      44.057   1.544   9.992  0.00  0.00    +0.000 F 
ATOM     29  C   UNL     1      45.794   1.770   8.425  0.00  0.00    +0.000 A 
BRANCH  23  31
ATOM     30  N   UNL     1      48.392   1.636   6.066  0.00  0.00    +0.000 NA
ATOM     31  C   UNL     1      47.582   2.070   6.773  0.00  0.00    +0.000 C 
ENDBRANCH  23  31
ENDBRANCH  21  26
ENDBRANCH  18  21
ENDBRANCH   1  18
TORSDOF 6
ENDMDL
MODEL 4
REMARK VINA RESULT:    -7.906      2.651      3.122
REMARK INTER + INTRA:         -10.929
REMARK INTER:                 -10.633
REMARK INTRA:                  -0.297
REMARK UNBOUND:                -0.250
REMARK  Name = 
REMARK  6 active torsions:
REMARK  status: ('A' for Active; 'I' for Inactive)
REMARK    1  A    between atoms: C_2  and  C_3
REMARK    2  A    between atoms: C_6  and  N_7
REMARK    3  A    between atoms: N_7  and  C_8
REMARK    4  A    between atoms: C_8  and  C_9
REMARK    5  A    between atoms: C_13  and  N_14
REMARK    6  A    between atoms: C_17  and  C_18
REMARK                            x       y       z     vdW  Elec       q    Type
REMARK                         _______ _______ _______ _____ _____    ______ ____
ROOT
ATOM      1  C   UNL     1      44.724   6.412  11.459  0.00  0.00    +0.000 A 
ATOM      2  C   UNL     1      43.991   7.568  11.152  0.00  0.00    +0.000 A 
ATOM      3  C   UNL     1      44.508   8.831  11.410  0.00  0.00    +0.000 A 
ATOM      4  C   UNL     1      45.780   8.957  11.968  0.00  0.00    +0.000 A 
ATOM      5  C   UNL     1      46.580   7.838  12.239  0.00  0.00    +0.000 A 
ATOM      6  C   UNL     1      46.030   6.580  11.960  0.00  0.00    +0.000 A 
ENDROOT
BRANCH   5   7
ATOM      7  N   UNL     1      47.855   7.988  12.753  0.00  0.00    +0.000 N 
ATOM      8  C   UNL     1      48.075   7.986  14.198  0.00  0.00    +0.000 C 
ATOM      9  C   UNL     1      48.962   9.183  14.532  0.00  0.00    +0.000 C 
ATOM     10  C   UNL     1      50.282   9.124  13.747  0.00  0.00    +0.000 C 
ATOM     11  C   UNL     1      50.016   8.959  12.241  0.00  0.00    +0.000 C 
ATOM     12  C   UNL     1      49.050   7.809  11.933  0.00  0.00    +0.000 C 
BRANCH  10  13
ATOM     13  C   UNL     1      51.192   8.022  14.273  0.00  0.00    +0.000 C 
ATOM     14  N   UNL     1      52.341   7.828  13.564  0.00  0.00    +0.000 N 
ATOM     15  O   UNL     1      50.943   7.320  15.247  0.00  0.00    +0.000 OA
ATOM     16  H   UNL     1      52.516   8.264  12.670  0.00  0.00    +0.000 HD
ATOM     17  H   UNL     1      52.942   7.068  13.855  0.00  0.00    +0.000 HD
ENDBRANCH  10  13
ENDBRANCH   5   7
BRANCH   1  18
ATOM     18  C   UNL     1      44.083   5.035  11.345  0.00  0.00    +0.000 C 
ATOM     19  C   UNL     1      44.506   3.926  12.307  0.00  0.00    +0.000 C 
ATOM     20  C   UNL     1      43.216   4.641  12.527  0.00  0.00    +0.000 C 
BRANCH  18  21
ATOM     21  N   UNL     1      43.876   4.558   9.973  0.00  0.00    +0.000 N 
ATOM     22  H   UNL     1      42.991   4.083   9.810  0.00  0.00    +0.000 HD
BRANCH  21  26
ATOM     23  C   UNL     1      46.679   2.714   7.482  0.00  0.00    +0.000 A 
ATOM     24  C   UNL     1      46.594   4.096   7.601  0.00  0.00    +0.000 A 
ATOM     25  N   UNL     1      45.715   4.742   8.416  0.00  0.00    +0.000 NA
ATOM     26  C   UNL     1      44.886   3.986   9.170  0.00  0.00    +0.000 A 
ATOM     27  C   UNL     1      44.929   2.584   9.099  0.00  0.00    +0.000 A 
ATOM     28  F   UNL     1      44.093   1.844   9.843  0.00  0.00    +0.000 F 
ATOM     29  C   UNL     1      45.820   1.941   8.251  0.00  0.00    +0.000 A 
BRANCH  23  31
ATOM     30  N   UNL     1      48.364   1.623   5.848  0.00  0.00    +0.000 NA
ATOM     31  C   UNL     1      47.605   2.110   6.577  0.00  0.00    +0.000 C 
ENDBRANCH  23  31
ENDBRANCH  21  26
ENDBRANCH  18  21
ENDBRANCH   1  18
TORSDOF 6
ENDMDL
MODEL 5
REMARK VINA RESULT:    -7.756      1.816      2.684
REMARK INTER + INTRA:         -10.726
REMARK INTER:                  -9.963
REMARK INTRA:                  -0.763
REMARK UNBOUND:                -0.250
REMARK  Name = 
REMARK  6 active torsions:
REMARK  status: ('A' for Active; 'I' for Inactive)
REMARK    1  A    between atoms: C_2  and  C_3
REMARK    2  A    between atoms: C_6  and  N_7
REMARK    3  A    between atoms: N_7  and  C_8
REMARK    4  A    between atoms: C_8  and  C_9
REMARK    5  A    between atoms: C_13  and  N_14
REMARK    6  A    between atoms: C_17  and  C_18
REMARK                            x       y       z     vdW  Elec       q    Type
REMARK                         _______ _______ _______ _____ _____    ______ ____
ROOT
ATOM      1  C   UNL     1      45.450   5.106  12.222  0.00  0.00    +0.000 A 
ATOM      2  C   UNL     1      45.453   3.719  12.428  0.00  0.00    +0.000 A 
ATOM      3  C   UNL     1      46.322   3.134  13.341  0.00  0.00    +0.000 A 
ATOM      4  C   UNL     1      47.194   3.936  14.077  0.00  0.00    +0.000 A 
ATOM      5  C   UNL     1      47.192   5.332  13.956  0.00  0.00    +0.000 A 
ATOM      6  C   UNL     1      46.298   5.889  13.031  0.00  0.00    +0.000 A 
ENDROOT
BRANCH   5   7
ATOM      7  N   UNL     1      48.036   6.111  14.725  0.00  0.00    +0.000 N 
ATOM      8  C   UNL     1      48.453   7.432  14.261  0.00  0.00    +0.000 C 
ATOM      9  C   UNL     1      49.968   7.525  14.431  0.00  0.00    +0.000 C 
ATOM     10  C   UNL     1      50.373   7.272  15.892  0.00  0.00    +0.000 C 
ATOM     11  C   UNL     1      49.778   5.950  16.404  0.00  0.00    +0.000 C 
ATOM     12  C   UNL     1      48.272   5.837  16.141  0.00  0.00    +0.000 C 
BRANCH  10  13
ATOM     13  C   UNL     1      49.978   8.440  16.786  0.00  0.00    +0.000 C 
ATOM     14  N   UNL     1      49.882   8.149  18.115  0.00  0.00    +0.000 N 
ATOM     15  O   UNL     1      49.736   9.573  16.385  0.00  0.00    +0.000 OA
ATOM     16  H   UNL     1      49.912   7.204  18.475  0.00  0.00    +0.000 HD
ATOM     17  H   UNL     1      49.570   8.888  18.730  0.00  0.00    +0.000 HD
ENDBRANCH  10  13
ENDBRANCH   5   7
BRANCH   1  18
ATOM     18  C   UNL     1      44.629   5.720  11.096  0.00  0.00    +0.000 C 
ATOM     19  C   UNL     1      43.527   6.725  11.429  0.00  0.00    +0.000 C 
ATOM     20  C   UNL     1      44.835   7.212  10.903  0.00  0.00    +0.000 C 
BRANCH  18  21
ATOM     21  N   UNL     1      44.256   4.792  10.023  0.00  0.00    +0.000 N 
ATOM     22  H   UNL     1      43.505   4.145  10.253  0.00  0.00    +0.000 HD
BRANCH  21  26
ATOM     23  C   UNL     1      46.783   2.817   7.345  0.00  0.00    +0.000 A 
ATOM     24  C   UNL     1      46.789   4.200   7.480  0.00  0.00    +0.000 A 
ATOM     25  N   UNL     1      46.003   4.886   8.354  0.00  0.00    +0.000 NA
ATOM     26  C   UNL     1      45.178   4.171   9.153  0.00  0.00    +0.000 A 
ATOM     27  C   UNL     1      45.133   2.770   9.067  0.00  0.00    +0.000 A 
ATOM     28  F   UNL     1      44.303   2.071   9.856  0.00  0.00    +0.000 F 
ATOM     29  C   UNL     1      45.929   2.086   8.160  0.00  0.00    +0.000 A 
BRANCH  23  31
ATOM     30  N   UNL     1      48.278   1.644   5.586  0.00  0.00    +0.000 NA
ATOM     31  C   UNL     1      47.613   2.170   6.377  0.00  0.00    +0.000 C 
ENDBRANCH  23  31
ENDBRANCH  21  26
ENDBRANCH  18  21
ENDBRANCH   1  18
TORSDOF 6
ENDMDL
MODEL 6
REMARK VINA RESULT:    -7.498      3.633      8.492
REMARK INTER + INTRA:         -10.378
REMARK INTER:                  -9.754
REMARK INTRA:                  -0.624
REMARK UNBOUND:                -0.250
REMARK  Name = 
REMARK  6 active torsions:
REMARK  status: ('A' for Active; 'I' for Inactive)
REMARK    1  A    between atoms: C_2  and  C_3
REMARK    2  A    between atoms: C_6  and  N_7
REMARK    3  A    between atoms: N_7  and  C_8
REMARK    4  A    between atoms: C_8  and  C_9
REMARK    5  A    between atoms: C_13  and  N_14
REMARK    6  A    between atoms: C_17  and  C_18
REMARK                            x       y       z     vdW  Elec       q    Type
REMARK                         _______ _______ _______ _____ _____    ______ ____
ROOT
ATOM      1  C   UNL     1      48.024   5.510  15.737  0.00  0.00    +0.000 A 
ATOM      2  C   UNL     1      48.829   6.591  15.351  0.00  0.00    +0.000 A 
ATOM      3  C   UNL     1      48.781   7.092  14.056  0.00  0.00    +0.000 A 
ATOM      4  C   UNL     1      47.910   6.523  13.127  0.00  0.00    +0.000 A 
ATOM      5  C   UNL     1      47.040   5.480  13.474  0.00  0.00    +0.000 A 
ATOM      6  C   UNL     1      47.110   5.005  14.791  0.00  0.00    +0.000 A 
ENDROOT
BRANCH   5   7
ATOM      7  N   UNL     1      46.155   4.959  12.549  0.00  0.00    +0.000 N 
ATOM      8  C   UNL     1      45.892   5.666  11.297  0.00  0.00    +0.000 C 
ATOM      9  C   UNL     1      44.377   5.727  11.110  0.00  0.00    +0.000 C 
ATOM     10  C   UNL     1      43.766   4.316  11.117  0.00  0.00    +0.000 C 
ATOM     11  C   UNL     1      44.198   3.538  12.371  0.00  0.00    +0.000 C 
ATOM     12  C   UNL     1      45.715   3.566  12.591  0.00  0.00    +0.000 C 
BRANCH  10  13
ATOM     13  C   UNL     1      44.115   3.555   9.844  0.00  0.00    +0.000 C 
ATOM     14  N   UNL     1      44.106   4.299   8.701  0.00  0.00    +0.000 N 
ATOM     15  O   UNL     1      44.374   2.357   9.799  0.00  0.00    +0.000 OA
ATOM     16  H   UNL     1      43.746   5.242   8.661  0.00  0.00    +0.000 HD
ATOM     17  H   UNL     1      44.281   3.813   7.831  0.00  0.00    +0.000 HD
ENDBRANCH  10  13
ENDBRANCH   5   7
BRANCH   1  18
ATOM     18  C   UNL     1      48.211   4.851  17.097  0.00  0.00    +0.000 C 
ATOM     19  C   UNL     1      47.142   5.031  18.174  0.00  0.00    +0.000 C 
ATOM     20  C   UNL     1      47.212   3.752  17.411  0.00  0.00    +0.000 C 
BRANCH  18  21
ATOM     21  N   UNL     1      49.578   4.903  17.629  0.00  0.00    +0.000 N 
ATOM     22  H   UNL     1      50.066   5.783  17.481  0.00  0.00    +0.000 HD
BRANCH  21  26
ATOM     23  C   UNL     1      52.321   1.752  17.730  0.00  0.00    +0.000 A 
ATOM     24  C   UNL     1      51.074   1.626  17.128  0.00  0.00    +0.000 A 
ATOM     25  N   UNL     1      50.158   2.629  17.049  0.00  0.00    +0.000 NA
ATOM     26  C   UNL     1      50.493   3.829  17.575  0.00  0.00    +0.000 A 
ATOM     27  C   UNL     1      51.740   4.020  18.190  0.00  0.00    +0.000 A 
ATOM     28  F   UNL     1      52.058   5.211  18.719  0.00  0.00    +0.000 F 
ATOM     29  C   UNL     1      52.658   2.983  18.277  0.00  0.00    +0.000 A 
BRANCH  23  31
ATOM     30  N   UNL     1      53.935  -0.268  17.863  0.00  0.00    +0.000 NA
ATOM     31  C   UNL     1      53.216   0.640  17.806  0.00  0.00    +0.000 C 
ENDBRANCH  23  31
ENDBRANCH  21  26
ENDBRANCH  18  21
ENDBRANCH   1  18
TORSDOF 6
ENDMDL
MODEL 7
REMARK VINA RESULT:    -7.398      3.865      8.153
REMARK INTER + INTRA:         -10.243
REMARK INTER:                  -9.081
REMARK INTRA:                  -1.163
REMARK UNBOUND:                -0.250
REMARK  Name = 
REMARK  6 active torsions:
REMARK  status: ('A' for Active; 'I' for Inactive)
REMARK    1  A    between atoms: C_2  and  C_3
REMARK    2  A    between atoms: C_6  and  N_7
REMARK    3  A    between atoms: N_7  and  C_8
REMARK    4  A    between atoms: C_8  and  C_9
REMARK    5  A    between atoms: C_13  and  N_14
REMARK    6  A    between atoms: C_17  and  C_18
REMARK                            x       y       z     vdW  Elec       q    Type
REMARK                         _______ _______ _______ _____ _____    ______ ____
ROOT
ATOM      1  C   UNL     1      48.278   8.223  12.381  0.00  0.00    +0.000 A 
ATOM      2  C   UNL     1      47.656   9.479  12.429  0.00  0.00    +0.000 A 
ATOM      3  C   UNL     1      46.278   9.600  12.298  0.00  0.00    +0.000 A 
ATOM      4  C   UNL     1      45.497   8.457  12.132  0.00  0.00    +0.000 A 
ATOM      5  C   UNL     1      46.059   7.172  12.138  0.00  0.00    +0.000 A 
ATOM      6  C   UNL     1      47.450   7.087  12.279  0.00  0.00    +0.000 A 
ENDROOT
BRANCH   5   7
ATOM      7  N   UNL     1      45.261   6.050  12.014  0.00  0.00    +0.000 N 
ATOM      8  C   UNL     1      45.368   5.192  10.836  0.00  0.00    +0.000 C 
ATOM      9  C   UNL     1      43.953   4.935  10.322  0.00  0.00    +0.000 C 
ATOM     10  C   UNL     1      43.077   4.306  11.417  0.00  0.00    +0.000 C 
ATOM     11  C   UNL     1      43.118   5.148  12.702  0.00  0.00    +0.000 C 
ATOM     12  C   UNL     1      44.547   5.474  13.151  0.00  0.00    +0.000 C 
BRANCH  10  13
ATOM     13  C   UNL     1      43.480   2.862  11.687  0.00  0.00    +0.000 C 
ATOM     14  N   UNL     1      43.965   2.181  10.610  0.00  0.00    +0.000 N 
ATOM     15  O   UNL     1      43.376   2.302  12.774  0.00  0.00    +0.000 OA
ATOM     16  H   UNL     1      43.920   2.541   9.666  0.00  0.00    +0.000 HD
ATOM     17  H   UNL     1      44.192   1.205  10.742  0.00  0.00    +0.000 HD
ENDBRANCH  10  13
ENDBRANCH   5   7
BRANCH   1  18
ATOM     18  C   UNL     1      49.796   8.112  12.341  0.00  0.00    +0.000 C 
ATOM     19  C   UNL     1      50.494   7.799  11.018  0.00  0.00    +0.000 C 
ATOM     20  C   UNL     1      50.490   9.197  11.537  0.00  0.00    +0.000 C 
BRANCH  18  21
ATOM     21  N   UNL     1      50.399   7.419  13.486  0.00  0.00    +0.000 N 
ATOM     22  H   UNL     1      50.786   6.501  13.280  0.00  0.00    +0.000 HD
BRANCH  21  26
ATOM     23  C   UNL     1      48.687   7.684  17.289  0.00  0.00    +0.000 A 
ATOM     24  C   UNL     1      48.698   6.497  16.566  0.00  0.00    +0.000 A 
ATOM     25  N   UNL     1      49.263   6.355  15.336  0.00  0.00    +0.000 NA
ATOM     26  C   UNL     1      49.868   7.437  14.794  0.00  0.00    +0.000 A 
ATOM     27  C   UNL     1      49.896   8.662  15.479  0.00  0.00    +0.000 A 
ATOM     28  F   UNL     1      50.490   9.731  14.928  0.00  0.00    +0.000 F 
ATOM     29  C   UNL     1      49.302   8.794  16.726  0.00  0.00    +0.000 A 
BRANCH  23  31
ATOM     30  N   UNL     1      47.514   7.839  19.591  0.00  0.00    +0.000 NA
ATOM     31  C   UNL     1      48.041   7.764  18.561  0.00  0.00    +0.000 C 
ENDBRANCH  23  31
ENDBRANCH  21  26
ENDBRANCH  18  21
ENDBRANCH   1  18
TORSDOF 6
ENDMDL
MODEL 8
REMARK VINA RESULT:    -7.023      2.936      8.042
REMARK INTER + INTRA:          -9.737
REMARK INTER:                  -8.767
REMARK INTRA:                  -0.970
REMARK UNBOUND:                -0.250
REMARK  Name = 
REMARK  6 active torsions:
REMARK  status: ('A' for Active; 'I' for Inactive)
REMARK    1  A    between atoms: C_2  and  C_3
REMARK    2  A    between atoms: C_6  and  N_7
REMARK    3  A    between atoms: N_7  and  C_8
REMARK    4  A    between atoms: C_8  and  C_9
REMARK    5  A    between atoms: C_13  and  N_14
REMARK    6  A    between atoms: C_17  and  C_18
REMARK                            x       y       z     vdW  Elec       q    Type
REMARK                         _______ _______ _______ _____ _____    ______ ____
ROOT
ATOM      1  C   UNL     1      45.505   6.537  11.839  0.00  0.00    +0.000 A 
ATOM      2  C   UNL     1      44.119   6.538  12.059  0.00  0.00    +0.000 A 
ATOM      3  C   UNL     1      43.273   5.746  11.292  0.00  0.00    +0.000 A 
ATOM      4  C   UNL     1      43.806   4.925  10.299  0.00  0.00    +0.000 A 
ATOM      5  C   UNL     1      45.188   4.839  10.076  0.00  0.00    +0.000 A 
ATOM      6  C   UNL     1      46.012   5.646  10.872  0.00  0.00    +0.000 A 
ENDROOT
BRANCH   5   7
ATOM      7  N   UNL     1      45.698   3.987   9.114  0.00  0.00    +0.000 N 
ATOM      8  C   UNL     1      46.753   4.439   8.209  0.00  0.00    +0.000 C 
ATOM      9  C   UNL     1      46.340   4.056   6.790  0.00  0.00    +0.000 C 
ATOM     10  C   UNL     1      46.094   2.543   6.679  0.00  0.00    +0.000 C 
ATOM     11  C   UNL     1      45.102   2.070   7.755  0.00  0.00    +0.000 C 
ATOM     12  C   UNL     1      45.485   2.542   9.162  0.00  0.00    +0.000 C 
BRANCH  10  13
ATOM     13  C   UNL     1      47.400   1.762   6.748  0.00  0.00    +0.000 C 
ATOM     14  N   UNL     1      48.476   2.377   6.178  0.00  0.00    +0.000 N 
ATOM     15  O   UNL     1      47.520   0.650   7.251  0.00  0.00    +0.000 OA
ATOM     16  H   UNL     1      48.397   3.211   5.613  0.00  0.00    +0.000 HD
ATOM     17  H   UNL     1      49.346   1.863   6.159  0.00  0.00    +0.000 HD
ENDBRANCH  10  13
ENDBRANCH   5   7
BRANCH   1  18
ATOM     18  C   UNL     1      46.403   7.537  12.553  0.00  0.00    +0.000 C 
ATOM     19  C   UNL     1      46.484   8.975  12.042  0.00  0.00    +0.000 C 
ATOM     20  C   UNL     1      45.665   8.666  13.250  0.00  0.00    +0.000 C 
BRANCH  18  21
ATOM     21  N   UNL     1      47.701   7.007  12.987  0.00  0.00    +0.000 N 
ATOM     22  H   UNL     1      48.295   6.655  12.240  0.00  0.00    +0.000 HD
BRANCH  21  26
ATOM     23  C   UNL     1      48.202   4.960  16.595  0.00  0.00    +0.000 A 
ATOM     24  C   UNL     1      47.472   4.426  15.539  0.00  0.00    +0.000 A 
ATOM     25  N   UNL     1      47.301   5.043  14.338  0.00  0.00    +0.000 NA
ATOM     26  C   UNL     1      47.896   6.244  14.159  0.00  0.00    +0.000 A 
ATOM     27  C   UNL     1      48.652   6.832  15.186  0.00  0.00    +0.000 A 
ATOM     28  F   UNL     1      49.228   8.029  15.001  0.00  0.00    +0.000 F 
ATOM     29  C   UNL     1      48.804   6.197  16.410  0.00  0.00    +0.000 A 
BRANCH  23  31
ATOM     30  N   UNL     1      48.398   3.712  18.855  0.00  0.00    +0.000 NA
ATOM     31  C   UNL     1      48.307   4.267  17.841  0.00  0.00    +0.000 C 
ENDBRANCH  23  31
ENDBRANCH  21  26
ENDBRANCH  18  21
ENDBRANCH   1  18
TORSDOF 6
ENDMDL
MODEL 9
REMARK VINA RESULT:    -7.013      3.285      4.734
REMARK INTER + INTRA:          -9.723
REMARK INTER:                  -9.145
REMARK INTRA:                  -0.578
REMARK UNBOUND:                -0.250
REMARK  Name = 
REMARK  6 active torsions:
REMARK  status: ('A' for Active; 'I' for Inactive)
REMARK    1  A    between atoms: C_2  and  C_3
REMARK    2  A    between atoms: C_6  and  N_7
REMARK    3  A    between atoms: N_7  and  C_8
REMARK    4  A    between atoms: C_8  and  C_9
REMARK    5  A    between atoms: C_13  and  N_14
REMARK    6  A    between atoms: C_17  and  C_18
REMARK                            x       y       z     vdW  Elec       q    Type
REMARK                         _______ _______ _______ _____ _____    ______ ____
ROOT
ATOM      1  C   UNL     1      48.020   8.281  14.343  0.00  0.00    +0.000 A 
ATOM      2  C   UNL     1      48.096   9.338  15.261  0.00  0.00    +0.000 A 
ATOM      3  C   UNL     1      48.468   9.114  16.581  0.00  0.00    +0.000 A 
ATOM      4  C   UNL     1      48.787   7.822  16.999  0.00  0.00    +0.000 A 
ATOM      5  C   UNL     1      48.786   6.738  16.110  0.00  0.00    +0.000 A 
ATOM      6  C   UNL     1      48.413   7.002  14.785  0.00  0.00    +0.000 A 
ENDROOT
BRANCH   5   7
ATOM      7  N   UNL     1      49.146   5.473  16.536  0.00  0.00    +0.000 N 
ATOM      8  C   UNL     1      48.329   4.314  16.185  0.00  0.00    +0.000 C 
ATOM      9  C   UNL     1      48.099   3.507  17.462  0.00  0.00    +0.000 C 
ATOM     10  C   UNL     1      49.436   3.099  18.101  0.00  0.00    +0.000 C 
ATOM     11  C   UNL     1      50.342   4.325  18.305  0.00  0.00    +0.000 C 
ATOM     12  C   UNL     1      50.486   5.172  17.036  0.00  0.00    +0.000 C 
BRANCH  10  13
ATOM     13  C   UNL     1      50.136   2.023  17.282  0.00  0.00    +0.000 C 
ATOM     14  N   UNL     1      51.230   1.461  17.874  0.00  0.00    +0.000 N 
ATOM     15  O   UNL     1      49.791   1.666  16.161  0.00  0.00    +0.000 OA
ATOM     16  H   UNL     1      51.648   1.829  18.717  0.00  0.00    +0.000 HD
ATOM     17  H   UNL     1      51.750   0.782  17.335  0.00  0.00    +0.000 HD
ENDBRANCH  10  13
ENDBRANCH   5   7
BRANCH   1  18
ATOM     18  C   UNL     1      47.439   8.503  12.953  0.00  0.00    +0.000 C 
ATOM     19  C   UNL     1      47.986   9.631  12.079  0.00  0.00    +0.000 C 
ATOM     20  C   UNL     1      48.401   8.224  11.812  0.00  0.00    +0.000 C 
BRANCH  18  21
ATOM     21  N   UNL     1      45.982   8.358  12.859  0.00  0.00    +0.000 N 
ATOM     22  H   UNL     1      45.448   8.943  13.498  0.00  0.00    +0.000 HD
BRANCH  21  26
ATOM     23  C   UNL     1      44.078   4.736  12.013  0.00  0.00    +0.000 A 
ATOM     24  C   UNL     1      44.994   4.863  13.051  0.00  0.00    +0.000 A 
ATOM     25  N   UNL     1      45.621   6.025  13.380  0.00  0.00    +0.000 NA
ATOM     26  C   UNL     1      45.317   7.129  12.660  0.00  0.00    +0.000 A 
ATOM     27  C   UNL     1      44.395   7.065  11.603  0.00  0.00    +0.000 A 
ATOM     28  F   UNL     1      44.109   8.163  10.887  0.00  0.00    +0.000 F 
ATOM     29  C   UNL     1      43.775   5.869  11.269  0.00  0.00    +0.000 A 
BRANCH  23  31
ATOM     30  N   UNL     1      43.013   2.442  11.463  0.00  0.00    +0.000 NA
ATOM     31  C   UNL     1      43.488   3.471  11.704  0.00  0.00    +0.000 C 
ENDBRANCH  23  31
ENDBRANCH  21  26
ENDBRANCH  18  21
ENDBRANCH   1  18
TORSDOF 6
ENDMDL
