MODEL 1
REMARK VINA RESULT:    -9.096      0.000      0.000
REMARK INTER + INTRA:         -13.388
REMARK INTER:                 -12.287
REMARK INTRA:                  -1.101
REMARK UNBOUND:                -1.101
REMARK  Name = 
REMARK  6 active torsions:
REMARK  status: ('A' for Active; 'I' for Inactive)
REMARK    1  A    between atoms: C_2  and  C_4
REMARK    2  A    between atoms: C_7  and  N_8
REMARK    3  A    between atoms: N_8  and  C_9
REMARK    4  A    between atoms: C_9  and  C_10
REMARK    5  A    between atoms: C_10  and  C_13
REMARK    6  A    between atoms: C_17  and  C_18
REMARK                            x       y       z     vdW  Elec       q    Type
REMARK                         _______ _______ _______ _____ _____    ______ ____
ROOT
ATOM      1  C   UNL     1      43.289   5.119  12.471  0.00  0.00    +0.000 C 
ATOM      2  F   UNL     1      42.588   6.247  12.148  0.00  0.00    +0.000 F 
ATOM      3  F   UNL     1      42.649   4.601  13.565  0.00  0.00    +0.000 F 
ENDROOT
BRANCH   1   4
ATOM      4  C   UNL     1      44.750   5.424  12.754  0.00  0.00    +0.000 A 
ATOM      5  C   UNL     1      45.578   4.453  13.328  0.00  0.00    +0.000 A 
ATOM      6  C   UNL     1      46.921   4.732  13.561  0.00  0.00    +0.000 A 
ATOM      7  C   UNL     1      47.450   5.980  13.217  0.00  0.00    +0.000 A 
ATOM      8  C   UNL     1      46.658   6.977  12.619  0.00  0.00    +0.000 A 
ATOM      9  C   UNL     1      45.299   6.673  12.406  0.00  0.00    +0.000 A 
BRANCH   8  10
ATOM     10  C   UNL     1      47.233   8.280  12.211  0.00  0.00    +0.000 A 
ATOM     11  C   UNL     1      48.576   8.428  11.834  0.00  0.00    +0.000 A 
ATOM     12  C   UNL     1      49.089   9.680  11.487  0.00  0.00    +0.000 A 
ATOM     13  C   UNL     1      48.237  10.768  11.512  0.00  0.00    +0.000 A 
ATOM     14  N   UNL     1      46.938  10.687  11.856  0.00  0.00    +0.000 NA
ATOM     15  C   UNL     1      46.477   9.457  12.197  0.00  0.00    +0.000 A 
ENDBRANCH   8  10
ENDBRANCH   1   4
BRANCH   1  16
ATOM     16  C   UNL     1      43.167   4.096  11.313  0.00  0.00    +0.000 C 
BRANCH  16  17
ATOM     17  N   UNL     1      43.683   4.603  10.028  0.00  0.00    +0.000 N 
ATOM     18  H   UNL     1      42.980   5.054   9.442  0.00  0.00    +0.000 HD
BRANCH  17  22
ATOM     19  C   UNL     1      46.438   2.361   7.753  0.00  0.00    +0.000 A 
ATOM     20  C   UNL     1      46.418   3.750   7.630  0.00  0.00    +0.000 A 
ATOM     21  C   UNL     1      45.522   4.510   8.395  0.00  0.00    +0.000 A 
ATOM     22  C   UNL     1      44.653   3.907   9.314  0.00  0.00    +0.000 A 
ATOM     23  C   UNL     1      44.673   2.508   9.405  0.00  0.00    +0.000 A 
ATOM     24  C   UNL     1      45.550   1.738   8.631  0.00  0.00    +0.000 A 
BRANCH  19  26
ATOM     25  N   UNL     1      48.482   2.114   6.453  0.00  0.00    +0.000 N 
ATOM     26  C   UNL     1      47.348   1.517   6.935  0.00  0.00    +0.000 C 
ATOM     27  O   UNL     1      47.119   0.334   6.731  0.00  0.00    +0.000 OA
ATOM     28  H   UNL     1      49.142   1.499   5.989  0.00  0.00    +0.000 HD
ATOM     29  H   UNL     1      48.822   2.995   6.801  0.00  0.00    +0.000 HD
ENDBRANCH  19  26
ENDBRANCH  17  22
ENDBRANCH  16  17
ENDBRANCH   1  16
TORSDOF 6
ENDMDL
MODEL 2
REMARK VINA RESULT:    -8.869      2.406      3.804
REMARK INTER + INTRA:         -13.082
REMARK INTER:                 -11.930
REMARK INTRA:                  -1.151
REMARK UNBOUND:                -1.101
REMARK  Name = 
REMARK  6 active torsions:
REMARK  status: ('A' for Active; 'I' for Inactive)
REMARK    1  A    between atoms: C_2  and  C_4
REMARK    2  A    between atoms: C_7  and  N_8
REMARK    3  A    between atoms: N_8  and  C_9
REMARK    4  A    between atoms: C_9  and  C_10
REMARK    5  A    between atoms: C_10  and  C_13
REMARK    6  A    between atoms: C_17  and  C_18
REMARK                            x       y       z     vdW  Elec       q    Type
REMARK                         _______ _______ _______ _____ _____    ______ ____
ROOT
ATOM      1  C   UNL     1      43.810   4.704  12.451  0.00  0.00    +0.000 C 
ATOM      2  F   UNL     1      42.871   5.276  13.262  0.00  0.00    +0.000 F 
ATOM      3  F   UNL     1      43.653   3.354  12.619  0.00  0.00    +0.000 F 
ENDROOT
BRANCH   1   4
ATOM      4  C   UNL     1      45.214   5.164  12.798  0.00  0.00    +0.000 A 
ATOM      5  C   UNL     1      45.899   6.049  11.958  0.00  0.00    +0.000 A 
ATOM      6  C   UNL     1      47.176   6.486  12.297  0.00  0.00    +0.000 A 
ATOM      7  C   UNL     1      47.778   6.047  13.480  0.00  0.00    +0.000 A 
ATOM      8  C   UNL     1      47.118   5.173  14.363  0.00  0.00    +0.000 A 
ATOM      9  C   UNL     1      45.832   4.737  13.990  0.00  0.00    +0.000 A 
BRANCH   8  10
ATOM     10  C   UNL     1      47.740   4.749  15.639  0.00  0.00    +0.000 A 
ATOM     11  C   UNL     1      47.495   3.496  16.220  0.00  0.00    +0.000 A 
ATOM     12  C   UNL     1      48.075   3.147  17.441  0.00  0.00    +0.000 A 
ATOM     13  C   UNL     1      48.908   4.062  18.059  0.00  0.00    +0.000 A 
ATOM     14  N   UNL     1      49.187   5.275  17.546  0.00  0.00    +0.000 NA
ATOM     15  C   UNL     1      48.599   5.584  16.363  0.00  0.00    +0.000 A 
ENDBRANCH   8  10
ENDBRANCH   1   4
BRANCH   1  16
ATOM     16  C   UNL     1      43.481   5.046  10.975  0.00  0.00    +0.000 C 
BRANCH  16  17
ATOM     17  N   UNL     1      43.443   3.863  10.096  0.00  0.00    +0.000 N 
ATOM     18  H   UNL     1      42.948   3.063  10.489  0.00  0.00    +0.000 HD
BRANCH  17  22
ATOM     19  C   UNL     1      46.594   2.660   7.562  0.00  0.00    +0.000 A 
ATOM     20  C   UNL     1      46.241   4.008   7.624  0.00  0.00    +0.000 A 
ATOM     21  C   UNL     1      45.210   4.425   8.477  0.00  0.00    +0.000 A 
ATOM     22  C   UNL     1      44.532   3.518   9.302  0.00  0.00    +0.000 A 
ATOM     23  C   UNL     1      44.887   2.164   9.207  0.00  0.00    +0.000 A 
ATOM     24  C   UNL     1      45.902   1.734   8.343  0.00  0.00    +0.000 A 
BRANCH  19  26
ATOM     25  N   UNL     1      47.963   2.964   5.571  0.00  0.00    +0.000 N 
ATOM     26  C   UNL     1      47.658   2.172   6.645  0.00  0.00    +0.000 C 
ATOM     27  O   UNL     1      48.262   1.131   6.857  0.00  0.00    +0.000 OA
ATOM     28  H   UNL     1      48.761   2.670   5.018  0.00  0.00    +0.000 HD
ATOM     29  H   UNL     1      47.670   3.925   5.504  0.00  0.00    +0.000 HD
ENDBRANCH  19  26
ENDBRANCH  17  22
ENDBRANCH  16  17
ENDBRANCH   1  16
TORSDOF 6
ENDMDL
MODEL 3
REMARK VINA RESULT:    -8.588      2.509      3.829
REMARK INTER + INTRA:         -12.702
REMARK INTER:                 -11.591
REMARK INTRA:                  -1.111
REMARK UNBOUND:                -1.101
REMARK  Name = 
REMARK  6 active torsions:
REMARK  status: ('A' for Active; 'I' for Inactive)
REMARK    1  A    between atoms: C_2  and  C_4
REMARK    2  A    between atoms: C_7  and  N_8
REMARK    3  A    between atoms: N_8  and  C_9
REMARK    4  A    between atoms: C_9  and  C_10
REMARK    5  A    between atoms: C_10  and  C_13
REMARK    6  A    between atoms: C_17  and  C_18
REMARK                            x       y       z     vdW  Elec       q    Type
REMARK                         _______ _______ _______ _____ _____    ______ ____
ROOT
ATOM      1  C   UNL     1      44.067   5.195  12.193  0.00  0.00    +0.000 C 
ATOM      2  F   UNL     1      43.610   5.941  11.142  0.00  0.00    +0.000 F 
ATOM      3  F   UNL     1      43.165   5.409  13.202  0.00  0.00    +0.000 F 
ENDROOT
BRANCH   1   4
ATOM      4  C   UNL     1      45.477   5.589  12.595  0.00  0.00    +0.000 A 
ATOM      5  C   UNL     1      46.244   6.417  11.769  0.00  0.00    +0.000 A 
ATOM      6  C   UNL     1      47.526   6.793  12.157  0.00  0.00    +0.000 A 
ATOM      7  C   UNL     1      48.052   6.350  13.374  0.00  0.00    +0.000 A 
ATOM      8  C   UNL     1      47.308   5.531  14.244  0.00  0.00    +0.000 A 
ATOM      9  C   UNL     1      46.018   5.156  13.822  0.00  0.00    +0.000 A 
BRANCH   8  10
ATOM     10  C   UNL     1      47.849   5.104  15.555  0.00  0.00    +0.000 A 
ATOM     11  C   UNL     1      48.782   5.867  16.272  0.00  0.00    +0.000 A 
ATOM     12  C   UNL     1      49.292   5.413  17.490  0.00  0.00    +0.000 A 
ATOM     13  C   UNL     1      48.846   4.199  17.979  0.00  0.00    +0.000 A 
ATOM     14  N   UNL     1      47.946   3.428  17.341  0.00  0.00    +0.000 NA
ATOM     15  C   UNL     1      47.479   3.895  16.155  0.00  0.00    +0.000 A 
ENDBRANCH   8  10
ENDBRANCH   1   4
BRANCH   1  16
ATOM     16  C   UNL     1      44.014   3.694  11.811  0.00  0.00    +0.000 C 
BRANCH  16  17
ATOM     17  N   UNL     1      43.574   3.459  10.424  0.00  0.00    +0.000 N 
ATOM     18  H   UNL     1      42.678   2.981  10.343  0.00  0.00    +0.000 HD
BRANCH  17  22
ATOM     19  C   UNL     1      46.498   2.608   7.505  0.00  0.00    +0.000 A 
ATOM     20  C   UNL     1      45.956   1.566   8.257  0.00  0.00    +0.000 A 
ATOM     21  C   UNL     1      44.969   1.831   9.216  0.00  0.00    +0.000 A 
ATOM     22  C   UNL     1      44.484   3.128   9.425  0.00  0.00    +0.000 A 
ATOM     23  C   UNL     1      45.058   4.165   8.675  0.00  0.00    +0.000 A 
ATOM     24  C   UNL     1      46.059   3.914   7.728  0.00  0.00    +0.000 A 
BRANCH  19  26
ATOM     25  N   UNL     1      47.479   3.060   5.322  0.00  0.00    +0.000 N 
ATOM     26  C   UNL     1      47.571   2.373   6.503  0.00  0.00    +0.000 C 
ATOM     27  O   UNL     1      48.515   1.632   6.732  0.00  0.00    +0.000 OA
ATOM     28  H   UNL     1      48.271   2.970   4.695  0.00  0.00    +0.000 HD
ATOM     29  H   UNL     1      46.867   3.850   5.200  0.00  0.00    +0.000 HD
ENDBRANCH  19  26
ENDBRANCH  17  22
ENDBRANCH  16  17
ENDBRANCH   1  16
TORSDOF 6
ENDMDL
MODEL 4
REMARK VINA RESULT:    -8.278      1.855      2.471
REMARK INTER + INTRA:         -12.283
REMARK INTER:                 -11.647
REMARK INTRA:                  -0.636
REMARK UNBOUND:                -1.101
REMARK  Name = 
REMARK  6 active torsions:
REMARK  status: ('A' for Active; 'I' for Inactive)
REMARK    1  A    between atoms: C_2  and  C_4
REMARK    2  A    between atoms: C_7  and  N_8
REMARK    3  A    between atoms: N_8  and  C_9
REMARK    4  A    between atoms: C_9  and  C_10
REMARK    5  A    between atoms: C_10  and  C_13
REMARK    6  A    between atoms: C_17  and  C_18
REMARK                            x       y       z     vdW  Elec       q    Type
REMARK                         _______ _______ _______ _____ _____    ______ ____
ROOT
ATOM      1  C   UNL     1      43.797   4.846  12.399  0.00  0.00    +0.000 C 
ATOM      2  F   UNL     1      42.891   4.923  13.420  0.00  0.00    +0.000 F 
ATOM      3  F   UNL     1      44.560   3.744  12.680  0.00  0.00    +0.000 F 
ENDROOT
BRANCH   1   4
ATOM      4  C   UNL     1      44.633   6.108  12.290  0.00  0.00    +0.000 A 
ATOM      5  C   UNL     1      44.130   7.239  11.636  0.00  0.00    +0.000 A 
ATOM      6  C   UNL     1      44.893   8.399  11.562  0.00  0.00    +0.000 A 
ATOM      7  C   UNL     1      46.163   8.444  12.145  0.00  0.00    +0.000 A 
ATOM      8  C   UNL     1      46.701   7.338  12.828  0.00  0.00    +0.000 A 
ATOM      9  C   UNL     1      45.912   6.172  12.877  0.00  0.00    +0.000 A 
BRANCH   8  10
ATOM     10  C   UNL     1      48.026   7.405  13.485  0.00  0.00    +0.000 A 
ATOM     11  C   UNL     1      49.066   8.217  13.009  0.00  0.00    +0.000 A 
ATOM     12  C   UNL     1      50.312   8.228  13.639  0.00  0.00    +0.000 A 
ATOM     13  C   UNL     1      50.493   7.428  14.752  0.00  0.00    +0.000 A 
ATOM     14  N   UNL     1      49.531   6.636  15.260  0.00  0.00    +0.000 NA
ATOM     15  C   UNL     1      48.336   6.643  14.617  0.00  0.00    +0.000 A 
ENDBRANCH   8  10
ENDBRANCH   1   4
BRANCH   1  16
ATOM     16  C   UNL     1      43.043   4.583  11.071  0.00  0.00    +0.000 C 
BRANCH  16  17
ATOM     17  N   UNL     1      43.827   4.937   9.874  0.00  0.00    +0.000 N 
ATOM     18  H   UNL     1      43.331   5.526   9.206  0.00  0.00    +0.000 HD
BRANCH  17  22
ATOM     19  C   UNL     1      46.266   2.057   7.990  0.00  0.00    +0.000 A 
ATOM     20  C   UNL     1      46.454   3.409   7.701  0.00  0.00    +0.000 A 
ATOM     21  C   UNL     1      45.664   4.378   8.335  0.00  0.00    +0.000 A 
ATOM     22  C   UNL     1      44.698   4.026   9.286  0.00  0.00    +0.000 A 
ATOM     23  C   UNL     1      44.509   2.660   9.544  0.00  0.00    +0.000 A 
ATOM     24  C   UNL     1      45.279   1.682   8.902  0.00  0.00    +0.000 A 
BRANCH  19  26
ATOM     25  N   UNL     1      46.772  -0.300   7.646  0.00  0.00    +0.000 N 
ATOM     26  C   UNL     1      47.059   0.996   7.314  0.00  0.00    +0.000 C 
ATOM     27  O   UNL     1      47.903   1.262   6.471  0.00  0.00    +0.000 OA
ATOM     28  H   UNL     1      47.245  -1.012   7.100  0.00  0.00    +0.000 HD
ATOM     29  H   UNL     1      45.932  -0.562   8.137  0.00  0.00    +0.000 HD
ENDBRANCH  19  26
ENDBRANCH  17  22
ENDBRANCH  16  17
ENDBRANCH   1  16
TORSDOF 6
ENDMDL
MODEL 5
REMARK VINA RESULT:    -8.242      1.521      2.257
REMARK INTER + INTRA:         -12.234
REMARK INTER:                 -11.206
REMARK INTRA:                  -1.028
REMARK UNBOUND:                -1.101
REMARK  Name = 
REMARK  6 active torsions:
REMARK  status: ('A' for Active; 'I' for Inactive)
REMARK    1  A    between atoms: C_2  and  C_4
REMARK    2  A    between atoms: C_7  and  N_8
REMARK    3  A    between atoms: N_8  and  C_9
REMARK    4  A    between atoms: C_9  and  C_10
REMARK    5  A    between atoms: C_10  and  C_13
REMARK    6  A    between atoms: C_17  and  C_18
REMARK                            x       y       z     vdW  Elec       q    Type
REMARK                         _______ _______ _______ _____ _____    ______ ____
ROOT
ATOM      1  C   UNL     1      44.065   4.085  12.587  0.00  0.00    +0.000 C 
ATOM      2  F   UNL     1      43.003   4.260  13.428  0.00  0.00    +0.000 F 
ATOM      3  F   UNL     1      44.607   2.878  12.941  0.00  0.00    +0.000 F 
ENDROOT
BRANCH   1   4
ATOM      4  C   UNL     1      45.069   5.218  12.700  0.00  0.00    +0.000 A 
ATOM      5  C   UNL     1      46.359   4.977  13.184  0.00  0.00    +0.000 A 
ATOM      6  C   UNL     1      47.281   6.016  13.261  0.00  0.00    +0.000 A 
ATOM      7  C   UNL     1      46.925   7.304  12.849  0.00  0.00    +0.000 A 
ATOM      8  C   UNL     1      45.645   7.587  12.338  0.00  0.00    +0.000 A 
ATOM      9  C   UNL     1      44.728   6.520  12.282  0.00  0.00    +0.000 A 
BRANCH   8  10
ATOM     10  C   UNL     1      45.287   8.942  11.857  0.00  0.00    +0.000 A 
ATOM     11  C   UNL     1      44.144   9.191  11.082  0.00  0.00    +0.000 A 
ATOM     12  C   UNL     1      43.859  10.478  10.622  0.00  0.00    +0.000 A 
ATOM     13  C   UNL     1      44.723  11.503  10.957  0.00  0.00    +0.000 A 
ATOM     14  N   UNL     1      45.829  11.327  11.704  0.00  0.00    +0.000 NA
ATOM     15  C   UNL     1      46.081  10.062  12.127  0.00  0.00    +0.000 A 
ENDBRANCH   8  10
ENDBRANCH   1   4
BRANCH   1  16
ATOM     16  C   UNL     1      43.545   3.969  11.131  0.00  0.00    +0.000 C 
BRANCH  16  17
ATOM     17  N   UNL     1      43.879   2.684  10.491  0.00  0.00    +0.000 N 
ATOM     18  H   UNL     1      44.022   1.915  11.145  0.00  0.00    +0.000 HD
BRANCH  17  22
ATOM     19  C   UNL     1      46.513   2.671   7.196  0.00  0.00    +0.000 A 
ATOM     20  C   UNL     1      46.191   1.466   7.822  0.00  0.00    +0.000 A 
ATOM     21  C   UNL     1      45.302   1.453   8.905  0.00  0.00    +0.000 A 
ATOM     22  C   UNL     1      44.695   2.628   9.366  0.00  0.00    +0.000 A 
ATOM     23  C   UNL     1      45.049   3.831   8.738  0.00  0.00    +0.000 A 
ATOM     24  C   UNL     1      45.952   3.858   7.667  0.00  0.00    +0.000 A 
BRANCH  19  26
ATOM     25  N   UNL     1      48.797   2.519   6.364  0.00  0.00    +0.000 N 
ATOM     26  C   UNL     1      47.478   2.732   6.067  0.00  0.00    +0.000 C 
ATOM     27  O   UNL     1      47.111   2.925   4.917  0.00  0.00    +0.000 OA
ATOM     28  H   UNL     1      49.425   2.458   5.571  0.00  0.00    +0.000 HD
ATOM     29  H   UNL     1      49.098   2.118   7.238  0.00  0.00    +0.000 HD
ENDBRANCH  19  26
ENDBRANCH  17  22
ENDBRANCH  16  17
ENDBRANCH   1  16
TORSDOF 6
ENDMDL
MODEL 6
REMARK VINA RESULT:    -8.217      2.408      4.050
REMARK INTER + INTRA:         -12.200
REMARK INTER:                 -11.296
REMARK INTRA:                  -0.904
REMARK UNBOUND:                -1.101
REMARK  Name = 
REMARK  6 active torsions:
REMARK  status: ('A' for Active; 'I' for Inactive)
REMARK    1  A    between atoms: C_2  and  C_4
REMARK    2  A    between atoms: C_7  and  N_8
REMARK    3  A    between atoms: N_8  and  C_9
REMARK    4  A    between atoms: C_9  and  C_10
REMARK    5  A    between atoms: C_10  and  C_13
REMARK    6  A    between atoms: C_17  and  C_18
REMARK                            x       y       z     vdW  Elec       q    Type
REMARK                         _______ _______ _______ _____ _____    ______ ____
ROOT
ATOM      1  C   UNL     1      45.130   6.630  11.424  0.00  0.00    +0.000 C 
ATOM      2  F   UNL     1      45.342   7.007  10.127  0.00  0.00    +0.000 F 
ATOM      3  F   UNL     1      44.235   7.540  11.919  0.00  0.00    +0.000 F 
ENDROOT
BRANCH   1   4
ATOM      4  C   UNL     1      46.421   6.604  12.223  0.00  0.00    +0.000 A 
ATOM      5  C   UNL     1      47.542   7.316  11.783  0.00  0.00    +0.000 A 
ATOM      6  C   UNL     1      48.713   7.306  12.534  0.00  0.00    +0.000 A 
ATOM      7  C   UNL     1      48.773   6.591  13.734  0.00  0.00    +0.000 A 
ATOM      8  C   UNL     1      47.664   5.878  14.223  0.00  0.00    +0.000 A 
ATOM      9  C   UNL     1      46.496   5.894  13.437  0.00  0.00    +0.000 A 
BRANCH   8  10
ATOM     10  C   UNL     1      47.716   5.162  15.519  0.00  0.00    +0.000 A 
ATOM     11  C   UNL     1      48.608   5.516  16.543  0.00  0.00    +0.000 A 
ATOM     12  C   UNL     1      48.647   4.795  17.738  0.00  0.00    +0.000 A 
ATOM     13  C   UNL     1      47.779   3.731  17.894  0.00  0.00    +0.000 A 
ATOM     14  N   UNL     1      46.896   3.350  16.951  0.00  0.00    +0.000 NA
ATOM     15  C   UNL     1      46.891   4.067  15.799  0.00  0.00    +0.000 A 
ENDBRANCH   8  10
ENDBRANCH   1   4
BRANCH   1  16
ATOM     16  C   UNL     1      44.457   5.234  11.443  0.00  0.00    +0.000 C 
BRANCH  16  17
ATOM     17  N   UNL     1      43.954   4.810  10.124  0.00  0.00    +0.000 N 
ATOM     18  H   UNL     1      42.945   4.669  10.085  0.00  0.00    +0.000 HD
BRANCH  17  22
ATOM     19  C   UNL     1      46.363   2.264   7.777  0.00  0.00    +0.000 A 
ATOM     20  C   UNL     1      45.507   1.711   8.730  0.00  0.00    +0.000 A 
ATOM     21  C   UNL     1      44.686   2.543   9.503  0.00  0.00    +0.000 A 
ATOM     22  C   UNL     1      44.679   3.933   9.324  0.00  0.00    +0.000 A 
ATOM     23  C   UNL     1      45.564   4.470   8.377  0.00  0.00    +0.000 A 
ATOM     24  C   UNL     1      46.403   3.649   7.613  0.00  0.00    +0.000 A 
BRANCH  19  26
ATOM     25  N   UNL     1      48.396   2.021   6.458  0.00  0.00    +0.000 N 
ATOM     26  C   UNL     1      47.275   1.418   6.961  0.00  0.00    +0.000 C 
ATOM     27  O   UNL     1      47.058   0.229   6.778  0.00  0.00    +0.000 OA
ATOM     28  H   UNL     1      49.058   1.407   5.996  0.00  0.00    +0.000 HD
ATOM     29  H   UNL     1      48.729   2.911   6.789  0.00  0.00    +0.000 HD
ENDBRANCH  19  26
ENDBRANCH  17  22
ENDBRANCH  16  17
ENDBRANCH   1  16
TORSDOF 6
ENDMDL
MODEL 7
REMARK VINA RESULT:    -8.120      1.573      2.532
REMARK INTER + INTRA:         -12.070
REMARK INTER:                 -10.900
REMARK INTRA:                  -1.170
REMARK UNBOUND:                -1.101
REMARK  Name = 
REMARK  6 active torsions:
REMARK  status: ('A' for Active; 'I' for Inactive)
REMARK    1  A    between atoms: C_2  and  C_4
REMARK    2  A    between atoms: C_7  and  N_8
REMARK    3  A    between atoms: N_8  and  C_9
REMARK    4  A    between atoms: C_9  and  C_10
REMARK    5  A    between atoms: C_10  and  C_13
REMARK    6  A    between atoms: C_17  and  C_18
REMARK                            x       y       z     vdW  Elec       q    Type
REMARK                         _______ _______ _______ _____ _____    ______ ____
ROOT
ATOM      1  C   UNL     1      45.400   5.161  12.470  0.00  0.00    +0.000 C 
ATOM      2  F   UNL     1      45.104   4.818  13.760  0.00  0.00    +0.000 F 
ATOM      3  F   UNL     1      46.387   4.293  12.086  0.00  0.00    +0.000 F 
ENDROOT
BRANCH   1   4
ATOM      4  C   UNL     1      45.837   6.611  12.357  0.00  0.00    +0.000 A 
ATOM      5  C   UNL     1      44.936   7.646  12.630  0.00  0.00    +0.000 A 
ATOM      6  C   UNL     1      45.352   8.971  12.548  0.00  0.00    +0.000 A 
ATOM      7  C   UNL     1      46.671   9.274  12.198  0.00  0.00    +0.000 A 
ATOM      8  C   UNL     1      47.614   8.264  11.934  0.00  0.00    +0.000 A 
ATOM      9  C   UNL     1      47.164   6.932  12.012  0.00  0.00    +0.000 A 
BRANCH   8  10
ATOM     10  C   UNL     1      49.023   8.588  11.611  0.00  0.00    +0.000 A 
ATOM     11  C   UNL     1      49.982   7.601  11.339  0.00  0.00    +0.000 A 
ATOM     12  C   UNL     1      51.309   7.946  11.071  0.00  0.00    +0.000 A 
ATOM     13  C   UNL     1      51.652   9.285  11.067  0.00  0.00    +0.000 A 
ATOM     14  N   UNL     1      50.774  10.276  11.311  0.00  0.00    +0.000 NA
ATOM     15  C   UNL     1      49.497   9.904  11.578  0.00  0.00    +0.000 A 
ENDBRANCH   8  10
ENDBRANCH   1   4
BRANCH   1  16
ATOM     16  C   UNL     1      44.158   4.902  11.579  0.00  0.00    +0.000 C 
BRANCH  16  17
ATOM     17  N   UNL     1      44.382   5.219  10.158  0.00  0.00    +0.000 N 
ATOM     18  H   UNL     1      43.621   5.735   9.717  0.00  0.00    +0.000 HD
BRANCH  17  22
ATOM     19  C   UNL     1      46.539   2.576   7.676  0.00  0.00    +0.000 A 
ATOM     20  C   UNL     1      45.610   2.062   8.582  0.00  0.00    +0.000 A 
ATOM     21  C   UNL     1      44.872   2.929   9.398  0.00  0.00    +0.000 A 
ATOM     22  C   UNL     1      45.021   4.320   9.309  0.00  0.00    +0.000 A 
ATOM     23  C   UNL     1      45.976   4.814   8.409  0.00  0.00    +0.000 A 
ATOM     24  C   UNL     1      46.734   3.955   7.603  0.00  0.00    +0.000 A 
BRANCH  19  26
ATOM     25  N   UNL     1      48.429   2.262   6.172  0.00  0.00    +0.000 N 
ATOM     26  C   UNL     1      47.367   1.688   6.817  0.00  0.00    +0.000 C 
ATOM     27  O   UNL     1      47.137   0.491   6.718  0.00  0.00    +0.000 OA
ATOM     28  H   UNL     1      49.043   1.624   5.678  0.00  0.00    +0.000 HD
ATOM     29  H   UNL     1      48.790   3.168   6.422  0.00  0.00    +0.000 HD
ENDBRANCH  19  26
ENDBRANCH  17  22
ENDBRANCH  16  17
ENDBRANCH   1  16
TORSDOF 6
ENDMDL
MODEL 8
REMARK VINA RESULT:    -7.836      3.462      7.076
REMARK INTER + INTRA:         -11.686
REMARK INTER:                 -10.715
REMARK INTRA:                  -0.971
REMARK UNBOUND:                -1.101
REMARK  Name = 
REMARK  6 active torsions:
REMARK  status: ('A' for Active; 'I' for Inactive)
REMARK    1  A    between atoms: C_2  and  C_4
REMARK    2  A    between atoms: C_7  and  N_8
REMARK    3  A    between atoms: N_8  and  C_9
REMARK    4  A    between atoms: C_9  and  C_10
REMARK    5  A    between atoms: C_10  and  C_13
REMARK    6  A    between atoms: C_17  and  C_18
REMARK                            x       y       z     vdW  Elec       q    Type
REMARK                         _______ _______ _______ _____ _____    ______ ____
ROOT
ATOM      1  C   UNL     1      45.677   7.674  11.907  0.00  0.00    +0.000 C 
ATOM      2  F   UNL     1      45.339   7.947  13.203  0.00  0.00    +0.000 F 
ATOM      3  F   UNL     1      45.381   8.816  11.212  0.00  0.00    +0.000 F 
ENDROOT
BRANCH   1   4
ATOM      4  C   UNL     1      44.931   6.467  11.369  0.00  0.00    +0.000 A 
ATOM      5  C   UNL     1      43.593   6.249  11.714  0.00  0.00    +0.000 A 
ATOM      6  C   UNL     1      42.909   5.154  11.197  0.00  0.00    +0.000 A 
ATOM      7  C   UNL     1      43.553   4.269  10.326  0.00  0.00    +0.000 A 
ATOM      8  C   UNL     1      44.891   4.461   9.937  0.00  0.00    +0.000 A 
ATOM      9  C   UNL     1      45.564   5.571  10.485  0.00  0.00    +0.000 A 
BRANCH   8  10
ATOM     10  C   UNL     1      45.555   3.550   8.976  0.00  0.00    +0.000 A 
ATOM     11  C   UNL     1      46.249   4.016   7.850  0.00  0.00    +0.000 A 
ATOM     12  C   UNL     1      46.834   3.123   6.950  0.00  0.00    +0.000 A 
ATOM     13  C   UNL     1      46.724   1.768   7.203  0.00  0.00    +0.000 A 
ATOM     14  N   UNL     1      46.080   1.263   8.271  0.00  0.00    +0.000 NA
ATOM     15  C   UNL     1      45.515   2.159   9.119  0.00  0.00    +0.000 A 
ENDBRANCH   8  10
ENDBRANCH   1   4
BRANCH   1  16
ATOM     16  C   UNL     1      47.208   7.444  11.821  0.00  0.00    +0.000 C 
BRANCH  16  17
ATOM     17  N   UNL     1      47.881   7.496  13.131  0.00  0.00    +0.000 N 
ATOM     18  H   UNL     1      48.768   7.999  13.127  0.00  0.00    +0.000 HD
BRANCH  17  22
ATOM     19  C   UNL     1      47.676   4.363  15.948  0.00  0.00    +0.000 A 
ATOM     20  C   UNL     1      47.045   4.217  14.713  0.00  0.00    +0.000 A 
ATOM     21  C   UNL     1      47.122   5.241  13.759  0.00  0.00    +0.000 A 
ATOM     22  C   UNL     1      47.849   6.413  14.004  0.00  0.00    +0.000 A 
ATOM     23  C   UNL     1      48.456   6.550  15.260  0.00  0.00    +0.000 A 
ATOM     24  C   UNL     1      48.369   5.541  16.228  0.00  0.00    +0.000 A 
BRANCH  19  26
ATOM     25  N   UNL     1      48.770   2.817  17.479  0.00  0.00    +0.000 N 
ATOM     26  C   UNL     1      47.589   3.315  16.999  0.00  0.00    +0.000 C 
ATOM     27  O   UNL     1      46.515   2.939  17.446  0.00  0.00    +0.000 OA
ATOM     28  H   UNL     1      48.695   2.184  18.268  0.00  0.00    +0.000 HD
ATOM     29  H   UNL     1      49.655   3.271  17.320  0.00  0.00    +0.000 HD
ENDBRANCH  19  26
ENDBRANCH  17  22
ENDBRANCH  16  17
ENDBRANCH   1  16
TORSDOF 6
ENDMDL
MODEL 9
REMARK VINA RESULT:    -7.592      3.433      7.290
REMARK INTER + INTRA:         -11.356
REMARK INTER:                 -10.311
REMARK INTRA:                  -1.045
REMARK UNBOUND:                -1.101
REMARK  Name = 
REMARK  6 active torsions:
REMARK  status: ('A' for Active; 'I' for Inactive)
REMARK    1  A    between atoms: C_2  and  C_4
REMARK    2  A    between atoms: C_7  and  N_8
REMARK    3  A    between atoms: N_8  and  C_9
REMARK    4  A    between atoms: C_9  and  C_10
REMARK    5  A    between atoms: C_10  and  C_13
REMARK    6  A    between atoms: C_17  and  C_18
REMARK                            x       y       z     vdW  Elec       q    Type
REMARK                         _______ _______ _______ _____ _____    ______ ____
ROOT
ATOM      1  C   UNL     1      45.001   6.431  11.795  0.00  0.00    +0.000 C 
ATOM      2  F   UNL     1      44.377   6.635  12.994  0.00  0.00    +0.000 F 
ATOM      3  F   UNL     1      44.544   7.431  10.979  0.00  0.00    +0.000 F 
ENDROOT
BRANCH   1   4
ATOM      4  C   UNL     1      44.706   5.052  11.232  0.00  0.00    +0.000 A 
ATOM      5  C   UNL     1      43.702   4.256  11.794  0.00  0.00    +0.000 A 
ATOM      6  C   UNL     1      43.421   3.005  11.256  0.00  0.00    +0.000 A 
ATOM      7  C   UNL     1      44.136   2.539  10.148  0.00  0.00    +0.000 A 
ATOM      8  C   UNL     1      45.140   3.314   9.539  0.00  0.00    +0.000 A 
ATOM      9  C   UNL     1      45.412   4.572  10.112  0.00  0.00    +0.000 A 
BRANCH   8  10
ATOM     10  C   UNL     1      45.861   2.838   8.336  0.00  0.00    +0.000 A 
ATOM     11  C   UNL     1      46.157   3.677   7.252  0.00  0.00    +0.000 A 
ATOM     12  C   UNL     1      46.810   3.182   6.121  0.00  0.00    +0.000 A 
ATOM     13  C   UNL     1      47.170   1.847   6.102  0.00  0.00    +0.000 A 
ATOM     14  N   UNL     1      46.921   0.996   7.115  0.00  0.00    +0.000 NA
ATOM     15  C   UNL     1      46.276   1.509   8.193  0.00  0.00    +0.000 A 
ENDBRANCH   8  10
ENDBRANCH   1   4
BRANCH   1  16
ATOM     16  C   UNL     1      46.528   6.622  11.979  0.00  0.00    +0.000 C 
BRANCH  16  17
ATOM     17  N   UNL     1      46.911   6.967  13.360  0.00  0.00    +0.000 N 
ATOM     18  H   UNL     1      47.436   7.837  13.445  0.00  0.00    +0.000 HD
BRANCH  17  22
ATOM     19  C   UNL     1      47.974   4.141  16.306  0.00  0.00    +0.000 A 
ATOM     20  C   UNL     1      47.112   3.766  15.275  0.00  0.00    +0.000 A 
ATOM     21  C   UNL     1      46.766   4.688  14.278  0.00  0.00    +0.000 A 
ATOM     22  C   UNL     1      47.292   5.987  14.271  0.00  0.00    +0.000 A 
ATOM     23  C   UNL     1      48.139   6.351  15.328  0.00  0.00    +0.000 A 
ATOM     24  C   UNL     1      48.475   5.443  16.340  0.00  0.00    +0.000 A 
BRANCH  19  26
ATOM     25  N   UNL     1      47.327   2.787  18.224  0.00  0.00    +0.000 N 
ATOM     26  C   UNL     1      48.338   3.203  17.400  0.00  0.00    +0.000 C 
ATOM     27  O   UNL     1      49.480   2.788  17.540  0.00  0.00    +0.000 OA
ATOM     28  H   UNL     1      47.572   2.068  18.896  0.00  0.00    +0.000 HD
ATOM     29  H   UNL     1      46.355   2.907  17.992  0.00  0.00    +0.000 HD
ENDBRANCH  19  26
ENDBRANCH  17  22
ENDBRANCH  16  17
ENDBRANCH   1  16
TORSDOF 6
ENDMDL
