MODEL 1
REMARK VINA RESULT:    -9.281      0.000      0.000
REMARK INTER + INTRA:         -12.960
REMARK INTER:                 -11.994
REMARK INTRA:                  -0.965
REMARK UNBOUND:                -0.965
REMARK  Name = 
REMARK  6 active torsions:
REMARK  status: ('A' for Active; 'I' for Inactive)
REMARK    1  A    between atoms: C_1  and  O_2
REMARK    2  A    between atoms: O_2  and  C_3
REMARK    3  A    between atoms: C_7  and  C_8
REMARK    4  A    between atoms: C_12  and  C_13
REMARK    5  A    between atoms: C_13  and  N_14
REMARK    6  A    between atoms: C_18  and  C_19
REMARK                            x       y       z     vdW  Elec       q    Type
REMARK                         _______ _______ _______ _____ _____    ______ ____
ROOT
ATOM      1  C   UNL     1      43.944   5.106  11.135  0.00  0.00    +0.000 C 
ATOM      2  C   UNL     1      42.680   5.798  11.630  0.00  0.00    +0.000 C 
ATOM      3  C   UNL     1      42.763   4.310  11.663  0.00  0.00    +0.000 C 
ENDROOT
BRANCH   1   4
ATOM      4  N   UNL     1      44.226   5.115   9.686  0.00  0.00    +0.000 N 
ATOM      5  C   UNL     1      45.039   4.167   9.049  0.00  0.00    +0.000 A 
ATOM      6  C   UNL     1      45.067   2.820   9.397  0.00  0.00    +0.000 A 
ATOM      7  C   UNL     1      45.828   1.922   8.643  0.00  0.00    +0.000 A 
ATOM      8  C   UNL     1      46.564   2.379   7.554  0.00  0.00    +0.000 A 
ATOM      9  C   UNL     1      46.493   3.736   7.282  0.00  0.00    +0.000 A 
ATOM     10  N   UNL     1      45.751   4.626   7.997  0.00  0.00    +0.000 NA
ATOM     11  H   UNL     1      44.489   6.014   9.286  0.00  0.00    +0.000 HD
BRANCH   8  12
ATOM     12  C   UNL     1      47.359   1.409   6.760  0.00  0.00    +0.000 C 
ATOM     13  N   UNL     1      48.429   1.853   6.035  0.00  0.00    +0.000 N 
ATOM     14  O   UNL     1      47.069   0.217   6.749  0.00  0.00    +0.000 OA
ATOM     15  H   UNL     1      48.742   2.808   5.959  0.00  0.00    +0.000 HD
ATOM     16  H   UNL     1      48.931   1.155   5.501  0.00  0.00    +0.000 HD
ENDBRANCH   8  12
ENDBRANCH   1   4
BRANCH   1  21
ATOM     17  C   UNL     1      47.248   6.591  12.479  0.00  0.00    +0.000 A 
ATOM     18  C   UNL     1      47.457   5.783  13.607  0.00  0.00    +0.000 A 
ATOM     19  C   UNL     1      46.563   4.762  13.935  0.00  0.00    +0.000 A 
ATOM     20  C   UNL     1      45.434   4.540  13.143  0.00  0.00    +0.000 A 
ATOM     21  C   UNL     1      45.181   5.317  12.001  0.00  0.00    +0.000 A 
ATOM     22  C   UNL     1      46.107   6.324  11.693  0.00  0.00    +0.000 A 
BRANCH  17  27
ATOM     23  C   UNL     1      50.392   8.463  11.486  0.00  0.00    +0.000 A 
ATOM     24  C   UNL     1      49.894   9.756  11.532  0.00  0.00    +0.000 A 
ATOM     25  N   UNL     1      48.606  10.066  11.812  0.00  0.00    +0.000 NA
ATOM     26  C   UNL     1      47.783   9.025  12.091  0.00  0.00    +0.000 A 
ATOM     27  C   UNL     1      48.166   7.684  12.104  0.00  0.00    +0.000 A 
ATOM     28  C   UNL     1      49.507   7.426  11.772  0.00  0.00    +0.000 A 
BRANCH  23  30
ATOM     29  C   UNL     1      52.033   7.355  10.201  0.00  0.00    +0.000 C 
ATOM     30  O   UNL     1      51.720   8.317  11.204  0.00  0.00    +0.000 OA
ENDBRANCH  23  30
ENDBRANCH  17  27
ENDBRANCH   1  21
TORSDOF 5
ENDMDL
MODEL 2
REMARK VINA RESULT:    -9.172      2.727      4.204
REMARK INTER + INTRA:         -12.818
REMARK INTER:                 -11.952
REMARK INTRA:                  -0.865
REMARK UNBOUND:                -0.965
REMARK  Name = 
REMARK  6 active torsions:
REMARK  status: ('A' for Active; 'I' for Inactive)
REMARK    1  A    between atoms: C_1  and  O_2
REMARK    2  A    between atoms: O_2  and  C_3
REMARK    3  A    between atoms: C_7  and  C_8
REMARK    4  A    between atoms: C_12  and  C_13
REMARK    5  A    between atoms: C_13  and  N_14
REMARK    6  A    between atoms: C_18  and  C_19
REMARK                            x       y       z     vdW  Elec       q    Type
REMARK                         _______ _______ _______ _____ _____    ______ ____
ROOT
ATOM      1  C   UNL     1      43.927   5.114  11.212  0.00  0.00    +0.000 C 
ATOM      2  C   UNL     1      42.553   5.496  11.749  0.00  0.00    +0.000 C 
ATOM      3  C   UNL     1      43.020   4.085  11.864  0.00  0.00    +0.000 C 
ENDROOT
BRANCH   1   4
ATOM      4  N   UNL     1      44.125   5.087   9.750  0.00  0.00    +0.000 N 
ATOM      5  C   UNL     1      44.955   4.164   9.097  0.00  0.00    +0.000 A 
ATOM      6  C   UNL     1      45.080   2.835   9.487  0.00  0.00    +0.000 A 
ATOM      7  C   UNL     1      45.849   1.954   8.718  0.00  0.00    +0.000 A 
ATOM      8  C   UNL     1      46.494   2.412   7.573  0.00  0.00    +0.000 A 
ATOM      9  C   UNL     1      46.329   3.753   7.263  0.00  0.00    +0.000 A 
ATOM     10  N   UNL     1      45.579   4.625   7.990  0.00  0.00    +0.000 NA
ATOM     11  H   UNL     1      44.313   5.984   9.305  0.00  0.00    +0.000 HD
BRANCH   8  12
ATOM     12  C   UNL     1      47.298   1.461   6.766  0.00  0.00    +0.000 C 
ATOM     13  N   UNL     1      48.357   1.927   6.039  0.00  0.00    +0.000 N 
ATOM     14  O   UNL     1      47.025   0.265   6.747  0.00  0.00    +0.000 OA
ATOM     15  H   UNL     1      48.656   2.886   5.969  0.00  0.00    +0.000 HD
ATOM     16  H   UNL     1      48.866   1.241   5.496  0.00  0.00    +0.000 HD
ENDBRANCH   8  12
ENDBRANCH   1   4
BRANCH   1  21
ATOM     17  C   UNL     1      46.790   5.474  13.782  0.00  0.00    +0.000 A 
ATOM     18  C   UNL     1      47.333   6.708  13.396  0.00  0.00    +0.000 A 
ATOM     19  C   UNL     1      46.787   7.434  12.334  0.00  0.00    +0.000 A 
ATOM     20  C   UNL     1      45.693   6.926  11.632  0.00  0.00    +0.000 A 
ATOM     21  C   UNL     1      45.109   5.698  11.980  0.00  0.00    +0.000 A 
ATOM     22  C   UNL     1      45.673   5.004  13.060  0.00  0.00    +0.000 A 
BRANCH  17  27
ATOM     23  C   UNL     1      48.384   4.543  17.094  0.00  0.00    +0.000 A 
ATOM     24  C   UNL     1      48.489   3.175  16.902  0.00  0.00    +0.000 A 
ATOM     25  N   UNL     1      48.041   2.523  15.804  0.00  0.00    +0.000 NA
ATOM     26  C   UNL     1      47.483   3.289  14.834  0.00  0.00    +0.000 A 
ATOM     27  C   UNL     1      47.343   4.676  14.893  0.00  0.00    +0.000 A 
ATOM     28  C   UNL     1      47.798   5.289  16.073  0.00  0.00    +0.000 A 
BRANCH  23  30
ATOM     29  C   UNL     1      47.947   5.566  19.177  0.00  0.00    +0.000 C 
ATOM     30  O   UNL     1      48.900   5.052  18.251  0.00  0.00    +0.000 OA
ENDBRANCH  23  30
ENDBRANCH  17  27
ENDBRANCH   1  21
TORSDOF 5
ENDMDL
MODEL 3
REMARK VINA RESULT:    -8.865      1.543      2.123
REMARK INTER + INTRA:         -12.421
REMARK INTER:                 -11.433
REMARK INTRA:                  -0.988
REMARK UNBOUND:                -0.965
REMARK  Name = 
REMARK  6 active torsions:
REMARK  status: ('A' for Active; 'I' for Inactive)
REMARK    1  A    between atoms: C_1  and  O_2
REMARK    2  A    between atoms: O_2  and  C_3
REMARK    3  A    between atoms: C_7  and  C_8
REMARK    4  A    between atoms: C_12  and  C_13
REMARK    5  A    between atoms: C_13  and  N_14
REMARK    6  A    between atoms: C_18  and  C_19
REMARK                            x       y       z     vdW  Elec       q    Type
REMARK                         _______ _______ _______ _____ _____    ______ ____
ROOT
ATOM      1  C   UNL     1      44.009   4.920  11.315  0.00  0.00    +0.000 C 
ATOM      2  C   UNL     1      42.678   5.416  11.865  0.00  0.00    +0.000 C 
ATOM      3  C   UNL     1      42.938   3.951  11.784  0.00  0.00    +0.000 C 
ENDROOT
BRANCH   1   4
ATOM      4  N   UNL     1      44.272   5.073   9.872  0.00  0.00    +0.000 N 
ATOM      5  C   UNL     1      45.081   4.197   9.134  0.00  0.00    +0.000 A 
ATOM      6  C   UNL     1      45.121   2.823   9.348  0.00  0.00    +0.000 A 
ATOM      7  C   UNL     1      45.877   2.008   8.499  0.00  0.00    +0.000 A 
ATOM      8  C   UNL     1      46.597   2.575   7.451  0.00  0.00    +0.000 A 
ATOM      9  C   UNL     1      46.514   3.952   7.315  0.00  0.00    +0.000 A 
ATOM     10  N   UNL     1      45.777   4.762   8.123  0.00  0.00    +0.000 NA
ATOM     11  H   UNL     1      44.525   6.008   9.558  0.00  0.00    +0.000 HD
BRANCH   8  12
ATOM     12  C   UNL     1      47.386   1.692   6.556  0.00  0.00    +0.000 C 
ATOM     13  N   UNL     1      48.340   2.241   5.746  0.00  0.00    +0.000 N 
ATOM     14  O   UNL     1      47.194   0.481   6.537  0.00  0.00    +0.000 OA
ATOM     15  H   UNL     1      48.566   3.220   5.669  0.00  0.00    +0.000 HD
ATOM     16  H   UNL     1      48.843   1.600   5.145  0.00  0.00    +0.000 HD
ENDBRANCH   8  12
ENDBRANCH   1   4
BRANCH   1  21
ATOM     17  C   UNL     1      47.020   6.764  12.887  0.00  0.00    +0.000 A 
ATOM     18  C   UNL     1      47.439   5.818  13.834  0.00  0.00    +0.000 A 
ATOM     19  C   UNL     1      46.780   4.593  13.968  0.00  0.00    +0.000 A 
ATOM     20  C   UNL     1      45.679   4.301  13.160  0.00  0.00    +0.000 A 
ATOM     21  C   UNL     1      45.222   5.210  12.193  0.00  0.00    +0.000 A 
ATOM     22  C   UNL     1      45.916   6.423  12.076  0.00  0.00    +0.000 A 
BRANCH  17  27
ATOM     23  C   UNL     1      47.632  10.397  11.995  0.00  0.00    +0.000 A 
ATOM     24  C   UNL     1      48.983  10.466  12.298  0.00  0.00    +0.000 A 
ATOM     25  N   UNL     1      49.701   9.442  12.814  0.00  0.00    +0.000 NA
ATOM     26  C   UNL     1      49.034   8.277  13.009  0.00  0.00    +0.000 A 
ATOM     27  C   UNL     1      47.685   8.070  12.721  0.00  0.00    +0.000 A 
ATOM     28  C   UNL     1      46.987   9.182  12.218  0.00  0.00    +0.000 A 
BRANCH  23  30
ATOM     29  C   UNL     1      45.656  11.422  11.209  0.00  0.00    +0.000 C 
ATOM     30  O   UNL     1      47.055  11.515  11.465  0.00  0.00    +0.000 OA
ENDBRANCH  23  30
ENDBRANCH  17  27
ENDBRANCH   1  21
TORSDOF 5
ENDMDL
MODEL 4
REMARK VINA RESULT:    -8.282      1.444      1.860
REMARK INTER + INTRA:         -11.668
REMARK INTER:                 -10.788
REMARK INTRA:                  -0.880
REMARK UNBOUND:                -0.965
REMARK  Name = 
REMARK  6 active torsions:
REMARK  status: ('A' for Active; 'I' for Inactive)
REMARK    1  A    between atoms: C_1  and  O_2
REMARK    2  A    between atoms: O_2  and  C_3
REMARK    3  A    between atoms: C_7  and  C_8
REMARK    4  A    between atoms: C_12  and  C_13
REMARK    5  A    between atoms: C_13  and  N_14
REMARK    6  A    between atoms: C_18  and  C_19
REMARK                            x       y       z     vdW  Elec       q    Type
REMARK                         _______ _______ _______ _____ _____    ______ ____
ROOT
ATOM      1  C   UNL     1      44.147   4.994  11.354  0.00  0.00    +0.000 C 
ATOM      2  C   UNL     1      42.805   5.494  11.872  0.00  0.00    +0.000 C 
ATOM      3  C   UNL     1      43.011   4.033  11.659  0.00  0.00    +0.000 C 
ENDROOT
BRANCH   1   4
ATOM      4  N   UNL     1      44.506   5.274   9.950  0.00  0.00    +0.000 N 
ATOM      5  C   UNL     1      45.279   4.412   9.159  0.00  0.00    +0.000 A 
ATOM      6  C   UNL     1      45.187   3.025   9.221  0.00  0.00    +0.000 A 
ATOM      7  C   UNL     1      45.919   2.239   8.324  0.00  0.00    +0.000 A 
ATOM      8  C   UNL     1      46.744   2.846   7.382  0.00  0.00    +0.000 A 
ATOM      9  C   UNL     1      46.788   4.231   7.396  0.00  0.00    +0.000 A 
ATOM     10  N   UNL     1      46.078   5.015   8.253  0.00  0.00    +0.000 NA
ATOM     11  H   UNL     1      44.856   6.211   9.755  0.00  0.00    +0.000 HD
BRANCH   8  12
ATOM     12  C   UNL     1      47.505   1.995   6.433  0.00  0.00    +0.000 C 
ATOM     13  N   UNL     1      48.026   2.556   5.301  0.00  0.00    +0.000 N 
ATOM     14  O   UNL     1      47.673   0.801   6.655  0.00  0.00    +0.000 OA
ATOM     15  H   UNL     1      47.932   3.517   5.014  0.00  0.00    +0.000 HD
ATOM     16  H   UNL     1      48.526   1.932   4.680  0.00  0.00    +0.000 HD
ENDBRANCH   8  12
ENDBRANCH   1   4
BRANCH   1  21
ATOM     17  C   UNL     1      47.295   6.411  13.090  0.00  0.00    +0.000 A 
ATOM     18  C   UNL     1      47.456   5.487  14.132  0.00  0.00    +0.000 A 
ATOM     19  C   UNL     1      46.580   4.409  14.280  0.00  0.00    +0.000 A 
ATOM     20  C   UNL     1      45.517   4.247  13.389  0.00  0.00    +0.000 A 
ATOM     21  C   UNL     1      45.314   5.140  12.325  0.00  0.00    +0.000 A 
ATOM     22  C   UNL     1      46.221   6.202  12.198  0.00  0.00    +0.000 A 
BRANCH  17  27
ATOM     23  C   UNL     1      49.538   9.375  13.837  0.00  0.00    +0.000 A 
ATOM     24  C   UNL     1      49.771   9.799  12.538  0.00  0.00    +0.000 A 
ATOM     25  N   UNL     1      49.298   9.171  11.436  0.00  0.00    +0.000 NA
ATOM     26  C   UNL     1      48.526   8.077  11.651  0.00  0.00    +0.000 A 
ATOM     27  C   UNL     1      48.195   7.566  12.905  0.00  0.00    +0.000 A 
ATOM     28  C   UNL     1      48.744   8.243  14.008  0.00  0.00    +0.000 A 
BRANCH  23  30
ATOM     29  C   UNL     1      49.136  10.865  15.623  0.00  0.00    +0.000 C 
ATOM     30  O   UNL     1      50.072  10.128  14.843  0.00  0.00    +0.000 OA
ENDBRANCH  23  30
ENDBRANCH  17  27
ENDBRANCH   1  21
TORSDOF 5
ENDMDL
MODEL 5
REMARK VINA RESULT:    -7.996      2.267      3.160
REMARK INTER + INTRA:         -11.299
REMARK INTER:                 -10.921
REMARK INTRA:                  -0.378
REMARK UNBOUND:                -0.965
REMARK  Name = 
REMARK  6 active torsions:
REMARK  status: ('A' for Active; 'I' for Inactive)
REMARK    1  A    between atoms: C_1  and  O_2
REMARK    2  A    between atoms: O_2  and  C_3
REMARK    3  A    between atoms: C_7  and  C_8
REMARK    4  A    between atoms: C_12  and  C_13
REMARK    5  A    between atoms: C_13  and  N_14
REMARK    6  A    between atoms: C_18  and  C_19
REMARK                            x       y       z     vdW  Elec       q    Type
REMARK                         _______ _______ _______ _____ _____    ______ ____
ROOT
ATOM      1  C   UNL     1      43.854   5.419  11.158  0.00  0.00    +0.000 C 
ATOM      2  C   UNL     1      42.468   5.249  11.766  0.00  0.00    +0.000 C 
ATOM      3  C   UNL     1      43.539   4.265  12.094  0.00  0.00    +0.000 C 
ENDROOT
BRANCH   1   4
ATOM      4  N   UNL     1      44.024   5.160   9.715  0.00  0.00    +0.000 N 
ATOM      5  C   UNL     1      44.810   4.118   9.201  0.00  0.00    +0.000 A 
ATOM      6  C   UNL     1      44.900   2.861   9.790  0.00  0.00    +0.000 A 
ATOM      7  C   UNL     1      45.625   1.846   9.156  0.00  0.00    +0.000 A 
ATOM      8  C   UNL     1      46.263   2.100   7.946  0.00  0.00    +0.000 A 
ATOM      9  C   UNL     1      46.135   3.382   7.434  0.00  0.00    +0.000 A 
ATOM     10  N   UNL     1      45.427   4.382   8.028  0.00  0.00    +0.000 NA
ATOM     11  H   UNL     1      44.232   5.971   9.135  0.00  0.00    +0.000 HD
BRANCH   8  12
ATOM     12  C   UNL     1      47.019   1.008   7.284  0.00  0.00    +0.000 C 
ATOM     13  N   UNL     1      46.755  -0.290   7.622  0.00  0.00    +0.000 N 
ATOM     14  O   UNL     1      47.873   1.256   6.439  0.00  0.00    +0.000 OA
ATOM     15  H   UNL     1      46.091  -0.602   8.312  0.00  0.00    +0.000 HD
ATOM     16  H   UNL     1      47.306  -0.997   7.152  0.00  0.00    +0.000 HD
ENDBRANCH   8  12
ENDBRANCH   1   4
BRANCH   1  21
ATOM     17  C   UNL     1      46.555   7.533  12.938  0.00  0.00    +0.000 A 
ATOM     18  C   UNL     1      46.159   8.827  12.567  0.00  0.00    +0.000 A 
ATOM     19  C   UNL     1      45.033   9.033  11.768  0.00  0.00    +0.000 A 
ATOM     20  C   UNL     1      44.289   7.941  11.315  0.00  0.00    +0.000 A 
ATOM     21  C   UNL     1      44.640   6.626  11.660  0.00  0.00    +0.000 A 
ATOM     22  C   UNL     1      45.767   6.458  12.476  0.00  0.00    +0.000 A 
BRANCH  17  27
ATOM     23  C   UNL     1      48.844   6.042  15.567  0.00  0.00    +0.000 A 
ATOM     24  C   UNL     1      49.926   6.894  15.415  0.00  0.00    +0.000 A 
ATOM     25  N   UNL     1      49.993   7.884  14.494  0.00  0.00    +0.000 NA
ATOM     26  C   UNL     1      48.903   8.046  13.704  0.00  0.00    +0.000 A 
ATOM     27  C   UNL     1      47.743   7.275  13.774  0.00  0.00    +0.000 A 
ATOM     28  C   UNL     1      47.749   6.243  14.729  0.00  0.00    +0.000 A 
BRANCH  23  30
ATOM     29  C   UNL     1      47.977   4.042  16.472  0.00  0.00    +0.000 C 
ATOM     30  O   UNL     1      48.924   5.103  16.555  0.00  0.00    +0.000 OA
ENDBRANCH  23  30
ENDBRANCH  17  27
ENDBRANCH   1  21
TORSDOF 5
ENDMDL
MODEL 6
REMARK VINA RESULT:    -7.573      2.290      2.898
REMARK INTER + INTRA:         -10.752
REMARK INTER:                 -10.433
REMARK INTRA:                  -0.319
REMARK UNBOUND:                -0.965
REMARK  Name = 
REMARK  6 active torsions:
REMARK  status: ('A' for Active; 'I' for Inactive)
REMARK    1  A    between atoms: C_1  and  O_2
REMARK    2  A    between atoms: O_2  and  C_3
REMARK    3  A    between atoms: C_7  and  C_8
REMARK    4  A    between atoms: C_12  and  C_13
REMARK    5  A    between atoms: C_13  and  N_14
REMARK    6  A    between atoms: C_18  and  C_19
REMARK                            x       y       z     vdW  Elec       q    Type
REMARK                         _______ _______ _______ _____ _____    ______ ____
ROOT
ATOM      1  C   UNL     1      44.286   5.317  11.252  0.00  0.00    +0.000 C 
ATOM      2  C   UNL     1      42.891   5.071  11.812  0.00  0.00    +0.000 C 
ATOM      3  C   UNL     1      43.950   4.040  12.002  0.00  0.00    +0.000 C 
ENDROOT
BRANCH   1   4
ATOM      4  N   UNL     1      44.472   5.275   9.789  0.00  0.00    +0.000 N 
ATOM      5  C   UNL     1      45.209   4.282   9.129  0.00  0.00    +0.000 A 
ATOM      6  C   UNL     1      45.216   2.946   9.515  0.00  0.00    +0.000 A 
ATOM      7  C   UNL     1      45.896   2.000   8.740  0.00  0.00    +0.000 A 
ATOM      8  C   UNL     1      46.573   2.401   7.592  0.00  0.00    +0.000 A 
ATOM      9  C   UNL     1      46.528   3.752   7.284  0.00  0.00    +0.000 A 
ATOM     10  N   UNL     1      45.865   4.687   8.019  0.00  0.00    +0.000 NA
ATOM     11  H   UNL     1      44.737   6.153   9.345  0.00  0.00    +0.000 HD
BRANCH   8  12
ATOM     12  C   UNL     1      47.281   1.382   6.778  0.00  0.00    +0.000 C 
ATOM     13  N   UNL     1      48.230   1.783   5.880  0.00  0.00    +0.000 N 
ATOM     14  O   UNL     1      47.027   0.189   6.903  0.00  0.00    +0.000 OA
ATOM     15  H   UNL     1      48.502   2.733   5.685  0.00  0.00    +0.000 HD
ATOM     16  H   UNL     1      48.675   1.052   5.340  0.00  0.00    +0.000 HD
ENDBRANCH   8  12
ENDBRANCH   1   4
BRANCH   1  21
ATOM     17  C   UNL     1      46.843   7.108  13.531  0.00  0.00    +0.000 A 
ATOM     18  C   UNL     1      46.599   8.447  13.193  0.00  0.00    +0.000 A 
ATOM     19  C   UNL     1      45.620   8.786  12.257  0.00  0.00    +0.000 A 
ATOM     20  C   UNL     1      44.875   7.784  11.632  0.00  0.00    +0.000 A 
ATOM     21  C   UNL     1      45.075   6.429  11.938  0.00  0.00    +0.000 A 
ATOM     22  C   UNL     1      46.055   6.126  12.894  0.00  0.00    +0.000 A 
BRANCH  17  27
ATOM     23  C   UNL     1      50.042   7.064  15.565  0.00  0.00    +0.000 A 
ATOM     24  C   UNL     1      49.842   5.877  16.251  0.00  0.00    +0.000 A 
ATOM     25  N   UNL     1      48.730   5.113  16.143  0.00  0.00    +0.000 NA
ATOM     26  C   UNL     1      47.781   5.549  15.278  0.00  0.00    +0.000 A 
ATOM     27  C   UNL     1      47.872   6.710  14.510  0.00  0.00    +0.000 A 
ATOM     28  C   UNL     1      49.037   7.476  14.692  0.00  0.00    +0.000 A 
BRANCH  23  30
ATOM     29  C   UNL     1      51.865   8.212  14.600  0.00  0.00    +0.000 C 
ATOM     30  O   UNL     1      51.226   7.711  15.771  0.00  0.00    +0.000 OA
ENDBRANCH  23  30
ENDBRANCH  17  27
ENDBRANCH   1  21
TORSDOF 5
ENDMDL
MODEL 7
REMARK VINA RESULT:    -7.026      5.141      8.324
REMARK INTER + INTRA:         -10.045
REMARK INTER:                  -9.112
REMARK INTRA:                  -0.933
REMARK UNBOUND:                -0.965
REMARK  Name = 
REMARK  6 active torsions:
REMARK  status: ('A' for Active; 'I' for Inactive)
REMARK    1  A    between atoms: C_1  and  O_2
REMARK    2  A    between atoms: O_2  and  C_3
REMARK    3  A    between atoms: C_7  and  C_8
REMARK    4  A    between atoms: C_12  and  C_13
REMARK    5  A    between atoms: C_13  and  N_14
REMARK    6  A    between atoms: C_18  and  C_19
REMARK                            x       y       z     vdW  Elec       q    Type
REMARK                         _______ _______ _______ _____ _____    ______ ____
ROOT
ATOM      1  C   UNL     1      49.022   7.184  16.751  0.00  0.00    +0.000 C 
ATOM      2  C   UNL     1      48.404   8.420  17.392  0.00  0.00    +0.000 C 
ATOM      3  C   UNL     1      49.869   8.180  17.524  0.00  0.00    +0.000 C 
ENDROOT
BRANCH   1   4
ATOM      4  N   UNL     1      48.727   5.866  17.343  0.00  0.00    +0.000 N 
ATOM      5  C   UNL     1      49.635   4.797  17.350  0.00  0.00    +0.000 A 
ATOM      6  C   UNL     1      51.006   4.956  17.528  0.00  0.00    +0.000 A 
ATOM      7  C   UNL     1      51.830   3.830  17.626  0.00  0.00    +0.000 A 
ATOM      8  C   UNL     1      51.278   2.555  17.534  0.00  0.00    +0.000 A 
ATOM      9  C   UNL     1      49.907   2.485  17.344  0.00  0.00    +0.000 A 
ATOM     10  N   UNL     1      49.085   3.567  17.255  0.00  0.00    +0.000 NA
ATOM     11  H   UNL     1      47.826   5.456  17.101  0.00  0.00    +0.000 HD
BRANCH   8  12
ATOM     12  C   UNL     1      52.167   1.373  17.649  0.00  0.00    +0.000 C 
ATOM     13  N   UNL     1      51.650   0.186  18.089  0.00  0.00    +0.000 N 
ATOM     14  O   UNL     1      53.355   1.447  17.353  0.00  0.00    +0.000 OA
ATOM     15  H   UNL     1      50.699   0.020  18.374  0.00  0.00    +0.000 HD
ATOM     16  H   UNL     1      52.300  -0.587  18.162  0.00  0.00    +0.000 HD
ENDBRANCH   8  12
ENDBRANCH   1   4
BRANCH   1  21
ATOM     17  C   UNL     1      47.930   6.590  13.092  0.00  0.00    +0.000 A 
ATOM     18  C   UNL     1      48.987   7.202  12.403  0.00  0.00    +0.000 A 
ATOM     19  C   UNL     1      50.050   7.790  13.091  0.00  0.00    +0.000 A 
ATOM     20  C   UNL     1      50.066   7.785  14.487  0.00  0.00    +0.000 A 
ATOM     21  C   UNL     1      49.035   7.182  15.226  0.00  0.00    +0.000 A 
ATOM     22  C   UNL     1      47.991   6.588  14.502  0.00  0.00    +0.000 A 
BRANCH  17  27
ATOM     23  C   UNL     1      44.986   4.321  12.344  0.00  0.00    +0.000 A 
ATOM     24  C   UNL     1      44.735   4.721  11.041  0.00  0.00    +0.000 A 
ATOM     25  N   UNL     1      45.413   5.703  10.402  0.00  0.00    +0.000 NA
ATOM     26  C   UNL     1      46.416   6.293  11.097  0.00  0.00    +0.000 A 
ATOM     27  C   UNL     1      46.786   5.965  12.401  0.00  0.00    +0.000 A 
ATOM     28  C   UNL     1      46.022   4.961  13.021  0.00  0.00    +0.000 A 
BRANCH  23  30
ATOM     29  C   UNL     1      43.345   2.680  11.908  0.00  0.00    +0.000 C 
ATOM     30  O   UNL     1      44.224   3.304  12.841  0.00  0.00    +0.000 OA
ENDBRANCH  23  30
ENDBRANCH  17  27
ENDBRANCH   1  21
TORSDOF 5
ENDMDL
MODEL 8
REMARK VINA RESULT:    -6.900      3.412      8.121
REMARK INTER + INTRA:          -9.882
REMARK INTER:                  -8.935
REMARK INTRA:                  -0.947
REMARK UNBOUND:                -0.965
REMARK  Name = 
REMARK  6 active torsions:
REMARK  status: ('A' for Active; 'I' for Inactive)
REMARK    1  A    between atoms: C_1  and  O_2
REMARK    2  A    between atoms: O_2  and  C_3
REMARK    3  A    between atoms: C_7  and  C_8
REMARK    4  A    between atoms: C_12  and  C_13
REMARK    5  A    between atoms: C_13  and  N_14
REMARK    6  A    between atoms: C_18  and  C_19
REMARK                            x       y       z     vdW  Elec       q    Type
REMARK                         _______ _______ _______ _____ _____    ______ ____
ROOT
ATOM      1  C   UNL     1      49.142   8.441  12.602  0.00  0.00    +0.000 C 
ATOM      2  C   UNL     1      49.880   9.183  11.495  0.00  0.00    +0.000 C 
ATOM      3  C   UNL     1      50.198   7.751  11.757  0.00  0.00    +0.000 C 
ENDROOT
BRANCH   1   4
ATOM      4  N   UNL     1      49.445   8.792  14.003  0.00  0.00    +0.000 N 
ATOM      5  C   UNL     1      49.027   8.028  15.102  0.00  0.00    +0.000 A 
ATOM      6  C   UNL     1      48.980   6.637  15.097  0.00  0.00    +0.000 A 
ATOM      7  C   UNL     1      48.651   5.948  16.269  0.00  0.00    +0.000 A 
ATOM      8  C   UNL     1      48.360   6.655  17.432  0.00  0.00    +0.000 A 
ATOM      9  C   UNL     1      48.417   8.037  17.349  0.00  0.00    +0.000 A 
ATOM     10  N   UNL     1      48.743   8.728  16.222  0.00  0.00    +0.000 NA
ATOM     11  H   UNL     1      49.283   9.762  14.268  0.00  0.00    +0.000 HD
BRANCH   8  12
ATOM     12  C   UNL     1      48.022   5.906  18.668  0.00  0.00    +0.000 C 
ATOM     13  N   UNL     1      46.730   5.514  18.881  0.00  0.00    +0.000 N 
ATOM     14  O   UNL     1      48.886   5.632  19.494  0.00  0.00    +0.000 OA
ATOM     15  H   UNL     1      45.944   5.701  18.280  0.00  0.00    +0.000 HD
ATOM     16  H   UNL     1      46.548   5.017  19.744  0.00  0.00    +0.000 HD
ENDBRANCH   8  12
ENDBRANCH   1   4
BRANCH   1  21
ATOM     17  C   UNL     1      45.878   6.714  11.465  0.00  0.00    +0.000 A 
ATOM     18  C   UNL     1      44.926   7.654  11.885  0.00  0.00    +0.000 A 
ATOM     19  C   UNL     1      45.313   8.838  12.515  0.00  0.00    +0.000 A 
ATOM     20  C   UNL     1      46.667   9.095  12.746  0.00  0.00    +0.000 A 
ATOM     21  C   UNL     1      47.660   8.190  12.341  0.00  0.00    +0.000 A 
ATOM     22  C   UNL     1      47.236   7.019  11.698  0.00  0.00    +0.000 A 
BRANCH  17  27
ATOM     23  C   UNL     1      45.293   4.097   8.784  0.00  0.00    +0.000 A 
ATOM     24  C   UNL     1      44.687   3.125   9.564  0.00  0.00    +0.000 A 
ATOM     25  N   UNL     1      44.496   3.230  10.900  0.00  0.00    +0.000 NA
ATOM     26  C   UNL     1      44.909   4.385  11.478  0.00  0.00    +0.000 A 
ATOM     27  C   UNL     1      45.507   5.449  10.802  0.00  0.00    +0.000 A 
ATOM     28  C   UNL     1      45.707   5.264   9.423  0.00  0.00    +0.000 A 
BRANCH  23  30
ATOM     29  C   UNL     1      46.686   3.437   6.996  0.00  0.00    +0.000 C 
ATOM     30  O   UNL     1      45.397   3.846   7.447  0.00  0.00    +0.000 OA
ENDBRANCH  23  30
ENDBRANCH  17  27
ENDBRANCH   1  21
TORSDOF 5
ENDMDL
MODEL 9
REMARK VINA RESULT:    -6.627      3.066      7.155
REMARK INTER + INTRA:          -9.529
REMARK INTER:                  -9.619
REMARK INTRA:                   0.089
REMARK UNBOUND:                -0.965
REMARK  Name = 
REMARK  6 active torsions:
REMARK  status: ('A' for Active; 'I' for Inactive)
REMARK    1  A    between atoms: C_1  and  O_2
REMARK    2  A    between atoms: O_2  and  C_3
REMARK    3  A    between atoms: C_7  and  C_8
REMARK    4  A    between atoms: C_12  and  C_13
REMARK    5  A    between atoms: C_13  and  N_14
REMARK    6  A    between atoms: C_18  and  C_19
REMARK                            x       y       z     vdW  Elec       q    Type
REMARK                         _______ _______ _______ _____ _____    ______ ____
ROOT
ATOM      1  C   UNL     1      46.312   7.777  12.511  0.00  0.00    +0.000 C 
ATOM      2  C   UNL     1      45.640   8.941  13.228  0.00  0.00    +0.000 C 
ATOM      3  C   UNL     1      46.332   9.180  11.929  0.00  0.00    +0.000 C 
ENDROOT
BRANCH   1   4
ATOM      4  N   UNL     1      47.545   7.213  13.093  0.00  0.00    +0.000 N 
ATOM      5  C   UNL     1      47.551   6.213  14.077  0.00  0.00    +0.000 A 
ATOM      6  C   UNL     1      46.642   5.161  14.108  0.00  0.00    +0.000 A 
ATOM      7  C   UNL     1      46.782   4.148  15.064  0.00  0.00    +0.000 A 
ATOM      8  C   UNL     1      47.822   4.203  15.987  0.00  0.00    +0.000 A 
ATOM      9  C   UNL     1      48.676   5.292  15.895  0.00  0.00    +0.000 A 
ATOM     10  N   UNL     1      48.564   6.282  14.969  0.00  0.00    +0.000 NA
ATOM     11  H   UNL     1      48.253   7.885  13.383  0.00  0.00    +0.000 HD
BRANCH   8  12
ATOM     12  C   UNL     1      47.959   3.115  16.987  0.00  0.00    +0.000 C 
ATOM     13  N   UNL     1      47.172   3.129  18.104  0.00  0.00    +0.000 N 
ATOM     14  O   UNL     1      48.765   2.206  16.821  0.00  0.00    +0.000 OA
ATOM     15  H   UNL     1      46.495   3.834  18.347  0.00  0.00    +0.000 HD
ATOM     16  H   UNL     1      47.312   2.372  18.762  0.00  0.00    +0.000 HD
ENDBRANCH   8  12
ENDBRANCH   1   4
BRANCH   1  21
ATOM     17  C   UNL     1      44.929   4.893  10.342  0.00  0.00    +0.000 A 
ATOM     18  C   UNL     1      43.660   4.722  10.915  0.00  0.00    +0.000 A 
ATOM     19  C   UNL     1      43.235   5.525  11.976  0.00  0.00    +0.000 A 
ATOM     20  C   UNL     1      44.083   6.508  12.490  0.00  0.00    +0.000 A 
ATOM     21  C   UNL     1      45.361   6.724  11.950  0.00  0.00    +0.000 A 
ATOM     22  C   UNL     1      45.749   5.909  10.877  0.00  0.00    +0.000 A 
BRANCH  17  27
ATOM     23  C   UNL     1      45.901   1.868   8.273  0.00  0.00    +0.000 A 
ATOM     24  C   UNL     1      46.450   2.524   7.182  0.00  0.00    +0.000 A 
ATOM     25  N   UNL     1      46.485   3.870   7.042  0.00  0.00    +0.000 NA
ATOM     26  C   UNL     1      45.970   4.596   8.065  0.00  0.00    +0.000 A 
ATOM     27  C   UNL     1      45.415   4.060   9.226  0.00  0.00    +0.000 A 
ATOM     28  C   UNL     1      45.378   2.656   9.297  0.00  0.00    +0.000 A 
BRANCH  23  30
ATOM     29  C   UNL     1      46.974  -0.069   7.456  0.00  0.00    +0.000 C 
ATOM     30  O   UNL     1      45.957   0.505   8.273  0.00  0.00    +0.000 OA
ENDBRANCH  23  30
ENDBRANCH  17  27
ENDBRANCH   1  21
TORSDOF 5
ENDMDL
