MODEL 1
REMARK VINA RESULT:    -9.099      0.000      0.000
REMARK INTER + INTRA:         -11.833
REMARK INTER:                 -11.226
REMARK INTRA:                  -0.607
REMARK UNBOUND:                -0.607
REMARK  Name = 
REMARK  4 active torsions:
REMARK  status: ('A' for Active; 'I' for Inactive)
REMARK    1  A    between atoms: C_2  and  C_4
REMARK    2  A    between atoms: N_8  and  C_9
REMARK    3  A    between atoms: C_9  and  C_10
REMARK    4  A    between atoms: C_12  and  C_13
REMARK                            x       y       z     vdW  Elec       q    Type
REMARK                         _______ _______ _______ _____ _____    ______ ____
ROOT
ATOM      1  C   UNL     1      43.886   4.836  11.444  0.00  0.00    +0.000 C 
ATOM      2  C   UNL     1      42.591   5.123  12.199  0.00  0.00    +0.000 C 
ATOM      3  C   UNL     1      43.037   6.053  11.120  0.00  0.00    +0.000 C 
ENDROOT
BRANCH   1   8
ATOM      4  C   UNL     1      46.420   2.635   7.561  0.00  0.00    +0.000 A 
ATOM      5  C   UNL     1      45.864   1.709   8.408  0.00  0.00    +0.000 A 
ATOM      6  N   UNL     1      45.070   2.034   9.449  0.00  0.00    +0.000 NA
ATOM      7  C   UNL     1      44.846   3.341   9.669  0.00  0.00    +0.000 A 
ATOM      8  N   UNL     1      43.879   3.614  10.628  0.00  0.00    +0.000 N 
ATOM      9  N   UNL     1      45.426   4.322   8.955  0.00  0.00    +0.000 NA
ATOM     10  C   UNL     1      46.201   3.947   7.907  0.00  0.00    +0.000 A 
ATOM     11  H   UNL     1      43.697   2.746  11.120  0.00  0.00    +0.000 HD
BRANCH   4  13
ATOM     12  N   UNL     1      47.118   3.134   5.292  0.00  0.00    +0.000 N 
ATOM     13  C   UNL     1      47.179   2.274   6.353  0.00  0.00    +0.000 C 
ATOM     14  O   UNL     1      47.880   1.270   6.329  0.00  0.00    +0.000 OA
ATOM     15  H   UNL     1      47.747   2.940   4.520  0.00  0.00    +0.000 HD
ATOM     16  H   UNL     1      46.769   4.082   5.367  0.00  0.00    +0.000 HD
ENDBRANCH   4  13
ENDBRANCH   1   8
BRANCH   1  17
ATOM     17  C   UNL     1      45.196   5.090  12.195  0.00  0.00    +0.000 A 
ATOM     18  C   UNL     1      46.042   6.129  11.797  0.00  0.00    +0.000 A 
ATOM     19  C   UNL     1      47.147   6.502  12.575  0.00  0.00    +0.000 A 
ATOM     20  C   UNL     1      47.383   5.744  13.728  0.00  0.00    +0.000 A 
ATOM     21  C   UNL     1      46.551   4.678  14.026  0.00  0.00    +0.000 A 
ATOM     22  N   UNL     1      45.478   4.337  13.288  0.00  0.00    +0.000 NA
BRANCH  19  23
ATOM     23  C   UNL     1      47.989   7.669  12.219  0.00  0.00    +0.000 A 
ATOM     24  C   UNL     1      49.358   7.521  11.906  0.00  0.00    +0.000 A 
ATOM     25  C   UNL     1      50.149   8.616  11.546  0.00  0.00    +0.000 A 
ATOM     26  C   UNL     1      49.580   9.877  11.479  0.00  0.00    +0.000 A 
ATOM     27  F   UNL     1      50.332  10.925  11.118  0.00  0.00    +0.000 F 
ATOM     28  C   UNL     1      48.240  10.066  11.778  0.00  0.00    +0.000 A 
ATOM     29  C   UNL     1      47.454   8.972  12.153  0.00  0.00    +0.000 A 
ENDBRANCH  19  23
ENDBRANCH   1  17
TORSDOF 4
ENDMDL
MODEL 2
REMARK VINA RESULT:    -8.303      2.641      3.978
REMARK INTER + INTRA:         -10.852
REMARK INTER:                 -10.599
REMARK INTRA:                  -0.253
REMARK UNBOUND:                -0.607
REMARK  Name = 
REMARK  4 active torsions:
REMARK  status: ('A' for Active; 'I' for Inactive)
REMARK    1  A    between atoms: C_2  and  C_4
REMARK    2  A    between atoms: N_8  and  C_9
REMARK    3  A    between atoms: C_9  and  C_10
REMARK    4  A    between atoms: C_12  and  C_13
REMARK                            x       y       z     vdW  Elec       q    Type
REMARK                         _______ _______ _______ _____ _____    ______ ____
ROOT
ATOM      1  C   UNL     1      43.873   5.004  11.491  0.00  0.00    +0.000 C 
ATOM      2  C   UNL     1      42.646   5.173  12.383  0.00  0.00    +0.000 C 
ATOM      3  C   UNL     1      42.811   6.044  11.181  0.00  0.00    +0.000 C 
ENDROOT
BRANCH   1   8
ATOM      4  C   UNL     1      46.388   2.764   7.617  0.00  0.00    +0.000 A 
ATOM      5  C   UNL     1      46.014   1.862   8.583  0.00  0.00    +0.000 A 
ATOM      6  N   UNL     1      45.260   2.187   9.653  0.00  0.00    +0.000 NA
ATOM      7  C   UNL     1      44.888   3.473   9.777  0.00  0.00    +0.000 A 
ATOM      8  N   UNL     1      43.963   3.718  10.785  0.00  0.00    +0.000 N 
ATOM      9  N   UNL     1      45.288   4.444   8.938  0.00  0.00    +0.000 NA
ATOM     10  C   UNL     1      46.030   4.067   7.866  0.00  0.00    +0.000 A 
ATOM     11  H   UNL     1      43.928   2.885  11.363  0.00  0.00    +0.000 HD
BRANCH   4  13
ATOM     12  N   UNL     1      47.025   3.242   5.327  0.00  0.00    +0.000 N 
ATOM     13  C   UNL     1      47.101   2.383   6.387  0.00  0.00    +0.000 C 
ATOM     14  O   UNL     1      47.778   1.363   6.344  0.00  0.00    +0.000 OA
ATOM     15  H   UNL     1      47.625   3.032   4.535  0.00  0.00    +0.000 HD
ATOM     16  H   UNL     1      46.700   4.198   5.409  0.00  0.00    +0.000 HD
ENDBRANCH   4  13
ENDBRANCH   1   8
BRANCH   1  17
ATOM     17  C   UNL     1      45.205   5.521  12.040  0.00  0.00    +0.000 A 
ATOM     18  C   UNL     1      45.681   5.065  13.272  0.00  0.00    +0.000 A 
ATOM     19  C   UNL     1      46.977   5.374  13.708  0.00  0.00    +0.000 A 
ATOM     20  C   UNL     1      47.734   6.205  12.875  0.00  0.00    +0.000 A 
ATOM     21  C   UNL     1      47.177   6.686  11.702  0.00  0.00    +0.000 A 
ATOM     22  N   UNL     1      45.941   6.369  11.276  0.00  0.00    +0.000 NA
BRANCH  19  23
ATOM     23  C   UNL     1      47.529   4.809  14.963  0.00  0.00    +0.000 A 
ATOM     24  C   UNL     1      48.171   5.627  15.918  0.00  0.00    +0.000 A 
ATOM     25  C   UNL     1      48.671   5.102  17.114  0.00  0.00    +0.000 A 
ATOM     26  C   UNL     1      48.526   3.751  17.380  0.00  0.00    +0.000 A 
ATOM     27  F   UNL     1      48.990   3.249  18.531  0.00  0.00    +0.000 F 
ATOM     28  C   UNL     1      47.902   2.913  16.469  0.00  0.00    +0.000 A 
ATOM     29  C   UNL     1      47.417   3.437  15.267  0.00  0.00    +0.000 A 
ENDBRANCH  19  23
ENDBRANCH   1  17
TORSDOF 4
ENDMDL
MODEL 3
REMARK VINA RESULT:    -7.735      3.663      6.740
REMARK INTER + INTRA:         -10.151
REMARK INTER:                  -9.611
REMARK INTRA:                  -0.540
REMARK UNBOUND:                -0.607
REMARK  Name = 
REMARK  4 active torsions:
REMARK  status: ('A' for Active; 'I' for Inactive)
REMARK    1  A    between atoms: C_2  and  C_4
REMARK    2  A    between atoms: N_8  and  C_9
REMARK    3  A    between atoms: C_9  and  C_10
REMARK    4  A    between atoms: C_12  and  C_13
REMARK                            x       y       z     vdW  Elec       q    Type
REMARK                         _______ _______ _______ _____ _____    ______ ____
ROOT
ATOM      1  C   UNL     1      43.677   5.489  11.643  0.00  0.00    +0.000 C 
ATOM      2  C   UNL     1      42.276   6.087  11.725  0.00  0.00    +0.000 C 
ATOM      3  C   UNL     1      42.897   5.493  12.946  0.00  0.00    +0.000 C 
ENDROOT
BRANCH   1   8
ATOM      4  C   UNL     1      48.376   6.797  13.242  0.00  0.00    +0.000 A 
ATOM      5  C   UNL     1      48.189   7.065  11.908  0.00  0.00    +0.000 A 
ATOM      6  N   UNL     1      47.010   6.900  11.274  0.00  0.00    +0.000 NA
ATOM      7  C   UNL     1      45.983   6.420  11.997  0.00  0.00    +0.000 A 
ATOM      8  N   UNL     1      44.753   6.447  11.351  0.00  0.00    +0.000 N 
ATOM      9  N   UNL     1      46.097   6.036  13.280  0.00  0.00    +0.000 NA
ATOM     10  C   UNL     1      47.296   6.238  13.881  0.00  0.00    +0.000 A 
ATOM     11  H   UNL     1      44.937   6.630  10.371  0.00  0.00    +0.000 HD
BRANCH   4  13
ATOM     12  N   UNL     1      50.553   7.864  13.310  0.00  0.00    +0.000 N 
ATOM     13  C   UNL     1      49.625   7.098  13.960  0.00  0.00    +0.000 C 
ATOM     14  O   UNL     1      49.792   6.723  15.113  0.00  0.00    +0.000 OA
ATOM     15  H   UNL     1      51.347   8.172  13.862  0.00  0.00    +0.000 HD
ATOM     16  H   UNL     1      50.345   8.400  12.476  0.00  0.00    +0.000 HD
ENDBRANCH   4  13
ENDBRANCH   1   8
BRANCH   1  17
ATOM     17  C   UNL     1      43.815   4.142  10.926  0.00  0.00    +0.000 A 
ATOM     18  C   UNL     1      44.610   4.036   9.782  0.00  0.00    +0.000 A 
ATOM     19  C   UNL     1      44.905   2.785   9.219  0.00  0.00    +0.000 A 
ATOM     20  C   UNL     1      44.315   1.672   9.827  0.00  0.00    +0.000 A 
ATOM     21  C   UNL     1      43.475   1.852  10.913  0.00  0.00    +0.000 A 
ATOM     22  N   UNL     1      43.213   3.052  11.465  0.00  0.00    +0.000 NA
BRANCH  19  23
ATOM     23  C   UNL     1      45.832   2.651   8.069  0.00  0.00    +0.000 A 
ATOM     24  C   UNL     1      46.594   1.480   7.872  0.00  0.00    +0.000 A 
ATOM     25  C   UNL     1      47.451   1.340   6.776  0.00  0.00    +0.000 A 
ATOM     26  C   UNL     1      47.549   2.366   5.850  0.00  0.00    +0.000 A 
ATOM     27  F   UNL     1      48.356   2.227   4.791  0.00  0.00    +0.000 F 
ATOM     28  C   UNL     1      46.817   3.533   6.006  0.00  0.00    +0.000 A 
ATOM     29  C   UNL     1      45.973   3.676   7.112  0.00  0.00    +0.000 A 
ENDBRANCH  19  23
ENDBRANCH   1  17
TORSDOF 4
ENDMDL
MODEL 4
REMARK VINA RESULT:    -7.304      4.445      7.711
REMARK INTER + INTRA:          -9.619
REMARK INTER:                  -9.851
REMARK INTRA:                   0.232
REMARK UNBOUND:                -0.607
REMARK  Name = 
REMARK  4 active torsions:
REMARK  status: ('A' for Active; 'I' for Inactive)
REMARK    1  A    between atoms: C_2  and  C_4
REMARK    2  A    between atoms: N_8  and  C_9
REMARK    3  A    between atoms: C_9  and  C_10
REMARK    4  A    between atoms: C_12  and  C_13
REMARK                            x       y       z     vdW  Elec       q    Type
REMARK                         _______ _______ _______ _____ _____    ______ ____
ROOT
ATOM      1  C   UNL     1      48.631   7.970  12.850  0.00  0.00    +0.000 C 
ATOM      2  C   UNL     1      49.787   7.278  12.133  0.00  0.00    +0.000 C 
ATOM      3  C   UNL     1      49.649   8.763  12.049  0.00  0.00    +0.000 C 
ENDROOT
BRANCH   1   8
ATOM      4  C   UNL     1      47.910   4.586  16.642  0.00  0.00    +0.000 A 
ATOM      5  C   UNL     1      48.804   5.570  16.988  0.00  0.00    +0.000 A 
ATOM      6  N   UNL     1      49.089   6.628  16.200  0.00  0.00    +0.000 NA
ATOM      7  C   UNL     1      48.477   6.688  15.005  0.00  0.00    +0.000 A 
ATOM      8  N   UNL     1      48.658   7.881  14.316  0.00  0.00    +0.000 N 
ATOM      9  N   UNL     1      47.665   5.723  14.539  0.00  0.00    +0.000 NA
ATOM     10  C   UNL     1      47.392   4.689  15.373  0.00  0.00    +0.000 A 
ATOM     11  H   UNL     1      49.408   8.381  14.782  0.00  0.00    +0.000 HD
BRANCH   4  13
ATOM     12  N   UNL     1      48.321   3.245  18.621  0.00  0.00    +0.000 N 
ATOM     13  C   UNL     1      47.505   3.505  17.555  0.00  0.00    +0.000 C 
ATOM     14  O   UNL     1      46.449   2.907  17.389  0.00  0.00    +0.000 OA
ATOM     15  H   UNL     1      47.964   2.591  19.309  0.00  0.00    +0.000 HD
ATOM     16  H   UNL     1      49.048   3.879  18.930  0.00  0.00    +0.000 HD
ENDBRANCH   4  13
ENDBRANCH   1   8
BRANCH   1  17
ATOM     17  C   UNL     1      47.239   7.813  12.230  0.00  0.00    +0.000 A 
ATOM     18  C   UNL     1      46.906   6.643  11.542  0.00  0.00    +0.000 A 
ATOM     19  C   UNL     1      45.588   6.395  11.131  0.00  0.00    +0.000 A 
ATOM     20  C   UNL     1      44.652   7.400  11.396  0.00  0.00    +0.000 A 
ATOM     21  C   UNL     1      45.061   8.569  12.014  0.00  0.00    +0.000 A 
ATOM     22  N   UNL     1      46.323   8.795  12.427  0.00  0.00    +0.000 NA
BRANCH  19  23
ATOM     23  C   UNL     1      45.202   5.112  10.494  0.00  0.00    +0.000 A 
ATOM     24  C   UNL     1      45.558   4.817   9.160  0.00  0.00    +0.000 A 
ATOM     25  C   UNL     1      45.218   3.599   8.564  0.00  0.00    +0.000 A 
ATOM     26  C   UNL     1      44.525   2.650   9.297  0.00  0.00    +0.000 A 
ATOM     27  F   UNL     1      44.212   1.476   8.734  0.00  0.00    +0.000 F 
ATOM     28  C   UNL     1      44.157   2.900  10.610  0.00  0.00    +0.000 A 
ATOM     29  C   UNL     1      44.485   4.125  11.199  0.00  0.00    +0.000 A 
ENDBRANCH  19  23
ENDBRANCH   1  17
TORSDOF 4
ENDMDL
MODEL 5
REMARK VINA RESULT:    -7.085      5.723      8.485
REMARK INTER + INTRA:          -9.349
REMARK INTER:                  -8.745
REMARK INTRA:                  -0.604
REMARK UNBOUND:                -0.607
REMARK  Name = 
REMARK  4 active torsions:
REMARK  status: ('A' for Active; 'I' for Inactive)
REMARK    1  A    between atoms: C_2  and  C_4
REMARK    2  A    between atoms: N_8  and  C_9
REMARK    3  A    between atoms: C_9  and  C_10
REMARK    4  A    between atoms: C_12  and  C_13
REMARK                            x       y       z     vdW  Elec       q    Type
REMARK                         _______ _______ _______ _____ _____    ______ ____
ROOT
ATOM      1  C   UNL     1      48.283   4.736  17.365  0.00  0.00    +0.000 C 
ATOM      2  C   UNL     1      47.094   5.134  18.235  0.00  0.00    +0.000 C 
ATOM      3  C   UNL     1      47.117   3.789  17.588  0.00  0.00    +0.000 C 
ENDROOT
BRANCH   1   8
ATOM      4  C   UNL     1      52.375   1.650  17.655  0.00  0.00    +0.000 A 
ATOM      5  C   UNL     1      52.687   2.954  17.952  0.00  0.00    +0.000 A 
ATOM      6  N   UNL     1      51.768   3.939  18.038  0.00  0.00    +0.000 NA
ATOM      7  C   UNL     1      50.489   3.611  17.789  0.00  0.00    +0.000 A 
ATOM      8  N   UNL     1      49.565   4.609  18.073  0.00  0.00    +0.000 N 
ATOM      9  N   UNL     1      50.102   2.386  17.394  0.00  0.00    +0.000 NA
ATOM     10  C   UNL     1      51.057   1.424  17.340  0.00  0.00    +0.000 A 
ATOM     11  H   UNL     1      50.089   5.467  18.209  0.00  0.00    +0.000 HD
BRANCH   4  13
ATOM     12  N   UNL     1      53.039  -0.552  18.424  0.00  0.00    +0.000 N 
ATOM     13  C   UNL     1      53.358   0.556  17.688  0.00  0.00    +0.000 C 
ATOM     14  O   UNL     1      54.391   0.621  17.034  0.00  0.00    +0.000 OA
ATOM     15  H   UNL     1      53.664  -1.347  18.331  0.00  0.00    +0.000 HD
ATOM     16  H   UNL     1      52.103  -0.746  18.756  0.00  0.00    +0.000 HD
ENDBRANCH   4  13
ENDBRANCH   1   8
BRANCH   1  17
ATOM     17  C   UNL     1      48.383   5.394  15.985  0.00  0.00    +0.000 A 
ATOM     18  C   UNL     1      47.518   5.004  14.959  0.00  0.00    +0.000 A 
ATOM     19  C   UNL     1      47.459   5.715  13.752  0.00  0.00    +0.000 A 
ATOM     20  C   UNL     1      48.349   6.787  13.616  0.00  0.00    +0.000 A 
ATOM     21  C   UNL     1      49.234   7.075  14.640  0.00  0.00    +0.000 A 
ATOM     22  N   UNL     1      49.271   6.404  15.807  0.00  0.00    +0.000 NA
BRANCH  19  23
ATOM     23  C   UNL     1      46.473   5.376  12.698  0.00  0.00    +0.000 A 
ATOM     24  C   UNL     1      46.296   6.197  11.564  0.00  0.00    +0.000 A 
ATOM     25  C   UNL     1      45.384   5.868  10.557  0.00  0.00    +0.000 A 
ATOM     26  C   UNL     1      44.643   4.702  10.661  0.00  0.00    +0.000 A 
ATOM     27  F   UNL     1      43.781   4.376   9.689  0.00  0.00    +0.000 F 
ATOM     28  C   UNL     1      44.786   3.868  11.758  0.00  0.00    +0.000 A 
ATOM     29  C   UNL     1      45.688   4.207  12.772  0.00  0.00    +0.000 A 
ENDBRANCH  19  23
ENDBRANCH   1  17
TORSDOF 4
ENDMDL
MODEL 6
REMARK VINA RESULT:    -6.931      3.923      7.074
REMARK INTER + INTRA:          -9.158
REMARK INTER:                  -8.782
REMARK INTRA:                  -0.376
REMARK UNBOUND:                -0.607
REMARK  Name = 
REMARK  4 active torsions:
REMARK  status: ('A' for Active; 'I' for Inactive)
REMARK    1  A    between atoms: C_2  and  C_4
REMARK    2  A    between atoms: N_8  and  C_9
REMARK    3  A    between atoms: C_9  and  C_10
REMARK    4  A    between atoms: C_12  and  C_13
REMARK                            x       y       z     vdW  Elec       q    Type
REMARK                         _______ _______ _______ _____ _____    ______ ____
ROOT
ATOM      1  C   UNL     1      46.002   4.971  13.453  0.00  0.00    +0.000 C 
ATOM      2  C   UNL     1      46.299   4.229  14.752  0.00  0.00    +0.000 C 
ATOM      3  C   UNL     1      47.390   4.431  13.754  0.00  0.00    +0.000 C 
ENDROOT
BRANCH   1   8
ATOM      4  C   UNL     1      47.440   9.632  11.854  0.00  0.00    +0.000 A 
ATOM      5  C   UNL     1      46.100   9.574  12.144  0.00  0.00    +0.000 A 
ATOM      6  N   UNL     1      45.498   8.488  12.672  0.00  0.00    +0.000 NA
ATOM      7  C   UNL     1      46.264   7.406  12.892  0.00  0.00    +0.000 A 
ATOM      8  N   UNL     1      45.643   6.388  13.606  0.00  0.00    +0.000 N 
ATOM      9  N   UNL     1      47.561   7.334  12.549  0.00  0.00    +0.000 NA
ATOM     10  C   UNL     1      48.128   8.457  12.039  0.00  0.00    +0.000 A 
ATOM     11  H   UNL     1      44.652   6.600  13.622  0.00  0.00    +0.000 HD
BRANCH   4  13
ATOM     12  N   UNL     1      47.573  11.515  10.332  0.00  0.00    +0.000 N 
ATOM     13  C   UNL     1      48.117  10.857  11.400  0.00  0.00    +0.000 C 
ATOM     14  O   UNL     1      49.094  11.292  11.996  0.00  0.00    +0.000 OA
ATOM     15  H   UNL     1      47.971  12.423  10.114  0.00  0.00    +0.000 HD
ATOM     16  H   UNL     1      46.638  11.334   9.987  0.00  0.00    +0.000 HD
ENDBRANCH   4  13
ENDBRANCH   1   8
BRANCH   1  17
ATOM     17  C   UNL     1      45.186   4.220  12.397  0.00  0.00    +0.000 A 
ATOM     18  C   UNL     1      45.699   4.042  11.109  0.00  0.00    +0.000 A 
ATOM     19  C   UNL     1      45.062   3.202  10.185  0.00  0.00    +0.000 A 
ATOM     20  C   UNL     1      43.866   2.608  10.603  0.00  0.00    +0.000 A 
ATOM     21  C   UNL     1      43.370   2.885  11.866  0.00  0.00    +0.000 A 
ATOM     22  N   UNL     1      43.997   3.674  12.758  0.00  0.00    +0.000 NA
BRANCH  19  23
ATOM     23  C   UNL     1      45.652   2.923   8.853  0.00  0.00    +0.000 A 
ATOM     24  C   UNL     1      45.883   3.956   7.920  0.00  0.00    +0.000 A 
ATOM     25  C   UNL     1      46.463   3.700   6.674  0.00  0.00    +0.000 A 
ATOM     26  C   UNL     1      46.833   2.406   6.345  0.00  0.00    +0.000 A 
ATOM     27  F   UNL     1      47.402   2.161   5.158  0.00  0.00    +0.000 F 
ATOM     28  C   UNL     1      46.623   1.363   7.233  0.00  0.00    +0.000 A 
ATOM     29  C   UNL     1      46.030   1.619   8.473  0.00  0.00    +0.000 A 
ENDBRANCH  19  23
ENDBRANCH   1  17
TORSDOF 4
ENDMDL
MODEL 7
REMARK VINA RESULT:    -6.853      4.975      8.421
REMARK INTER + INTRA:          -9.063
REMARK INTER:                  -8.415
REMARK INTRA:                  -0.648
REMARK UNBOUND:                -0.607
REMARK  Name = 
REMARK  4 active torsions:
REMARK  status: ('A' for Active; 'I' for Inactive)
REMARK    1  A    between atoms: C_2  and  C_4
REMARK    2  A    between atoms: N_8  and  C_9
REMARK    3  A    between atoms: C_9  and  C_10
REMARK    4  A    between atoms: C_12  and  C_13
REMARK                            x       y       z     vdW  Elec       q    Type
REMARK                         _______ _______ _______ _____ _____    ______ ____
ROOT
ATOM      1  C   UNL     1      48.951   7.991  12.553  0.00  0.00    +0.000 C 
ATOM      2  C   UNL     1      49.954   8.320  11.451  0.00  0.00    +0.000 C 
ATOM      3  C   UNL     1      49.542   9.384  12.414  0.00  0.00    +0.000 C 
ENDROOT
BRANCH   1   8
ATOM      4  C   UNL     1      48.681   7.045  17.591  0.00  0.00    +0.000 A 
ATOM      5  C   UNL     1      48.825   5.896  16.854  0.00  0.00    +0.000 A 
ATOM      6  N   UNL     1      49.015   5.886  15.518  0.00  0.00    +0.000 NA
ATOM      7  C   UNL     1      49.031   7.073  14.889  0.00  0.00    +0.000 A 
ATOM      8  N   UNL     1      49.414   7.021  13.555  0.00  0.00    +0.000 N 
ATOM      9  N   UNL     1      48.799   8.243  15.510  0.00  0.00    +0.000 NA
ATOM     10  C   UNL     1      48.633   8.206  16.856  0.00  0.00    +0.000 A 
ATOM     11  H   UNL     1      49.392   6.046  13.278  0.00  0.00    +0.000 HD
BRANCH   4  13
ATOM     12  N   UNL     1      47.470   6.555  19.634  0.00  0.00    +0.000 N 
ATOM     13  C   UNL     1      48.604   7.060  19.060  0.00  0.00    +0.000 C 
ATOM     14  O   UNL     1      49.546   7.457  19.734  0.00  0.00    +0.000 OA
ATOM     15  H   UNL     1      47.486   6.451  20.643  0.00  0.00    +0.000 HD
ATOM     16  H   UNL     1      46.798   5.990  19.129  0.00  0.00    +0.000 HD
ENDBRANCH   4  13
ENDBRANCH   1   8
BRANCH   1  17
ATOM     17  C   UNL     1      47.489   7.818  12.129  0.00  0.00    +0.000 A 
ATOM     18  C   UNL     1      47.092   6.671  11.438  0.00  0.00    +0.000 A 
ATOM     19  C   UNL     1      45.735   6.398  11.206  0.00  0.00    +0.000 A 
ATOM     20  C   UNL     1      44.821   7.360  11.650  0.00  0.00    +0.000 A 
ATOM     21  C   UNL     1      45.285   8.512  12.261  0.00  0.00    +0.000 A 
ATOM     22  N   UNL     1      46.586   8.759  12.502  0.00  0.00    +0.000 NA
BRANCH  19  23
ATOM     23  C   UNL     1      45.296   5.134  10.567  0.00  0.00    +0.000 A 
ATOM     24  C   UNL     1      45.562   4.866   9.207  0.00  0.00    +0.000 A 
ATOM     25  C   UNL     1      45.171   3.665   8.608  0.00  0.00    +0.000 A 
ATOM     26  C   UNL     1      44.516   2.706   9.363  0.00  0.00    +0.000 A 
ATOM     27  F   UNL     1      44.155   1.548   8.796  0.00  0.00    +0.000 F 
ATOM     28  C   UNL     1      44.235   2.930  10.702  0.00  0.00    +0.000 A 
ATOM     29  C   UNL     1      44.614   4.138  11.295  0.00  0.00    +0.000 A 
ENDBRANCH  19  23
ENDBRANCH   1  17
TORSDOF 4
ENDMDL
MODEL 8
REMARK VINA RESULT:    -6.714      4.383      7.955
REMARK INTER + INTRA:          -8.891
REMARK INTER:                 -10.259
REMARK INTRA:                   1.368
REMARK UNBOUND:                -0.607
REMARK  Name = 
REMARK  4 active torsions:
REMARK  status: ('A' for Active; 'I' for Inactive)
REMARK    1  A    between atoms: C_2  and  C_4
REMARK    2  A    between atoms: N_8  and  C_9
REMARK    3  A    between atoms: C_9  and  C_10
REMARK    4  A    between atoms: C_12  and  C_13
REMARK                            x       y       z     vdW  Elec       q    Type
REMARK                         _______ _______ _______ _____ _____    ______ ____
ROOT
ATOM      1  C   UNL     1      45.814   4.805  13.092  0.00  0.00    +0.000 C 
ATOM      2  C   UNL     1      46.766   5.911  12.648  0.00  0.00    +0.000 C 
ATOM      3  C   UNL     1      45.442   6.271  13.237  0.00  0.00    +0.000 C 
ENDROOT
BRANCH   1   8
ATOM      4  C   UNL     1      48.758   5.118  17.285  0.00  0.00    +0.000 A 
ATOM      5  C   UNL     1      47.753   4.192  17.425  0.00  0.00    +0.000 A 
ATOM      6  N   UNL     1      46.906   3.857  16.429  0.00  0.00    +0.000 NA
ATOM      7  C   UNL     1      47.051   4.495  15.255  0.00  0.00    +0.000 A 
ATOM      8  N   UNL     1      46.285   3.983  14.215  0.00  0.00    +0.000 N 
ATOM      9  N   UNL     1      47.939   5.484  15.055  0.00  0.00    +0.000 NA
ATOM     10  C   UNL     1      48.782   5.774  16.078  0.00  0.00    +0.000 A 
ATOM     11  H   UNL     1      45.603   3.357  14.630  0.00  0.00    +0.000 HD
BRANCH   4  13
ATOM     12  N   UNL     1      49.603   4.750  19.528  0.00  0.00    +0.000 N 
ATOM     13  C   UNL     1      49.759   5.388  18.329  0.00  0.00    +0.000 C 
ATOM     14  O   UNL     1      50.721   6.112  18.104  0.00  0.00    +0.000 OA
ATOM     15  H   UNL     1      50.368   4.843  20.189  0.00  0.00    +0.000 HD
ATOM     16  H   UNL     1      48.982   3.960  19.659  0.00  0.00    +0.000 HD
ENDBRANCH   4  13
ENDBRANCH   1   8
BRANCH   1  17
ATOM     17  C   UNL     1      45.101   4.020  11.986  0.00  0.00    +0.000 A 
ATOM     18  C   UNL     1      45.711   3.854  10.740  0.00  0.00    +0.000 A 
ATOM     19  C   UNL     1      45.172   2.986   9.779  0.00  0.00    +0.000 A 
ATOM     20  C   UNL     1      43.971   2.352  10.116  0.00  0.00    +0.000 A 
ATOM     21  C   UNL     1      43.377   2.618  11.338  0.00  0.00    +0.000 A 
ATOM     22  N   UNL     1      43.910   3.433  12.267  0.00  0.00    +0.000 NA
BRANCH  19  23
ATOM     23  C   UNL     1      45.865   2.722   8.495  0.00  0.00    +0.000 A 
ATOM     24  C   UNL     1      46.101   3.752   7.560  0.00  0.00    +0.000 A 
ATOM     25  C   UNL     1      46.776   3.511   6.360  0.00  0.00    +0.000 A 
ATOM     26  C   UNL     1      47.238   2.236   6.081  0.00  0.00    +0.000 A 
ATOM     27  F   UNL     1      47.900   2.006   4.939  0.00  0.00    +0.000 F 
ATOM     28  C   UNL     1      47.028   1.195   6.972  0.00  0.00    +0.000 A 
ATOM     29  C   UNL     1      46.339   1.436   8.165  0.00  0.00    +0.000 A 
ENDBRANCH  19  23
ENDBRANCH   1  17
TORSDOF 4
ENDMDL
MODEL 9
REMARK VINA RESULT:    -6.607      4.521      7.922
REMARK INTER + INTRA:          -8.759
REMARK INTER:                  -8.898
REMARK INTRA:                   0.139
REMARK UNBOUND:                -0.607
REMARK  Name = 
REMARK  4 active torsions:
REMARK  status: ('A' for Active; 'I' for Inactive)
REMARK    1  A    between atoms: C_2  and  C_4
REMARK    2  A    between atoms: N_8  and  C_9
REMARK    3  A    between atoms: C_9  and  C_10
REMARK    4  A    between atoms: C_12  and  C_13
REMARK                            x       y       z     vdW  Elec       q    Type
REMARK                         _______ _______ _______ _____ _____    ______ ____
ROOT
ATOM      1  C   UNL     1      45.972   7.769  12.153  0.00  0.00    +0.000 C 
ATOM      2  C   UNL     1      45.856   9.167  11.552  0.00  0.00    +0.000 C 
ATOM      3  C   UNL     1      45.263   8.890  12.894  0.00  0.00    +0.000 C 
ENDROOT
BRANCH   1   8
ATOM      4  C   UNL     1      49.446   8.045  15.922  0.00  0.00    +0.000 A 
ATOM      5  C   UNL     1      49.586   6.905  15.170  0.00  0.00    +0.000 A 
ATOM      6  N   UNL     1      48.856   6.647  14.065  0.00  0.00    +0.000 NA
ATOM      7  C   UNL     1      47.928   7.554  13.715  0.00  0.00    +0.000 A 
ATOM      8  N   UNL     1      47.339   7.335  12.475  0.00  0.00    +0.000 N 
ATOM      9  N   UNL     1      47.651   8.649  14.443  0.00  0.00    +0.000 NA
ATOM     10  C   UNL     1      48.423   8.876  15.535  0.00  0.00    +0.000 A 
ATOM     11  H   UNL     1      47.590   6.395  12.190  0.00  0.00    +0.000 HD
BRANCH   4  13
ATOM     12  N   UNL     1      50.806   7.349  17.806  0.00  0.00    +0.000 N 
ATOM     13  C   UNL     1      50.329   8.384  17.050  0.00  0.00    +0.000 C 
ATOM     14  O   UNL     1      50.663   9.543  17.259  0.00  0.00    +0.000 OA
ATOM     15  H   UNL     1      51.513   7.585  18.494  0.00  0.00    +0.000 HD
ATOM     16  H   UNL     1      50.764   6.381  17.510  0.00  0.00    +0.000 HD
ENDBRANCH   4  13
ENDBRANCH   1   8
BRANCH   1  17
ATOM     17  C   UNL     1      45.086   6.678  11.545  0.00  0.00    +0.000 A 
ATOM     18  C   UNL     1      45.584   5.857  10.530  0.00  0.00    +0.000 A 
ATOM     19  C   UNL     1      44.867   4.735  10.089  0.00  0.00    +0.000 A 
ATOM     20  C   UNL     1      43.615   4.524  10.677  0.00  0.00    +0.000 A 
ATOM     21  C   UNL     1      43.145   5.418  11.624  0.00  0.00    +0.000 A 
ATOM     22  N   UNL     1      43.846   6.481  12.061  0.00  0.00    +0.000 NA
BRANCH  19  23
ATOM     23  C   UNL     1      45.431   3.797   9.088  0.00  0.00    +0.000 A 
ATOM     24  C   UNL     1      46.123   4.265   7.950  0.00  0.00    +0.000 A 
ATOM     25  C   UNL     1      46.678   3.384   7.017  0.00  0.00    +0.000 A 
ATOM     26  C   UNL     1      46.558   2.017   7.213  0.00  0.00    +0.000 A 
ATOM     27  F   UNL     1      47.103   1.172   6.329  0.00  0.00    +0.000 F 
ATOM     28  C   UNL     1      45.886   1.517   8.317  0.00  0.00    +0.000 A 
ATOM     29  C   UNL     1      45.319   2.400   9.241  0.00  0.00    +0.000 A 
ENDBRANCH  19  23
ENDBRANCH   1  17
TORSDOF 4
ENDMDL
