MODEL 1
REMARK VINA RESULT:    -9.445      0.000      0.000
REMARK INTER + INTRA:         -13.574
REMARK INTER:                 -12.758
REMARK INTRA:                  -0.815
REMARK UNBOUND:                -0.815
REMARK  Name = 
REMARK  6 active torsions:
REMARK  status: ('A' for Active; 'I' for Inactive)
REMARK    1  A    between atoms: C_2  and  C_4
REMARK    2  A    between atoms: N_8  and  C_9
REMARK    3  A    between atoms: C_9  and  C_10
REMARK    4  A    between atoms: C_10  and  C_13
REMARK    5  A    between atoms: C_17  and  O_18
REMARK    6  A    between atoms: O_18  and  C_19
REMARK                            x       y       z     vdW  Elec       q    Type
REMARK                         _______ _______ _______ _____ _____    ______ ____
ROOT
ATOM      1  C   UNL     1      43.314   4.556  10.977  0.00  0.00    +0.000 C 
ENDROOT
BRANCH   1   6
ATOM      2  C   UNL     1      46.329   2.099   7.870  0.00  0.00    +0.000 A 
ATOM      3  C   UNL     1      46.365   3.411   7.405  0.00  0.00    +0.000 A 
ATOM      4  C   UNL     1      45.619   4.388   8.070  0.00  0.00    +0.000 A 
ATOM      5  C   UNL     1      44.844   4.037   9.176  0.00  0.00    +0.000 A 
ATOM      6  N   UNL     1      44.167   5.049   9.869  0.00  0.00    +0.000 N 
ATOM      7  N   UNL     1      44.798   2.766   9.623  0.00  0.00    +0.000 NA
ATOM      8  C   UNL     1      45.521   1.827   8.962  0.00  0.00    +0.000 A 
ATOM      9  H   UNL     1      43.645   5.640   9.226  0.00  0.00    +0.000 HD
BRANCH   2  11
ATOM     10  N   UNL     1      46.780  -0.278   7.648  0.00  0.00    +0.000 N 
ATOM     11  C   UNL     1      47.099   0.994   7.261  0.00  0.00    +0.000 C 
ATOM     12  O   UNL     1      47.955   1.203   6.412  0.00  0.00    +0.000 OA
ATOM     13  H   UNL     1      47.228  -1.025   7.130  0.00  0.00    +0.000 HD
ATOM     14  H   UNL     1      45.921  -0.502   8.132  0.00  0.00    +0.000 HD
ENDBRANCH   2  11
ENDBRANCH   1   6
BRANCH   1  15
ATOM     15  C   UNL     1      43.371   5.464  12.231  0.00  0.00    +0.000 C 
ATOM     16  F   UNL     1      42.826   6.681  11.923  0.00  0.00    +0.000 F 
ATOM     17  F   UNL     1      42.530   4.930  13.173  0.00  0.00    +0.000 F 
BRANCH  15  18
ATOM     18  C   UNL     1      44.793   5.601  12.746  0.00  0.00    +0.000 A 
ATOM     19  C   UNL     1      45.499   6.799  12.553  0.00  0.00    +0.000 A 
ATOM     20  C   UNL     1      46.810   6.930  13.013  0.00  0.00    +0.000 A 
ATOM     21  C   UNL     1      47.433   5.868  13.670  0.00  0.00    +0.000 A 
ATOM     22  C   UNL     1      46.747   4.672  13.868  0.00  0.00    +0.000 A 
ATOM     23  C   UNL     1      45.430   4.541  13.414  0.00  0.00    +0.000 A 
BRANCH  22  24
ATOM     24  O   UNL     1      47.268   3.597  14.546  0.00  0.00    +0.000 OA
BRANCH  24  25
ATOM     25  C   UNL     1      47.609   3.776  15.937  0.00  0.00    +0.000 C 
ATOM     26  C   UNL     1      48.421   2.634  16.569  0.00  0.00    +0.000 C 
ATOM     27  C   UNL     1      47.445   2.786  17.730  0.00  0.00    +0.000 C 
ATOM     28  O   UNL     1      46.525   3.521  16.885  0.00  0.00    +0.000 OA
ENDBRANCH  24  25
ENDBRANCH  22  24
ENDBRANCH  15  18
ENDBRANCH   1  15
TORSDOF 6
ENDMDL
MODEL 2
REMARK VINA RESULT:    -9.137      1.358      1.712
REMARK INTER + INTRA:         -13.157
REMARK INTER:                 -12.216
REMARK INTRA:                  -0.941
REMARK UNBOUND:                -0.815
REMARK  Name = 
REMARK  6 active torsions:
REMARK  status: ('A' for Active; 'I' for Inactive)
REMARK    1  A    between atoms: C_2  and  C_4
REMARK    2  A    between atoms: N_8  and  C_9
REMARK    3  A    between atoms: C_9  and  C_10
REMARK    4  A    between atoms: C_10  and  C_13
REMARK    5  A    between atoms: C_17  and  O_18
REMARK    6  A    between atoms: O_18  and  C_19
REMARK                            x       y       z     vdW  Elec       q    Type
REMARK                         _______ _______ _______ _____ _____    ______ ____
ROOT
ATOM      1  C   UNL     1      43.402   4.425  10.909  0.00  0.00    +0.000 C 
ENDROOT
BRANCH   1   6
ATOM      2  C   UNL     1      46.446   2.767   7.336  0.00  0.00    +0.000 A 
ATOM      3  C   UNL     1      46.058   1.612   8.009  0.00  0.00    +0.000 A 
ATOM      4  C   UNL     1      45.177   1.718   9.089  0.00  0.00    +0.000 A 
ATOM      5  C   UNL     1      44.710   2.972   9.483  0.00  0.00    +0.000 A 
ATOM      6  N   UNL     1      43.769   3.043  10.520  0.00  0.00    +0.000 N 
ATOM      7  N   UNL     1      45.092   4.095   8.842  0.00  0.00    +0.000 NA
ATOM      8  C   UNL     1      45.955   3.976   7.801  0.00  0.00    +0.000 A 
ATOM      9  H   UNL     1      44.072   2.493  11.320  0.00  0.00    +0.000 HD
BRANCH   2  11
ATOM     10  N   UNL     1      48.671   2.503   6.396  0.00  0.00    +0.000 N 
ATOM     11  C   UNL     1      47.350   2.769   6.167  0.00  0.00    +0.000 C 
ATOM     12  O   UNL     1      46.928   2.955   5.033  0.00  0.00    +0.000 OA
ATOM     13  H   UNL     1      49.249   2.384   5.573  0.00  0.00    +0.000 HD
ATOM     14  H   UNL     1      49.003   2.091   7.257  0.00  0.00    +0.000 HD
ENDBRANCH   2  11
ENDBRANCH   1   6
BRANCH   1  15
ATOM     15  C   UNL     1      43.698   4.730  12.399  0.00  0.00    +0.000 C 
ATOM     16  F   UNL     1      42.733   5.573  12.879  0.00  0.00    +0.000 F 
ATOM     17  F   UNL     1      43.532   3.566  13.104  0.00  0.00    +0.000 F 
BRANCH  15  18
ATOM     18  C   UNL     1      45.089   5.313  12.574  0.00  0.00    +0.000 A 
ATOM     19  C   UNL     1      45.591   6.231  11.640  0.00  0.00    +0.000 A 
ATOM     20  C   UNL     1      46.873   6.763  11.788  0.00  0.00    +0.000 A 
ATOM     21  C   UNL     1      47.669   6.384  12.869  0.00  0.00    +0.000 A 
ATOM     22  C   UNL     1      47.187   5.472  13.805  0.00  0.00    +0.000 A 
ATOM     23  C   UNL     1      45.899   4.944  13.662  0.00  0.00    +0.000 A 
BRANCH  22  24
ATOM     24  O   UNL     1      47.885   5.085  14.923  0.00  0.00    +0.000 OA
BRANCH  24  25
ATOM     25  C   UNL     1      47.334   4.024  15.731  0.00  0.00    +0.000 C 
ATOM     26  C   UNL     1      47.293   4.300  17.242  0.00  0.00    +0.000 C 
ATOM     27  C   UNL     1      47.828   2.877  17.362  0.00  0.00    +0.000 C 
ATOM     28  O   UNL     1      48.225   2.890  15.968  0.00  0.00    +0.000 OA
ENDBRANCH  24  25
ENDBRANCH  22  24
ENDBRANCH  15  18
ENDBRANCH   1  15
TORSDOF 6
ENDMDL
MODEL 3
REMARK VINA RESULT:    -8.538      2.365      3.919
REMARK INTER + INTRA:         -12.348
REMARK INTER:                 -11.534
REMARK INTRA:                  -0.814
REMARK UNBOUND:                -0.815
REMARK  Name = 
REMARK  6 active torsions:
REMARK  status: ('A' for Active; 'I' for Inactive)
REMARK    1  A    between atoms: C_2  and  C_4
REMARK    2  A    between atoms: N_8  and  C_9
REMARK    3  A    between atoms: C_9  and  C_10
REMARK    4  A    between atoms: C_10  and  C_13
REMARK    5  A    between atoms: C_17  and  O_18
REMARK    6  A    between atoms: O_18  and  C_19
REMARK                            x       y       z     vdW  Elec       q    Type
REMARK                         _______ _______ _______ _____ _____    ______ ____
ROOT
ATOM      1  C   UNL     1      43.261   4.032  11.135  0.00  0.00    +0.000 C 
ENDROOT
BRANCH   1   6
ATOM      2  C   UNL     1      46.447   2.324   7.713  0.00  0.00    +0.000 A 
ATOM      3  C   UNL     1      46.341   3.682   7.424  0.00  0.00    +0.000 A 
ATOM      4  C   UNL     1      45.513   4.482   8.217  0.00  0.00    +0.000 A 
ATOM      5  C   UNL     1      44.800   3.912   9.272  0.00  0.00    +0.000 A 
ATOM      6  N   UNL     1      44.038   4.750  10.097  0.00  0.00    +0.000 N 
ATOM      7  N   UNL     1      44.891   2.595   9.548  0.00  0.00    +0.000 NA
ATOM      8  C   UNL     1      45.693   1.830   8.764  0.00  0.00    +0.000 A 
ATOM      9  H   UNL     1      43.446   5.363   9.540  0.00  0.00    +0.000 HD
BRANCH   2  11
ATOM     10  N   UNL     1      48.365   1.931   6.273  0.00  0.00    +0.000 N 
ATOM     11  C   UNL     1      47.312   1.392   6.959  0.00  0.00    +0.000 C 
ATOM     12  O   UNL     1      47.124   0.183   6.985  0.00  0.00    +0.000 OA
ATOM     13  H   UNL     1      49.016   1.269   5.868  0.00  0.00    +0.000 HD
ATOM     14  H   UNL     1      48.702   2.868   6.440  0.00  0.00    +0.000 HD
ENDBRANCH   2  11
ENDBRANCH   1   6
BRANCH   1  15
ATOM     15  C   UNL     1      43.289   4.746  12.509  0.00  0.00    +0.000 C 
ATOM     16  F   UNL     1      42.345   5.736  12.514  0.00  0.00    +0.000 F 
ATOM     17  F   UNL     1      42.865   3.849  13.456  0.00  0.00    +0.000 F 
BRANCH  15  18
ATOM     18  C   UNL     1      44.673   5.291  12.818  0.00  0.00    +0.000 A 
ATOM     19  C   UNL     1      45.740   4.410  13.050  0.00  0.00    +0.000 A 
ATOM     20  C   UNL     1      47.013   4.902  13.345  0.00  0.00    +0.000 A 
ATOM     21  C   UNL     1      47.235   6.278  13.412  0.00  0.00    +0.000 A 
ATOM     22  C   UNL     1      46.186   7.166  13.185  0.00  0.00    +0.000 A 
ATOM     23  C   UNL     1      44.912   6.674  12.883  0.00  0.00    +0.000 A 
BRANCH  22  24
ATOM     24  O   UNL     1      46.330   8.532  13.183  0.00  0.00    +0.000 OA
BRANCH  24  25
ATOM     25  C   UNL     1      45.755   9.271  12.086  0.00  0.00    +0.000 C 
ATOM     26  C   UNL     1      46.515  10.544  11.678  0.00  0.00    +0.000 C 
ATOM     27  C   UNL     1      45.128  11.176  11.636  0.00  0.00    +0.000 C 
ATOM     28  O   UNL     1      44.587  10.084  12.421  0.00  0.00    +0.000 OA
ENDBRANCH  24  25
ENDBRANCH  22  24
ENDBRANCH  15  18
ENDBRANCH   1  15
TORSDOF 6
ENDMDL
MODEL 4
REMARK VINA RESULT:    -8.234      2.179      3.602
REMARK INTER + INTRA:         -11.938
REMARK INTER:                 -11.069
REMARK INTRA:                  -0.869
REMARK UNBOUND:                -0.815
REMARK  Name = 
REMARK  6 active torsions:
REMARK  status: ('A' for Active; 'I' for Inactive)
REMARK    1  A    between atoms: C_2  and  C_4
REMARK    2  A    between atoms: N_8  and  C_9
REMARK    3  A    between atoms: C_9  and  C_10
REMARK    4  A    between atoms: C_10  and  C_13
REMARK    5  A    between atoms: C_17  and  O_18
REMARK    6  A    between atoms: O_18  and  C_19
REMARK                            x       y       z     vdW  Elec       q    Type
REMARK                         _______ _______ _______ _____ _____    ______ ____
ROOT
ATOM      1  C   UNL     1      43.309   4.277  11.041  0.00  0.00    +0.000 C 
ENDROOT
BRANCH   1   6
ATOM      2  C   UNL     1      46.479   2.345   7.724  0.00  0.00    +0.000 A 
ATOM      3  C   UNL     1      46.442   3.700   7.403  0.00  0.00    +0.000 A 
ATOM      4  C   UNL     1      45.636   4.555   8.160  0.00  0.00    +0.000 A 
ATOM      5  C   UNL     1      44.877   4.043   9.213  0.00  0.00    +0.000 A 
ATOM      6  N   UNL     1      44.138   4.934  10.003  0.00  0.00    +0.000 N 
ATOM      7  N   UNL     1      44.901   2.730   9.520  0.00  0.00    +0.000 NA
ATOM      8  C   UNL     1      45.681   1.911   8.770  0.00  0.00    +0.000 A 
ATOM      9  H   UNL     1      43.587   5.561   9.421  0.00  0.00    +0.000 HD
BRANCH   2  11
ATOM     10  N   UNL     1      48.409   1.830   6.341  0.00  0.00    +0.000 N 
ATOM     11  C   UNL     1      47.314   1.357   7.009  0.00  0.00    +0.000 C 
ATOM     12  O   UNL     1      47.064   0.160   7.051  0.00  0.00    +0.000 OA
ATOM     13  H   UNL     1      49.036   1.129   5.965  0.00  0.00    +0.000 HD
ATOM     14  H   UNL     1      48.789   2.752   6.501  0.00  0.00    +0.000 HD
ENDBRANCH   2  11
ENDBRANCH   1   6
BRANCH   1  15
ATOM     15  C   UNL     1      43.332   5.028  12.395  0.00  0.00    +0.000 C 
ATOM     16  F   UNL     1      42.562   6.154  12.291  0.00  0.00    +0.000 F 
ATOM     17  F   UNL     1      42.689   4.245  13.319  0.00  0.00    +0.000 F 
BRANCH  15  18
ATOM     18  C   UNL     1      44.754   5.358  12.816  0.00  0.00    +0.000 A 
ATOM     19  C   UNL     1      45.649   4.327  13.142  0.00  0.00    +0.000 A 
ATOM     20  C   UNL     1      46.953   4.622  13.540  0.00  0.00    +0.000 A 
ATOM     21  C   UNL     1      47.380   5.948  13.619  0.00  0.00    +0.000 A 
ATOM     22  C   UNL     1      46.504   6.984  13.300  0.00  0.00    +0.000 A 
ATOM     23  C   UNL     1      45.198   6.689  12.894  0.00  0.00    +0.000 A 
BRANCH  22  24
ATOM     24  O   UNL     1      46.858   8.311  13.304  0.00  0.00    +0.000 OA
BRANCH  24  25
ATOM     25  C   UNL     1      47.348   8.884  12.074  0.00  0.00    +0.000 C 
ATOM     26  C   UNL     1      48.812   8.560  11.734  0.00  0.00    +0.000 C 
ATOM     27  C   UNL     1      48.902  10.044  11.395  0.00  0.00    +0.000 C 
ATOM     28  O   UNL     1      47.683  10.305  12.134  0.00  0.00    +0.000 OA
ENDBRANCH  24  25
ENDBRANCH  22  24
ENDBRANCH  15  18
ENDBRANCH   1  15
TORSDOF 6
ENDMDL
MODEL 5
REMARK VINA RESULT:    -7.561      3.022      7.167
REMARK INTER + INTRA:         -11.028
REMARK INTER:                 -10.323
REMARK INTRA:                  -0.706
REMARK UNBOUND:                -0.815
REMARK  Name = 
REMARK  6 active torsions:
REMARK  status: ('A' for Active; 'I' for Inactive)
REMARK    1  A    between atoms: C_2  and  C_4
REMARK    2  A    between atoms: N_8  and  C_9
REMARK    3  A    between atoms: C_9  and  C_10
REMARK    4  A    between atoms: C_10  and  C_13
REMARK    5  A    between atoms: C_17  and  O_18
REMARK    6  A    between atoms: O_18  and  C_19
REMARK                            x       y       z     vdW  Elec       q    Type
REMARK                         _______ _______ _______ _____ _____    ______ ____
ROOT
ATOM      1  C   UNL     1      47.165   6.396  12.096  0.00  0.00    +0.000 C 
ENDROOT
BRANCH   1   6
ATOM      2  C   UNL     1      47.830   4.261  16.544  0.00  0.00    +0.000 A 
ATOM      3  C   UNL     1      48.468   5.493  16.665  0.00  0.00    +0.000 A 
ATOM      4  C   UNL     1      48.465   6.369  15.575  0.00  0.00    +0.000 A 
ATOM      5  C   UNL     1      47.838   5.995  14.386  0.00  0.00    +0.000 A 
ATOM      6  N   UNL     1      47.784   6.922  13.336  0.00  0.00    +0.000 N 
ATOM      7  N   UNL     1      47.228   4.799  14.262  0.00  0.00    +0.000 NA
ATOM      8  C   UNL     1      47.247   3.956  15.325  0.00  0.00    +0.000 A 
ATOM      9  H   UNL     1      48.703   7.321  13.159  0.00  0.00    +0.000 HD
BRANCH   2  11
ATOM     10  N   UNL     1      48.763   3.266  18.556  0.00  0.00    +0.000 N 
ATOM     11  C   UNL     1      47.749   3.271  17.639  0.00  0.00    +0.000 C 
ATOM     12  O   UNL     1      46.790   2.517  17.749  0.00  0.00    +0.000 OA
ATOM     13  H   UNL     1      48.627   2.671  19.364  0.00  0.00    +0.000 HD
ATOM     14  H   UNL     1      49.417   4.031  18.649  0.00  0.00    +0.000 HD
ENDBRANCH   2  11
ENDBRANCH   1   6
BRANCH   1  15
ATOM     15  C   UNL     1      45.637   6.646  12.033  0.00  0.00    +0.000 C 
ATOM     16  F   UNL     1      45.242   7.270  13.185  0.00  0.00    +0.000 F 
ATOM     17  F   UNL     1      45.405   7.562  11.039  0.00  0.00    +0.000 F 
BRANCH  15  18
ATOM     18  C   UNL     1      44.877   5.351  11.807  0.00  0.00    +0.000 A 
ATOM     19  C   UNL     1      44.024   4.853  12.804  0.00  0.00    +0.000 A 
ATOM     20  C   UNL     1      43.330   3.659  12.609  0.00  0.00    +0.000 A 
ATOM     21  C   UNL     1      43.479   2.946  11.419  0.00  0.00    +0.000 A 
ATOM     22  C   UNL     1      44.323   3.425  10.420  0.00  0.00    +0.000 A 
ATOM     23  C   UNL     1      45.014   4.627  10.611  0.00  0.00    +0.000 A 
BRANCH  22  24
ATOM     24  O   UNL     1      44.489   2.812   9.202  0.00  0.00    +0.000 OA
BRANCH  24  25
ATOM     25  C   UNL     1      45.825   2.428   8.814  0.00  0.00    +0.000 C 
ATOM     26  C   UNL     1      46.248   2.852   7.399  0.00  0.00    +0.000 C 
ATOM     27  C   UNL     1      46.792   1.431   7.300  0.00  0.00    +0.000 C 
ATOM     28  O   UNL     1      45.988   1.026   8.436  0.00  0.00    +0.000 OA
ENDBRANCH  24  25
ENDBRANCH  22  24
ENDBRANCH  15  18
ENDBRANCH   1  15
TORSDOF 6
ENDMDL
MODEL 6
REMARK VINA RESULT:    -7.531      2.819      3.700
REMARK INTER + INTRA:         -10.988
REMARK INTER:                 -10.165
REMARK INTRA:                  -0.823
REMARK UNBOUND:                -0.815
REMARK  Name = 
REMARK  6 active torsions:
REMARK  status: ('A' for Active; 'I' for Inactive)
REMARK    1  A    between atoms: C_2  and  C_4
REMARK    2  A    between atoms: N_8  and  C_9
REMARK    3  A    between atoms: C_9  and  C_10
REMARK    4  A    between atoms: C_10  and  C_13
REMARK    5  A    between atoms: C_17  and  O_18
REMARK    6  A    between atoms: O_18  and  C_19
REMARK                            x       y       z     vdW  Elec       q    Type
REMARK                         _______ _______ _______ _____ _____    ______ ____
ROOT
ATOM      1  C   UNL     1      43.715   5.145  10.978  0.00  0.00    +0.000 C 
ENDROOT
BRANCH   1   6
ATOM      2  C   UNL     1      46.358   2.664   7.567  0.00  0.00    +0.000 A 
ATOM      3  C   UNL     1      45.671   1.664   8.251  0.00  0.00    +0.000 A 
ATOM      4  C   UNL     1      44.811   2.023   9.293  0.00  0.00    +0.000 A 
ATOM      5  C   UNL     1      44.662   3.366   9.639  0.00  0.00    +0.000 A 
ATOM      6  N   UNL     1      43.736   3.703  10.636  0.00  0.00    +0.000 N 
ATOM      7  N   UNL     1      45.334   4.336   8.987  0.00  0.00    +0.000 NA
ATOM      8  C   UNL     1      46.172   3.972   7.983  0.00  0.00    +0.000 A 
ATOM      9  H   UNL     1      43.866   3.122  11.461  0.00  0.00    +0.000 HD
BRANCH   2  11
ATOM     10  N   UNL     1      47.133   3.188   5.324  0.00  0.00    +0.000 N 
ATOM     11  C   UNL     1      47.270   2.401   6.433  0.00  0.00    +0.000 C 
ATOM     12  O   UNL     1      48.144   1.547   6.501  0.00  0.00    +0.000 OA
ATOM     13  H   UNL     1      47.845   3.079   4.612  0.00  0.00    +0.000 HD
ATOM     14  H   UNL     1      46.617   4.057   5.333  0.00  0.00    +0.000 HD
ENDBRANCH   2  11
ENDBRANCH   1   6
BRANCH   1  15
ATOM     15  C   UNL     1      44.286   5.438  12.388  0.00  0.00    +0.000 C 
ATOM     16  F   UNL     1      43.248   5.699  13.241  0.00  0.00    +0.000 F 
ATOM     17  F   UNL     1      44.848   4.280  12.860  0.00  0.00    +0.000 F 
BRANCH  15  18
ATOM     18  C   UNL     1      45.282   6.584  12.350  0.00  0.00    +0.000 A 
ATOM     19  C   UNL     1      44.828   7.908  12.251  0.00  0.00    +0.000 A 
ATOM     20  C   UNL     1      45.736   8.966  12.204  0.00  0.00    +0.000 A 
ATOM     21  C   UNL     1      47.108   8.717  12.256  0.00  0.00    +0.000 A 
ATOM     22  C   UNL     1      47.576   7.408  12.354  0.00  0.00    +0.000 A 
ATOM     23  C   UNL     1      46.666   6.347  12.408  0.00  0.00    +0.000 A 
BRANCH  22  24
ATOM     24  O   UNL     1      48.905   7.079  12.460  0.00  0.00    +0.000 OA
BRANCH  24  25
ATOM     25  C   UNL     1      49.872   8.149  12.421  0.00  0.00    +0.000 C 
ATOM     26  C   UNL     1      50.920   8.050  11.300  0.00  0.00    +0.000 C 
ATOM     27  C   UNL     1      51.908   8.422  12.400  0.00  0.00    +0.000 C 
ATOM     28  O   UNL     1      50.939   8.066  13.417  0.00  0.00    +0.000 OA
ENDBRANCH  24  25
ENDBRANCH  22  24
ENDBRANCH  15  18
ENDBRANCH   1  15
TORSDOF 6
ENDMDL
MODEL 7
REMARK VINA RESULT:    -7.517      3.300      7.936
REMARK INTER + INTRA:         -10.969
REMARK INTER:                 -10.378
REMARK INTRA:                  -0.591
REMARK UNBOUND:                -0.815
REMARK  Name = 
REMARK  6 active torsions:
REMARK  status: ('A' for Active; 'I' for Inactive)
REMARK    1  A    between atoms: C_2  and  C_4
REMARK    2  A    between atoms: N_8  and  C_9
REMARK    3  A    between atoms: C_9  and  C_10
REMARK    4  A    between atoms: C_10  and  C_13
REMARK    5  A    between atoms: C_17  and  O_18
REMARK    6  A    between atoms: O_18  and  C_19
REMARK                            x       y       z     vdW  Elec       q    Type
REMARK                         _______ _______ _______ _____ _____    ______ ____
ROOT
ATOM      1  C   UNL     1      46.029   5.368  13.138  0.00  0.00    +0.000 C 
ENDROOT
BRANCH   1   6
ATOM      2  C   UNL     1      48.750   4.540  17.224  0.00  0.00    +0.000 A 
ATOM      3  C   UNL     1      49.199   5.776  16.767  0.00  0.00    +0.000 A 
ATOM      4  C   UNL     1      48.626   6.323  15.615  0.00  0.00    +0.000 A 
ATOM      5  C   UNL     1      47.628   5.624  14.937  0.00  0.00    +0.000 A 
ATOM      6  N   UNL     1      47.019   6.229  13.829  0.00  0.00    +0.000 N 
ATOM      7  N   UNL     1      47.198   4.421  15.368  0.00  0.00    +0.000 NA
ATOM      8  C   UNL     1      47.770   3.899  16.483  0.00  0.00    +0.000 A 
ATOM      9  H   UNL     1      47.718   6.592  13.185  0.00  0.00    +0.000 HD
BRANCH   2  11
ATOM     10  N   UNL     1      48.372   3.167  19.193  0.00  0.00    +0.000 N 
ATOM     11  C   UNL     1      49.264   3.881  18.443  0.00  0.00    +0.000 C 
ATOM     12  O   UNL     1      50.449   3.934  18.746  0.00  0.00    +0.000 OA
ATOM     13  H   UNL     1      48.765   2.622  19.951  0.00  0.00    +0.000 HD
ATOM     14  H   UNL     1      47.467   2.885  18.842  0.00  0.00    +0.000 HD
ENDBRANCH   2  11
ENDBRANCH   1   6
BRANCH   1  15
ATOM     15  C   UNL     1      45.662   5.887  11.725  0.00  0.00    +0.000 C 
ATOM     16  F   UNL     1      44.683   6.836  11.842  0.00  0.00    +0.000 F 
ATOM     17  F   UNL     1      46.749   6.562  11.232  0.00  0.00    +0.000 F 
BRANCH  15  18
ATOM     18  C   UNL     1      45.234   4.749  10.816  0.00  0.00    +0.000 A 
ATOM     19  C   UNL     1      44.560   3.639  11.347  0.00  0.00    +0.000 A 
ATOM     20  C   UNL     1      44.173   2.584  10.520  0.00  0.00    +0.000 A 
ATOM     21  C   UNL     1      44.453   2.623   9.154  0.00  0.00    +0.000 A 
ATOM     22  C   UNL     1      45.123   3.717   8.610  0.00  0.00    +0.000 A 
ATOM     23  C   UNL     1      45.505   4.779   9.437  0.00  0.00    +0.000 A 
BRANCH  22  24
ATOM     24  O   UNL     1      45.394   3.858   7.271  0.00  0.00    +0.000 OA
BRANCH  24  25
ATOM     25  C   UNL     1      46.730   3.554   6.816  0.00  0.00    +0.000 C 
ATOM     26  C   UNL     1      46.819   2.887   5.434  0.00  0.00    +0.000 C 
ATOM     27  C   UNL     1      47.822   1.962   6.115  0.00  0.00    +0.000 C 
ATOM     28  O   UNL     1      47.343   2.373   7.420  0.00  0.00    +0.000 OA
ENDBRANCH  24  25
ENDBRANCH  22  24
ENDBRANCH  15  18
ENDBRANCH   1  15
TORSDOF 6
ENDMDL
MODEL 8
REMARK VINA RESULT:    -7.400      3.425      8.044
REMARK INTER + INTRA:         -10.811
REMARK INTER:                 -10.388
REMARK INTRA:                  -0.423
REMARK UNBOUND:                -0.815
REMARK  Name = 
REMARK  6 active torsions:
REMARK  status: ('A' for Active; 'I' for Inactive)
REMARK    1  A    between atoms: C_2  and  C_4
REMARK    2  A    between atoms: N_8  and  C_9
REMARK    3  A    between atoms: C_9  and  C_10
REMARK    4  A    between atoms: C_10  and  C_13
REMARK    5  A    between atoms: C_17  and  O_18
REMARK    6  A    between atoms: O_18  and  C_19
REMARK                            x       y       z     vdW  Elec       q    Type
REMARK                         _______ _______ _______ _____ _____    ______ ____
ROOT
ATOM      1  C   UNL     1      46.767   5.418  13.068  0.00  0.00    +0.000 C 
ENDROOT
BRANCH   1   6
ATOM      2  C   UNL     1      48.844   4.790  17.548  0.00  0.00    +0.000 A 
ATOM      3  C   UNL     1      47.865   3.802  17.491  0.00  0.00    +0.000 A 
ATOM      4  C   UNL     1      47.081   3.688  16.339  0.00  0.00    +0.000 A 
ATOM      5  C   UNL     1      47.280   4.568  15.275  0.00  0.00    +0.000 A 
ATOM      6  N   UNL     1      46.532   4.384  14.103  0.00  0.00    +0.000 N 
ATOM      7  N   UNL     1      48.220   5.533  15.330  0.00  0.00    +0.000 NA
ATOM      8  C   UNL     1      48.967   5.636  16.458  0.00  0.00    +0.000 A 
ATOM      9  H   UNL     1      45.543   4.283  14.319  0.00  0.00    +0.000 HD
BRANCH   2  11
ATOM     10  N   UNL     1      50.540   3.927  19.059  0.00  0.00    +0.000 N 
ATOM     11  C   UNL     1      49.747   4.982  18.702  0.00  0.00    +0.000 C 
ATOM     12  O   UNL     1      49.817   6.055  19.287  0.00  0.00    +0.000 OA
ATOM     13  H   UNL     1      51.239   4.117  19.768  0.00  0.00    +0.000 HD
ATOM     14  H   UNL     1      50.701   3.136  18.452  0.00  0.00    +0.000 HD
ENDBRANCH   2  11
ENDBRANCH   1   6
BRANCH   1  15
ATOM     15  C   UNL     1      45.470   5.840  12.333  0.00  0.00    +0.000 C 
ATOM     16  F   UNL     1      44.467   5.985  13.253  0.00  0.00    +0.000 F 
ATOM     17  F   UNL     1      45.667   7.099  11.826  0.00  0.00    +0.000 F 
BRANCH  15  18
ATOM     18  C   UNL     1      45.099   4.839  11.253  0.00  0.00    +0.000 A 
ATOM     19  C   UNL     1      44.299   3.729  11.566  0.00  0.00    +0.000 A 
ATOM     20  C   UNL     1      43.964   2.799  10.582  0.00  0.00    +0.000 A 
ATOM     21  C   UNL     1      44.423   2.964   9.274  0.00  0.00    +0.000 A 
ATOM     22  C   UNL     1      45.219   4.059   8.947  0.00  0.00    +0.000 A 
ATOM     23  C   UNL     1      45.550   4.996   9.931  0.00  0.00    +0.000 A 
BRANCH  22  24
ATOM     24  O   UNL     1      45.671   4.321   7.676  0.00  0.00    +0.000 OA
BRANCH  24  25
ATOM     25  C   UNL     1      46.836   3.608   7.212  0.00  0.00    +0.000 C 
ATOM     26  C   UNL     1      46.726   3.017   5.797  0.00  0.00    +0.000 C 
ATOM     27  C   UNL     1      47.343   1.776   6.432  0.00  0.00    +0.000 C 
ATOM     28  O   UNL     1      47.002   2.261   7.755  0.00  0.00    +0.000 OA
ENDBRANCH  24  25
ENDBRANCH  22  24
ENDBRANCH  15  18
ENDBRANCH   1  15
TORSDOF 6
ENDMDL
MODEL 9
REMARK VINA RESULT:    -6.785      4.016      8.164
REMARK INTER + INTRA:          -9.980
REMARK INTER:                  -9.423
REMARK INTRA:                  -0.557
REMARK UNBOUND:                -0.815
REMARK  Name = 
REMARK  6 active torsions:
REMARK  status: ('A' for Active; 'I' for Inactive)
REMARK    1  A    between atoms: C_2  and  C_4
REMARK    2  A    between atoms: N_8  and  C_9
REMARK    3  A    between atoms: C_9  and  C_10
REMARK    4  A    between atoms: C_10  and  C_13
REMARK    5  A    between atoms: C_17  and  O_18
REMARK    6  A    between atoms: O_18  and  C_19
REMARK                            x       y       z     vdW  Elec       q    Type
REMARK                         _______ _______ _______ _____ _____    ______ ____
ROOT
ATOM      1  C   UNL     1      48.287   6.536  13.485  0.00  0.00    +0.000 C 
ENDROOT
BRANCH   1   6
ATOM      2  C   UNL     1      48.856   5.275  18.268  0.00  0.00    +0.000 A 
ATOM      3  C   UNL     1      48.925   6.666  18.277  0.00  0.00    +0.000 A 
ATOM      4  C   UNL     1      48.791   7.361  17.071  0.00  0.00    +0.000 A 
ATOM      5  C   UNL     1      48.604   6.656  15.882  0.00  0.00    +0.000 A 
ATOM      6  N   UNL     1      48.397   7.380  14.699  0.00  0.00    +0.000 N 
ATOM      7  N   UNL     1      48.548   5.309  15.866  0.00  0.00    +0.000 NA
ATOM      8  C   UNL     1      48.688   4.649  17.044  0.00  0.00    +0.000 A 
ATOM      9  H   UNL     1      49.103   8.105  14.592  0.00  0.00    +0.000 HD
BRANCH   2  11
ATOM     10  N   UNL     1      48.351   3.217  19.457  0.00  0.00    +0.000 N 
ATOM     11  C   UNL     1      48.957   4.442  19.485  0.00  0.00    +0.000 C 
ATOM     12  O   UNL     1      49.594   4.813  20.462  0.00  0.00    +0.000 OA
ATOM     13  H   UNL     1      48.537   2.613  20.248  0.00  0.00    +0.000 HD
ATOM     14  H   UNL     1      48.053   2.776  18.598  0.00  0.00    +0.000 HD
ENDBRANCH   2  11
ENDBRANCH   1   6
BRANCH   1  15
ATOM     15  C   UNL     1      47.035   6.863  12.635  0.00  0.00    +0.000 C 
ATOM     16  F   UNL     1      46.256   7.757  13.319  0.00  0.00    +0.000 F 
ATOM     17  F   UNL     1      47.453   7.542  11.520  0.00  0.00    +0.000 F 
BRANCH  15  18
ATOM     18  C   UNL     1      46.264   5.603  12.283  0.00  0.00    +0.000 A 
ATOM     19  C   UNL     1      46.343   4.475  13.114  0.00  0.00    +0.000 A 
ATOM     20  C   UNL     1      45.647   3.309  12.792  0.00  0.00    +0.000 A 
ATOM     21  C   UNL     1      44.865   3.254  11.638  0.00  0.00    +0.000 A 
ATOM     22  C   UNL     1      44.777   4.364  10.801  0.00  0.00    +0.000 A 
ATOM     23  C   UNL     1      45.469   5.536  11.127  0.00  0.00    +0.000 A 
BRANCH  22  24
ATOM     24  O   UNL     1      43.993   4.411   9.674  0.00  0.00    +0.000 OA
BRANCH  24  25
ATOM     25  C   UNL     1      44.595   4.041   8.416  0.00  0.00    +0.000 C 
ATOM     26  C   UNL     1      45.399   2.731   8.431  0.00  0.00    +0.000 C 
ATOM     27  C   UNL     1      46.431   3.534   7.647  0.00  0.00    +0.000 C 
ATOM     28  O   UNL     1      45.809   4.775   8.063  0.00  0.00    +0.000 OA
ENDBRANCH  24  25
ENDBRANCH  22  24
ENDBRANCH  15  18
ENDBRANCH   1  15
TORSDOF 6
ENDMDL
