MODEL 1
REMARK VINA RESULT:    -8.987      0.000      0.000
REMARK INTER + INTRA:         -14.564
REMARK INTER:                 -13.190
REMARK INTRA:                  -1.374
REMARK UNBOUND:                -1.374
REMARK  Name = 
REMARK  8 active torsions:
REMARK  status: ('A' for Active; 'I' for Inactive)
REMARK    1  A    between atoms: C_2  and  C_3
REMARK    2  A    between atoms: C_3  and  N_4
REMARK    3  A    between atoms: C_5  and  C_7
REMARK    4  A    between atoms: N_17  and  C_18
REMARK    5  A    between atoms: C_18  and  C_19
REMARK    6  A    between atoms: C_22  and  C_23
REMARK    7  A    between atoms: C_23  and  N_24
REMARK    8  A    between atoms: C_25  and  C_27
REMARK                            x       y       z     vdW  Elec       q    Type
REMARK                         _______ _______ _______ _____ _____    ______ ____
ROOT
ATOM      1  O   UNL     1      47.140   5.136  17.703  0.00  0.00    +0.000 OA
ATOM      2  C   UNL     1      47.486   4.186  17.020  0.00  0.00    +0.000 C 
ATOM      3  N   UNL     1      47.554   4.229  15.645  0.00  0.00    +0.000 N 
ATOM      4  H   UNL     1      47.815   3.381  15.147  0.00  0.00    +0.000 HD
ENDROOT
BRANCH   2   5
ATOM      5  C   UNL     1      47.799   2.809  17.624  0.00  0.00    +0.000 C 
BRANCH   5   6
ATOM      6  N   UNL     1      49.200   2.651  17.940  0.00  0.00    +0.000 N 
ATOM      7  C   UNL     1      50.074   2.108  17.035  0.00  0.00    +0.000 C 
ATOM      8  O   UNL     1      49.718   1.760  15.911  0.00  0.00    +0.000 OA
ATOM      9  H   UNL     1      49.449   2.672  18.924  0.00  0.00    +0.000 HD
BRANCH   7  10
ATOM     10  C   UNL     1      51.469   2.020  17.464  0.00  0.00    +0.000 A 
ATOM     11  C   UNL     1      52.080   0.789  17.662  0.00  0.00    +0.000 A 
ATOM     12  S   UNL     1      53.714   0.922  18.143  0.00  0.00    +0.000 S 
ATOM     13  C   UNL     1      53.638   2.624  18.134  0.00  0.00    +0.000 A 
ATOM     14  N   UNL     1      54.710   3.387  18.483  0.00  0.00    +0.000 NA
ATOM     15  C   UNL     1      54.492   4.656  18.448  0.00  0.00    +0.000 A 
ATOM     16  N   UNL     1      53.306   5.244  18.098  0.00  0.00    +0.000 N 
ATOM     17  C   UNL     1      52.190   4.515  17.750  0.00  0.00    +0.000 A 
ATOM     18  O   UNL     1      51.146   5.075  17.430  0.00  0.00    +0.000 OA
ATOM     19  C   UNL     1      52.392   3.080  17.762  0.00  0.00    +0.000 A 
ATOM     20  H   UNL     1      53.195   6.245  18.084  0.00  0.00    +0.000 HD
ENDBRANCH   7  10
ENDBRANCH   5   6
ENDBRANCH   2   5
BRANCH   3  21
ATOM     21  C   UNL     1      47.296   5.421  14.874  0.00  0.00    +0.000 C 
BRANCH  21  22
ATOM     22  C   UNL     1      46.422   5.123  13.681  0.00  0.00    +0.000 A 
ATOM     23  C   UNL     1      46.150   3.797  13.325  0.00  0.00    +0.000 A 
ATOM     24  C   UNL     1      45.272   3.502  12.276  0.00  0.00    +0.000 A 
ATOM     25  C   UNL     1      44.661   4.528  11.537  0.00  0.00    +0.000 A 
ATOM     26  C   UNL     1      44.960   5.856  11.880  0.00  0.00    +0.000 A 
ATOM     27  C   UNL     1      45.843   6.151  12.928  0.00  0.00    +0.000 A 
BRANCH  25  28
ATOM     28  C   UNL     1      43.732   4.238  10.377  0.00  0.00    +0.000 C 
BRANCH  28  29
ATOM     29  N   UNL     1      44.300   3.377   9.358  0.00  0.00    +0.000 N 
ATOM     30  C   UNL     1      45.250   3.847   8.483  0.00  0.00    +0.000 C 
ATOM     31  O   UNL     1      45.632   5.018   8.469  0.00  0.00    +0.000 OA
ATOM     32  H   UNL     1      43.964   2.429   9.263  0.00  0.00    +0.000 HD
BRANCH  30  33
ATOM     33  C   UNL     1      45.775   2.795   7.508  0.00  0.00    +0.000 C 
ATOM     34  C   UNL     1      46.017   1.451   8.194  0.00  0.00    +0.000 C 
ATOM     35  C   UNL     1      47.084   0.748   7.360  0.00  0.00    +0.000 C 
ATOM     36  C   UNL     1      47.722   1.816   6.476  0.00  0.00    +0.000 C 
ATOM     37  C   UNL     1      47.155   3.144   6.954  0.00  0.00    +0.000 C 
ENDBRANCH  30  33
ENDBRANCH  28  29
ENDBRANCH  25  28
ENDBRANCH  21  22
ENDBRANCH   3  21
TORSDOF 8
ENDMDL
MODEL 2
REMARK VINA RESULT:    -8.207      2.004      2.871
REMARK INTER + INTRA:         -13.419
REMARK INTER:                 -12.550
REMARK INTRA:                  -0.869
REMARK UNBOUND:                -1.374
REMARK  Name = 
REMARK  8 active torsions:
REMARK  status: ('A' for Active; 'I' for Inactive)
REMARK    1  A    between atoms: C_2  and  C_3
REMARK    2  A    between atoms: C_3  and  N_4
REMARK    3  A    between atoms: C_5  and  C_7
REMARK    4  A    between atoms: N_17  and  C_18
REMARK    5  A    between atoms: C_18  and  C_19
REMARK    6  A    between atoms: C_22  and  C_23
REMARK    7  A    between atoms: C_23  and  N_24
REMARK    8  A    between atoms: C_25  and  C_27
REMARK                            x       y       z     vdW  Elec       q    Type
REMARK                         _______ _______ _______ _____ _____    ______ ____
ROOT
ATOM      1  O   UNL     1      49.837   6.648  14.768  0.00  0.00    +0.000 OA
ATOM      2  C   UNL     1      48.928   6.923  15.535  0.00  0.00    +0.000 C 
ATOM      3  N   UNL     1      47.880   7.749  15.197  0.00  0.00    +0.000 N 
ATOM      4  H   UNL     1      47.181   7.960  15.906  0.00  0.00    +0.000 HD
ENDROOT
BRANCH   2   5
ATOM      5  C   UNL     1      48.907   6.442  16.994  0.00  0.00    +0.000 C 
BRANCH   5   6
ATOM      6  N   UNL     1      50.119   5.750  17.364  0.00  0.00    +0.000 N 
ATOM      7  C   UNL     1      50.097   4.706  18.253  0.00  0.00    +0.000 C 
ATOM      8  O   UNL     1      49.051   4.295  18.750  0.00  0.00    +0.000 OA
ATOM      9  H   UNL     1      50.993   6.236  17.187  0.00  0.00    +0.000 HD
BRANCH   7  10
ATOM     10  C   UNL     1      51.385   4.074  18.532  0.00  0.00    +0.000 A 
ATOM     11  C   UNL     1      52.345   4.715  19.301  0.00  0.00    +0.000 A 
ATOM     12  S   UNL     1      53.764   3.786  19.514  0.00  0.00    +0.000 S 
ATOM     13  C   UNL     1      53.147   2.520  18.556  0.00  0.00    +0.000 A 
ATOM     14  N   UNL     1      53.876   1.400  18.300  0.00  0.00    +0.000 NA
ATOM     15  C   UNL     1      53.284   0.542  17.542  0.00  0.00    +0.000 A 
ATOM     16  N   UNL     1      52.030   0.690  17.013  0.00  0.00    +0.000 N 
ATOM     17  C   UNL     1      51.258   1.809  17.233  0.00  0.00    +0.000 A 
ATOM     18  O   UNL     1      50.134   1.904  16.752  0.00  0.00    +0.000 OA
ATOM     19  C   UNL     1      51.880   2.798  18.091  0.00  0.00    +0.000 A 
ATOM     20  H   UNL     1      51.615  -0.019  16.430  0.00  0.00    +0.000 HD
ENDBRANCH   7  10
ENDBRANCH   5   6
ENDBRANCH   2   5
BRANCH   3  21
ATOM     21  C   UNL     1      47.706   8.315  13.880  0.00  0.00    +0.000 C 
BRANCH  21  22
ATOM     22  C   UNL     1      46.697   7.532  13.078  0.00  0.00    +0.000 A 
ATOM     23  C   UNL     1      45.688   8.202  12.374  0.00  0.00    +0.000 A 
ATOM     24  C   UNL     1      44.797   7.498  11.556  0.00  0.00    +0.000 A 
ATOM     25  C   UNL     1      44.875   6.101  11.438  0.00  0.00    +0.000 A 
ATOM     26  C   UNL     1      45.869   5.432  12.169  0.00  0.00    +0.000 A 
ATOM     27  C   UNL     1      46.759   6.136  12.992  0.00  0.00    +0.000 A 
BRANCH  25  28
ATOM     28  C   UNL     1      43.904   5.312  10.586  0.00  0.00    +0.000 C 
BRANCH  28  29
ATOM     29  N   UNL     1      44.514   4.635   9.458  0.00  0.00    +0.000 N 
ATOM     30  C   UNL     1      44.456   3.267   9.338  0.00  0.00    +0.000 C 
ATOM     31  O   UNL     1      43.944   2.538  10.188  0.00  0.00    +0.000 OA
ATOM     32  H   UNL     1      45.025   5.172   8.771  0.00  0.00    +0.000 HD
BRANCH  30  33
ATOM     33  C   UNL     1      45.106   2.724   8.068  0.00  0.00    +0.000 C 
ATOM     34  C   UNL     1      45.998   1.516   8.353  0.00  0.00    +0.000 C 
ATOM     35  C   UNL     1      47.030   1.490   7.229  0.00  0.00    +0.000 C 
ATOM     36  C   UNL     1      46.986   2.862   6.563  0.00  0.00    +0.000 C 
ATOM     37  C   UNL     1      46.078   3.717   7.433  0.00  0.00    +0.000 C 
ENDBRANCH  30  33
ENDBRANCH  28  29
ENDBRANCH  25  28
ENDBRANCH  21  22
ENDBRANCH   3  21
TORSDOF 8
ENDMDL
MODEL 3
REMARK VINA RESULT:    -8.045      3.198      4.543
REMARK INTER + INTRA:         -13.181
REMARK INTER:                 -11.531
REMARK INTRA:                  -1.650
REMARK UNBOUND:                -1.374
REMARK  Name = 
REMARK  8 active torsions:
REMARK  status: ('A' for Active; 'I' for Inactive)
REMARK    1  A    between atoms: C_2  and  C_3
REMARK    2  A    between atoms: C_3  and  N_4
REMARK    3  A    between atoms: C_5  and  C_7
REMARK    4  A    between atoms: N_17  and  C_18
REMARK    5  A    between atoms: C_18  and  C_19
REMARK    6  A    between atoms: C_22  and  C_23
REMARK    7  A    between atoms: C_23  and  N_24
REMARK    8  A    between atoms: C_25  and  C_27
REMARK                            x       y       z     vdW  Elec       q    Type
REMARK                         _______ _______ _______ _____ _____    ______ ____
ROOT
ATOM      1  O   UNL     1      49.147  10.656  15.228  0.00  0.00    +0.000 OA
ATOM      2  C   UNL     1      48.329   9.859  15.659  0.00  0.00    +0.000 C 
ATOM      3  N   UNL     1      47.638   8.978  14.857  0.00  0.00    +0.000 N 
ATOM      4  H   UNL     1      46.945   8.371  15.289  0.00  0.00    +0.000 HD
ENDROOT
BRANCH   2   5
ATOM      5  C   UNL     1      47.922   9.816  17.139  0.00  0.00    +0.000 C 
BRANCH   5   6
ATOM      6  N   UNL     1      47.902   8.472  17.667  0.00  0.00    +0.000 N 
ATOM      7  C   UNL     1      49.034   7.894  18.180  0.00  0.00    +0.000 C 
ATOM      8  O   UNL     1      50.104   8.497  18.241  0.00  0.00    +0.000 OA
ATOM      9  H   UNL     1      47.126   7.882  17.380  0.00  0.00    +0.000 HD
BRANCH   7  10
ATOM     10  C   UNL     1      48.882   6.538  18.703  0.00  0.00    +0.000 A 
ATOM     11  C   UNL     1      49.094   6.261  20.047  0.00  0.00    +0.000 A 
ATOM     12  S   UNL     1      48.843   4.617  20.440  0.00  0.00    +0.000 S 
ATOM     13  C   UNL     1      48.479   4.226  18.823  0.00  0.00    +0.000 A 
ATOM     14  N   UNL     1      48.191   2.950  18.445  0.00  0.00    +0.000 NA
ATOM     15  C   UNL     1      47.959   2.809  17.186  0.00  0.00    +0.000 A 
ATOM     16  N   UNL     1      47.985   3.817  16.260  0.00  0.00    +0.000 N 
ATOM     17  C   UNL     1      48.284   5.120  16.590  0.00  0.00    +0.000 A 
ATOM     18  O   UNL     1      48.287   6.001  15.736  0.00  0.00    +0.000 OA
ATOM     19  C   UNL     1      48.540   5.331  18.000  0.00  0.00    +0.000 A 
ATOM     20  H   UNL     1      47.790   3.647  15.287  0.00  0.00    +0.000 HD
ENDBRANCH   7  10
ENDBRANCH   5   6
ENDBRANCH   2   5
BRANCH   3  21
ATOM     21  C   UNL     1      47.862   8.854  13.436  0.00  0.00    +0.000 C 
BRANCH  21  22
ATOM     22  C   UNL     1      46.832   7.956  12.797  0.00  0.00    +0.000 A 
ATOM     23  C   UNL     1      45.563   8.458  12.481  0.00  0.00    +0.000 A 
ATOM     24  C   UNL     1      44.626   7.665  11.810  0.00  0.00    +0.000 A 
ATOM     25  C   UNL     1      44.923   6.339  11.458  0.00  0.00    +0.000 A 
ATOM     26  C   UNL     1      46.185   5.832  11.803  0.00  0.00    +0.000 A 
ATOM     27  C   UNL     1      47.123   6.625  12.479  0.00  0.00    +0.000 A 
BRANCH  25  28
ATOM     28  C   UNL     1      43.916   5.449  10.760  0.00  0.00    +0.000 C 
BRANCH  28  29
ATOM     29  N   UNL     1      44.427   4.782   9.579  0.00  0.00    +0.000 N 
ATOM     30  C   UNL     1      44.699   3.434   9.588  0.00  0.00    +0.000 C 
ATOM     31  O   UNL     1      44.583   2.731  10.593  0.00  0.00    +0.000 OA
ATOM     32  H   UNL     1      44.626   5.322   8.748  0.00  0.00    +0.000 HD
BRANCH  30  33
ATOM     33  C   UNL     1      45.183   2.886   8.248  0.00  0.00    +0.000 C 
ATOM     34  C   UNL     1      45.976   1.590   8.413  0.00  0.00    +0.000 C 
ATOM     35  C   UNL     1      46.901   1.514   7.202  0.00  0.00    +0.000 C 
ATOM     36  C   UNL     1      46.932   2.910   6.587  0.00  0.00    +0.000 C 
ATOM     37  C   UNL     1      46.188   3.810   7.562  0.00  0.00    +0.000 C 
ENDBRANCH  30  33
ENDBRANCH  28  29
ENDBRANCH  25  28
ENDBRANCH  21  22
ENDBRANCH   3  21
TORSDOF 8
ENDMDL
MODEL 4
REMARK VINA RESULT:    -7.914      4.077      5.379
REMARK INTER + INTRA:         -12.990
REMARK INTER:                 -11.290
REMARK INTRA:                  -1.700
REMARK UNBOUND:                -1.374
REMARK  Name = 
REMARK  8 active torsions:
REMARK  status: ('A' for Active; 'I' for Inactive)
REMARK    1  A    between atoms: C_2  and  C_3
REMARK    2  A    between atoms: C_3  and  N_4
REMARK    3  A    between atoms: C_5  and  C_7
REMARK    4  A    between atoms: N_17  and  C_18
REMARK    5  A    between atoms: C_18  and  C_19
REMARK    6  A    between atoms: C_22  and  C_23
REMARK    7  A    between atoms: C_23  and  N_24
REMARK    8  A    between atoms: C_25  and  C_27
REMARK                            x       y       z     vdW  Elec       q    Type
REMARK                         _______ _______ _______ _____ _____    ______ ____
ROOT
ATOM      1  O   UNL     1      48.917   4.911  17.421  0.00  0.00    +0.000 OA
ATOM      2  C   UNL     1      48.501   5.829  16.733  0.00  0.00    +0.000 C 
ATOM      3  N   UNL     1      47.740   5.640  15.601  0.00  0.00    +0.000 N 
ATOM      4  H   UNL     1      47.464   6.457  15.061  0.00  0.00    +0.000 HD
ENDROOT
BRANCH   2   5
ATOM      5  C   UNL     1      48.859   7.296  17.013  0.00  0.00    +0.000 C 
BRANCH   5   6
ATOM      6  N   UNL     1      49.629   7.890  15.945  0.00  0.00    +0.000 N 
ATOM      7  C   UNL     1      49.275   9.098  15.402  0.00  0.00    +0.000 C 
ATOM      8  O   UNL     1      48.311   9.741  15.813  0.00  0.00    +0.000 OA
ATOM      9  H   UNL     1      50.239   7.267  15.424  0.00  0.00    +0.000 HD
BRANCH   7  10
ATOM     10  C   UNL     1      50.144   9.604  14.342  0.00  0.00    +0.000 A 
ATOM     11  C   UNL     1      50.694  10.876  14.415  0.00  0.00    +0.000 A 
ATOM     12  S   UNL     1      51.692  11.253  13.078  0.00  0.00    +0.000 S 
ATOM     13  C   UNL     1      51.386   9.743  12.352  0.00  0.00    +0.000 A 
ATOM     14  N   UNL     1      51.921   9.411  11.145  0.00  0.00    +0.000 NA
ATOM     15  C   UNL     1      51.581   8.245  10.716  0.00  0.00    +0.000 A 
ATOM     16  N   UNL     1      50.758   7.371  11.373  0.00  0.00    +0.000 N 
ATOM     17  C   UNL     1      50.182   7.665  12.590  0.00  0.00    +0.000 A 
ATOM     18  O   UNL     1      49.458   6.853  13.157  0.00  0.00    +0.000 OA
ATOM     19  C   UNL     1      50.547   8.964  13.119  0.00  0.00    +0.000 A 
ATOM     20  H   UNL     1      50.531   6.468  10.990  0.00  0.00    +0.000 HD
ENDBRANCH   7  10
ENDBRANCH   5   6
ENDBRANCH   2   5
BRANCH   3  21
ATOM     21  C   UNL     1      47.292   4.343  15.152  0.00  0.00    +0.000 C 
BRANCH  21  22
ATOM     22  C   UNL     1      46.494   4.451  13.877  0.00  0.00    +0.000 A 
ATOM     23  C   UNL     1      46.099   3.293  13.196  0.00  0.00    +0.000 A 
ATOM     24  C   UNL     1      45.285   3.372  12.060  0.00  0.00    +0.000 A 
ATOM     25  C   UNL     1      44.863   4.614  11.560  0.00  0.00    +0.000 A 
ATOM     26  C   UNL     1      45.285   5.773  12.230  0.00  0.00    +0.000 A 
ATOM     27  C   UNL     1      46.104   5.694  13.365  0.00  0.00    +0.000 A 
BRANCH  25  28
ATOM     28  C   UNL     1      44.009   4.730  10.315  0.00  0.00    +0.000 C 
BRANCH  28  29
ATOM     29  N   UNL     1      44.400   3.843   9.238  0.00  0.00    +0.000 N 
ATOM     30  C   UNL     1      45.455   4.153   8.413  0.00  0.00    +0.000 C 
ATOM     31  O   UNL     1      46.087   5.206   8.496  0.00  0.00    +0.000 OA
ATOM     32  H   UNL     1      43.864   3.003   9.064  0.00  0.00    +0.000 HD
BRANCH  30  33
ATOM     33  C   UNL     1      45.761   3.086   7.364  0.00  0.00    +0.000 C 
ATOM     34  C   UNL     1      46.349   1.822   7.989  0.00  0.00    +0.000 C 
ATOM     35  C   UNL     1      47.172   1.160   6.887  0.00  0.00    +0.000 C 
ATOM     36  C   UNL     1      47.382   2.215   5.805  0.00  0.00    +0.000 C 
ATOM     37  C   UNL     1      46.852   3.517   6.386  0.00  0.00    +0.000 C 
ENDBRANCH  30  33
ENDBRANCH  28  29
ENDBRANCH  25  28
ENDBRANCH  21  22
ENDBRANCH   3  21
TORSDOF 8
ENDMDL
MODEL 5
REMARK VINA RESULT:    -7.831      2.859      4.330
REMARK INTER + INTRA:         -12.868
REMARK INTER:                 -11.177
REMARK INTRA:                  -1.691
REMARK UNBOUND:                -1.374
REMARK  Name = 
REMARK  8 active torsions:
REMARK  status: ('A' for Active; 'I' for Inactive)
REMARK    1  A    between atoms: C_2  and  C_3
REMARK    2  A    between atoms: C_3  and  N_4
REMARK    3  A    between atoms: C_5  and  C_7
REMARK    4  A    between atoms: N_17  and  C_18
REMARK    5  A    between atoms: C_18  and  C_19
REMARK    6  A    between atoms: C_22  and  C_23
REMARK    7  A    between atoms: C_23  and  N_24
REMARK    8  A    between atoms: C_25  and  C_27
REMARK                            x       y       z     vdW  Elec       q    Type
REMARK                         _______ _______ _______ _____ _____    ______ ____
ROOT
ATOM      1  O   UNL     1      50.030  10.558  13.607  0.00  0.00    +0.000 OA
ATOM      2  C   UNL     1      50.044   9.344  13.485  0.00  0.00    +0.000 C 
ATOM      3  N   UNL     1      48.915   8.598  13.228  0.00  0.00    +0.000 N 
ATOM      4  H   UNL     1      49.005   7.586  13.177  0.00  0.00    +0.000 HD
ENDROOT
BRANCH   2   5
ATOM      5  C   UNL     1      51.317   8.510  13.692  0.00  0.00    +0.000 C 
BRANCH   5   6
ATOM      6  N   UNL     1      51.091   7.359  14.536  0.00  0.00    +0.000 N 
ATOM      7  C   UNL     1      51.356   7.402  15.880  0.00  0.00    +0.000 C 
ATOM      8  O   UNL     1      51.767   8.421  16.432  0.00  0.00    +0.000 OA
ATOM      9  H   UNL     1      51.020   6.460  14.069  0.00  0.00    +0.000 HD
BRANCH   7  10
ATOM     10  C   UNL     1      51.067   6.182  16.630  0.00  0.00    +0.000 A 
ATOM     11  C   UNL     1      52.071   5.504  17.307  0.00  0.00    +0.000 A 
ATOM     12  S   UNL     1      51.506   4.116  18.130  0.00  0.00    +0.000 S 
ATOM     13  C   UNL     1      49.915   4.365  17.575  0.00  0.00    +0.000 A 
ATOM     14  N   UNL     1      48.907   3.507  17.892  0.00  0.00    +0.000 NA
ATOM     15  C   UNL     1      47.765   3.816  17.380  0.00  0.00    +0.000 A 
ATOM     16  N   UNL     1      47.527   4.901  16.581  0.00  0.00    +0.000 N 
ATOM     17  C   UNL     1      48.515   5.791  16.221  0.00  0.00    +0.000 A 
ATOM     18  O   UNL     1      48.264   6.759  15.512  0.00  0.00    +0.000 OA
ATOM     19  C   UNL     1      49.816   5.490  16.785  0.00  0.00    +0.000 A 
ATOM     20  H   UNL     1      46.610   5.096  16.213  0.00  0.00    +0.000 HD
ENDBRANCH   7  10
ENDBRANCH   5   6
ENDBRANCH   2   5
BRANCH   3  21
ATOM     21  C   UNL     1      47.613   9.179  13.002  0.00  0.00    +0.000 C 
BRANCH  21  22
ATOM     22  C   UNL     1      46.681   8.193  12.343  0.00  0.00    +0.000 A 
ATOM     23  C   UNL     1      47.085   6.866  12.153  0.00  0.00    +0.000 A 
ATOM     24  C   UNL     1      46.202   5.917  11.623  0.00  0.00    +0.000 A 
ATOM     25  C   UNL     1      44.899   6.277  11.246  0.00  0.00    +0.000 A 
ATOM     26  C   UNL     1      44.509   7.615  11.412  0.00  0.00    +0.000 A 
ATOM     27  C   UNL     1      45.394   8.566  11.939  0.00  0.00    +0.000 A 
BRANCH  25  28
ATOM     28  C   UNL     1      43.934   5.278  10.641  0.00  0.00    +0.000 C 
BRANCH  28  29
ATOM     29  N   UNL     1      44.420   4.633   9.438  0.00  0.00    +0.000 N 
ATOM     30  C   UNL     1      44.977   3.377   9.483  0.00  0.00    +0.000 C 
ATOM     31  O   UNL     1      45.148   2.754  10.531  0.00  0.00    +0.000 OA
ATOM     32  H   UNL     1      44.388   5.129   8.557  0.00  0.00    +0.000 HD
BRANCH  30  33
ATOM     33  C   UNL     1      45.391   2.828   8.119  0.00  0.00    +0.000 C 
ATOM     34  C   UNL     1      46.120   1.490   8.239  0.00  0.00    +0.000 C 
ATOM     35  C   UNL     1      47.002   1.388   6.998  0.00  0.00    +0.000 C 
ATOM     36  C   UNL     1      47.085   2.792   6.405  0.00  0.00    +0.000 C 
ATOM     37  C   UNL     1      46.420   3.711   7.416  0.00  0.00    +0.000 C 
ENDBRANCH  30  33
ENDBRANCH  28  29
ENDBRANCH  25  28
ENDBRANCH  21  22
ENDBRANCH   3  21
TORSDOF 8
ENDMDL
MODEL 6
REMARK VINA RESULT:    -7.768      3.844      5.035
REMARK INTER + INTRA:         -12.775
REMARK INTER:                 -12.544
REMARK INTRA:                  -0.231
REMARK UNBOUND:                -1.374
REMARK  Name = 
REMARK  8 active torsions:
REMARK  status: ('A' for Active; 'I' for Inactive)
REMARK    1  A    between atoms: C_2  and  C_3
REMARK    2  A    between atoms: C_3  and  N_4
REMARK    3  A    between atoms: C_5  and  C_7
REMARK    4  A    between atoms: N_17  and  C_18
REMARK    5  A    between atoms: C_18  and  C_19
REMARK    6  A    between atoms: C_22  and  C_23
REMARK    7  A    between atoms: C_23  and  N_24
REMARK    8  A    between atoms: C_25  and  C_27
REMARK                            x       y       z     vdW  Elec       q    Type
REMARK                         _______ _______ _______ _____ _____    ______ ____
ROOT
ATOM      1  O   UNL     1      48.068   3.484  15.403  0.00  0.00    +0.000 OA
ATOM      2  C   UNL     1      47.603   4.409  16.051  0.00  0.00    +0.000 C 
ATOM      3  N   UNL     1      47.531   5.700  15.577  0.00  0.00    +0.000 N 
ATOM      4  H   UNL     1      47.165   6.422  16.193  0.00  0.00    +0.000 HD
ENDROOT
BRANCH   2   5
ATOM      5  C   UNL     1      47.129   4.242  17.502  0.00  0.00    +0.000 C 
BRANCH   5   6
ATOM      6  N   UNL     1      46.967   5.509  18.178  0.00  0.00    +0.000 N 
ATOM      7  C   UNL     1      48.054   6.241  18.583  0.00  0.00    +0.000 C 
ATOM      8  O   UNL     1      49.206   5.872  18.365  0.00  0.00    +0.000 OA
ATOM      9  H   UNL     1      46.060   5.687  18.598  0.00  0.00    +0.000 HD
BRANCH   7  10
ATOM     10  C   UNL     1      47.761   7.514  19.237  0.00  0.00    +0.000 A 
ATOM     11  C   UNL     1      47.410   7.565  20.579  0.00  0.00    +0.000 A 
ATOM     12  S   UNL     1      47.130   9.155  21.139  0.00  0.00    +0.000 S 
ATOM     13  C   UNL     1      47.436   9.813  19.598  0.00  0.00    +0.000 A 
ATOM     14  N   UNL     1      47.341  11.150  19.362  0.00  0.00    +0.000 NA
ATOM     15  C   UNL     1      47.579  11.493  18.143  0.00  0.00    +0.000 A 
ATOM     16  N   UNL     1      47.906  10.632  17.131  0.00  0.00    +0.000 N 
ATOM     17  C   UNL     1      48.002   9.270  17.316  0.00  0.00    +0.000 A 
ATOM     18  O   UNL     1      48.308   8.528  16.388  0.00  0.00    +0.000 OA
ATOM     19  C   UNL     1      47.754   8.838  18.677  0.00  0.00    +0.000 A 
ATOM     20  H   UNL     1      48.088  10.959  16.196  0.00  0.00    +0.000 HD
ENDBRANCH   7  10
ENDBRANCH   5   6
ENDBRANCH   2   5
BRANCH   3  21
ATOM     21  C   UNL     1      47.926   6.080  14.241  0.00  0.00    +0.000 C 
BRANCH  21  22
ATOM     22  C   UNL     1      46.828   5.799  13.246  0.00  0.00    +0.000 A 
ATOM     23  C   UNL     1      46.836   6.431  11.996  0.00  0.00    +0.000 A 
ATOM     24  C   UNL     1      45.875   6.117  11.029  0.00  0.00    +0.000 A 
ATOM     25  C   UNL     1      44.864   5.179  11.294  0.00  0.00    +0.000 A 
ATOM     26  C   UNL     1      44.844   4.570  12.558  0.00  0.00    +0.000 A 
ATOM     27  C   UNL     1      45.805   4.888  13.529  0.00  0.00    +0.000 A 
BRANCH  25  28
ATOM     28  C   UNL     1      43.793   4.844  10.277  0.00  0.00    +0.000 C 
BRANCH  28  29
ATOM     29  N   UNL     1      44.297   4.253   9.053  0.00  0.00    +0.000 N 
ATOM     30  C   UNL     1      45.024   3.087   9.076  0.00  0.00    +0.000 C 
ATOM     31  O   UNL     1      45.337   2.510  10.117  0.00  0.00    +0.000 OA
ATOM     32  H   UNL     1      44.147   4.727   8.172  0.00  0.00    +0.000 HD
BRANCH  30  33
ATOM     33  C   UNL     1      45.433   2.579   7.695  0.00  0.00    +0.000 C 
ATOM     34  C   UNL     1      46.372   1.377   7.783  0.00  0.00    +0.000 C 
ATOM     35  C   UNL     1      47.179   1.387   6.488  0.00  0.00    +0.000 C 
ATOM     36  C   UNL     1      47.001   2.772   5.873  0.00  0.00    +0.000 C 
ATOM     37  C   UNL     1      46.262   3.598   6.915  0.00  0.00    +0.000 C 
ENDBRANCH  30  33
ENDBRANCH  28  29
ENDBRANCH  25  28
ENDBRANCH  21  22
ENDBRANCH   3  21
TORSDOF 8
ENDMDL
MODEL 7
REMARK VINA RESULT:    -7.664      3.742      4.927
REMARK INTER + INTRA:         -12.623
REMARK INTER:                 -10.785
REMARK INTRA:                  -1.838
REMARK UNBOUND:                -1.374
REMARK  Name = 
REMARK  8 active torsions:
REMARK  status: ('A' for Active; 'I' for Inactive)
REMARK    1  A    between atoms: C_2  and  C_3
REMARK    2  A    between atoms: C_3  and  N_4
REMARK    3  A    between atoms: C_5  and  C_7
REMARK    4  A    between atoms: N_17  and  C_18
REMARK    5  A    between atoms: C_18  and  C_19
REMARK    6  A    between atoms: C_22  and  C_23
REMARK    7  A    between atoms: C_23  and  N_24
REMARK    8  A    between atoms: C_25  and  C_27
REMARK                            x       y       z     vdW  Elec       q    Type
REMARK                         _______ _______ _______ _____ _____    ______ ____
ROOT
ATOM      1  O   UNL     1      48.060   4.085  18.354  0.00  0.00    +0.000 OA
ATOM      2  C   UNL     1      47.841   5.114  17.736  0.00  0.00    +0.000 C 
ATOM      3  N   UNL     1      47.608   5.144  16.379  0.00  0.00    +0.000 N 
ATOM      4  H   UNL     1      47.470   6.048  15.931  0.00  0.00    +0.000 HD
ENDROOT
BRANCH   2   5
ATOM      5  C   UNL     1      47.888   6.499  18.398  0.00  0.00    +0.000 C 
BRANCH   5   6
ATOM      6  N   UNL     1      48.287   7.538  17.477  0.00  0.00    +0.000 N 
ATOM      7  C   UNL     1      49.540   8.092  17.532  0.00  0.00    +0.000 C 
ATOM      8  O   UNL     1      50.385   7.715  18.341  0.00  0.00    +0.000 OA
ATOM      9  H   UNL     1      47.540   8.037  17.004  0.00  0.00    +0.000 HD
BRANCH   7  10
ATOM     10  C   UNL     1      49.831   9.119  16.534  0.00  0.00    +0.000 A 
ATOM     11  C   UNL     1      49.984  10.449  16.900  0.00  0.00    +0.000 A 
ATOM     12  S   UNL     1      50.338  11.472  15.577  0.00  0.00    +0.000 S 
ATOM     13  C   UNL     1      50.262  10.172  14.479  0.00  0.00    +0.000 A 
ATOM     14  N   UNL     1      50.445  10.357  13.143  0.00  0.00    +0.000 NA
ATOM     15  C   UNL     1      50.335   9.284  12.438  0.00  0.00    +0.000 A 
ATOM     16  N   UNL     1      50.060   8.038  12.935  0.00  0.00    +0.000 N 
ATOM     17  C   UNL     1      49.854   7.802  14.276  0.00  0.00    +0.000 A 
ATOM     18  O   UNL     1      49.620   6.671  14.689  0.00  0.00    +0.000 OA
ATOM     19  C   UNL     1      49.980   8.980  15.111  0.00  0.00    +0.000 A 
ATOM     20  H   UNL     1      49.991   7.233  12.335  0.00  0.00    +0.000 HD
ENDBRANCH   7  10
ENDBRANCH   5   6
ENDBRANCH   2   5
BRANCH   3  21
ATOM     21  C   UNL     1      47.524   3.958  15.560  0.00  0.00    +0.000 C 
BRANCH  21  22
ATOM     22  C   UNL     1      46.765   4.227  14.285  0.00  0.00    +0.000 A 
ATOM     23  C   UNL     1      46.378   3.162  13.461  0.00  0.00    +0.000 A 
ATOM     24  C   UNL     1      45.600   3.385  12.320  0.00  0.00    +0.000 A 
ATOM     25  C   UNL     1      45.205   4.683  11.958  0.00  0.00    +0.000 A 
ATOM     26  C   UNL     1      45.620   5.750  12.772  0.00  0.00    +0.000 A 
ATOM     27  C   UNL     1      46.404   5.526  13.912  0.00  0.00    +0.000 A 
BRANCH  25  28
ATOM     28  C   UNL     1      44.389   4.956  10.712  0.00  0.00    +0.000 C 
BRANCH  28  29
ATOM     29  N   UNL     1      44.618   4.018   9.632  0.00  0.00    +0.000 N 
ATOM     30  C   UNL     1      45.545   4.278   8.651  0.00  0.00    +0.000 C 
ATOM     31  O   UNL     1      46.189   5.326   8.595  0.00  0.00    +0.000 OA
ATOM     32  H   UNL     1      44.057   3.178   9.574  0.00  0.00    +0.000 HD
BRANCH  30  33
ATOM     33  C   UNL     1      45.692   3.162   7.619  0.00  0.00    +0.000 C 
ATOM     34  C   UNL     1      46.123   1.844   8.261  0.00  0.00    +0.000 C 
ATOM     35  C   UNL     1      46.833   1.062   7.159  0.00  0.00    +0.000 C 
ATOM     36  C   UNL     1      47.159   2.061   6.053  0.00  0.00    +0.000 C 
ATOM     37  C   UNL     1      46.812   3.431   6.616  0.00  0.00    +0.000 C 
ENDBRANCH  30  33
ENDBRANCH  28  29
ENDBRANCH  25  28
ENDBRANCH  21  22
ENDBRANCH   3  21
TORSDOF 8
ENDMDL
MODEL 8
REMARK VINA RESULT:    -7.613      2.422      3.566
REMARK INTER + INTRA:         -12.548
REMARK INTER:                 -11.537
REMARK INTRA:                  -1.011
REMARK UNBOUND:                -1.374
REMARK  Name = 
REMARK  8 active torsions:
REMARK  status: ('A' for Active; 'I' for Inactive)
REMARK    1  A    between atoms: C_2  and  C_3
REMARK    2  A    between atoms: C_3  and  N_4
REMARK    3  A    between atoms: C_5  and  C_7
REMARK    4  A    between atoms: N_17  and  C_18
REMARK    5  A    between atoms: C_18  and  C_19
REMARK    6  A    between atoms: C_22  and  C_23
REMARK    7  A    between atoms: C_23  and  N_24
REMARK    8  A    between atoms: C_25  and  C_27
REMARK                            x       y       z     vdW  Elec       q    Type
REMARK                         _______ _______ _______ _____ _____    ______ ____
ROOT
ATOM      1  O   UNL     1      48.835   9.469  12.865  0.00  0.00    +0.000 OA
ATOM      2  C   UNL     1      48.517   8.809  13.841  0.00  0.00    +0.000 C 
ATOM      3  N   UNL     1      47.251   8.302  14.028  0.00  0.00    +0.000 N 
ATOM      4  H   UNL     1      47.055   7.794  14.888  0.00  0.00    +0.000 HD
ENDROOT
BRANCH   2   5
ATOM      5  C   UNL     1      49.479   8.550  15.009  0.00  0.00    +0.000 C 
BRANCH   5   6
ATOM      6  N   UNL     1      49.506   7.161  15.404  0.00  0.00    +0.000 N 
ATOM      7  C   UNL     1      49.000   6.757  16.612  0.00  0.00    +0.000 C 
ATOM      8  O   UNL     1      48.477   7.545  17.397  0.00  0.00    +0.000 OA
ATOM      9  H   UNL     1      50.160   6.561  14.910  0.00  0.00    +0.000 HD
BRANCH   7  10
ATOM     10  C   UNL     1      49.066   5.323  16.888  0.00  0.00    +0.000 A 
ATOM     11  C   UNL     1      47.917   4.544  16.903  0.00  0.00    +0.000 A 
ATOM     12  S   UNL     1      48.230   2.895  17.229  0.00  0.00    +0.000 S 
ATOM     13  C   UNL     1      49.901   3.185  17.392  0.00  0.00    +0.000 A 
ATOM     14  N   UNL     1      50.770   2.186  17.704  0.00  0.00    +0.000 NA
ATOM     15  C   UNL     1      51.997   2.564  17.815  0.00  0.00    +0.000 A 
ATOM     16  N   UNL     1      52.446   3.846  17.645  0.00  0.00    +0.000 N 
ATOM     17  C   UNL     1      51.604   4.894  17.341  0.00  0.00    +0.000 A 
ATOM     18  O   UNL     1      52.042   6.029  17.184  0.00  0.00    +0.000 OA
ATOM     19  C   UNL     1      50.214   4.513  17.194  0.00  0.00    +0.000 A 
ATOM     20  H   UNL     1      53.420   4.083  17.739  0.00  0.00    +0.000 HD
ENDBRANCH   7  10
ENDBRANCH   5   6
ENDBRANCH   2   5
BRANCH   3  21
ATOM     21  C   UNL     1      46.190   8.432  13.058  0.00  0.00    +0.000 C 
BRANCH  21  22
ATOM     22  C   UNL     1      45.669   7.081  12.634  0.00  0.00    +0.000 A 
ATOM     23  C   UNL     1      44.491   6.989  11.882  0.00  0.00    +0.000 A 
ATOM     24  C   UNL     1      44.040   5.752  11.407  0.00  0.00    +0.000 A 
ATOM     25  C   UNL     1      44.742   4.570  11.691  0.00  0.00    +0.000 A 
ATOM     26  C   UNL     1      45.906   4.666  12.470  0.00  0.00    +0.000 A 
ATOM     27  C   UNL     1      46.356   5.904  12.949  0.00  0.00    +0.000 A 
BRANCH  25  28
ATOM     28  C   UNL     1      44.259   3.216  11.217  0.00  0.00    +0.000 C 
BRANCH  28  29
ATOM     29  N   UNL     1      44.938   2.721  10.035  0.00  0.00    +0.000 N 
ATOM     30  C   UNL     1      44.767   3.327   8.813  0.00  0.00    +0.000 C 
ATOM     31  O   UNL     1      44.000   4.274   8.634  0.00  0.00    +0.000 OA
ATOM     32  H   UNL     1      45.513   1.892  10.102  0.00  0.00    +0.000 HD
BRANCH  30  33
ATOM     33  C   UNL     1      45.593   2.707   7.688  0.00  0.00    +0.000 C 
ATOM     34  C   UNL     1      46.287   1.420   8.131  0.00  0.00    +0.000 C 
ATOM     35  C   UNL     1      47.509   1.278   7.228  0.00  0.00    +0.000 C 
ATOM     36  C   UNL     1      47.732   2.640   6.577  0.00  0.00    +0.000 C 
ATOM     37  C   UNL     1      46.763   3.592   7.262  0.00  0.00    +0.000 C 
ENDBRANCH  30  33
ENDBRANCH  28  29
ENDBRANCH  25  28
ENDBRANCH  21  22
ENDBRANCH   3  21
TORSDOF 8
ENDMDL
MODEL 9
REMARK VINA RESULT:    -7.606      4.260      6.223
REMARK INTER + INTRA:         -12.538
REMARK INTER:                 -11.883
REMARK INTRA:                  -0.655
REMARK UNBOUND:                -1.374
REMARK  Name = 
REMARK  8 active torsions:
REMARK  status: ('A' for Active; 'I' for Inactive)
REMARK    1  A    between atoms: C_2  and  C_3
REMARK    2  A    between atoms: C_3  and  N_4
REMARK    3  A    between atoms: C_5  and  C_7
REMARK    4  A    between atoms: N_17  and  C_18
REMARK    5  A    between atoms: C_18  and  C_19
REMARK    6  A    between atoms: C_22  and  C_23
REMARK    7  A    between atoms: C_23  and  N_24
REMARK    8  A    between atoms: C_25  and  C_27
REMARK                            x       y       z     vdW  Elec       q    Type
REMARK                         _______ _______ _______ _____ _____    ______ ____
ROOT
ATOM      1  O   UNL     1      49.365   4.853  16.467  0.00  0.00    +0.000 OA
ATOM      2  C   UNL     1      48.635   5.775  16.140  0.00  0.00    +0.000 C 
ATOM      3  N   UNL     1      47.465   5.598  15.435  0.00  0.00    +0.000 N 
ATOM      4  H   UNL     1      46.932   6.422  15.167  0.00  0.00    +0.000 HD
ENDROOT
BRANCH   2   5
ATOM      5  C   UNL     1      48.993   7.244  16.408  0.00  0.00    +0.000 C 
BRANCH   5   6
ATOM      6  N   UNL     1      48.503   8.129  15.376  0.00  0.00    +0.000 N 
ATOM      7  C   UNL     1      48.752   7.879  14.051  0.00  0.00    +0.000 C 
ATOM      8  O   UNL     1      49.372   6.885  13.680  0.00  0.00    +0.000 OA
ATOM      9  H   UNL     1      48.240   9.065  15.667  0.00  0.00    +0.000 HD
BRANCH   7  10
ATOM     10  C   UNL     1      48.186   8.835  13.101  0.00  0.00    +0.000 A 
ATOM     11  C   UNL     1      46.812   8.982  12.967  0.00  0.00    +0.000 A 
ATOM     12  S   UNL     1      46.374  10.166  11.814  0.00  0.00    +0.000 S 
ATOM     13  C   UNL     1      48.005  10.487  11.441  0.00  0.00    +0.000 A 
ATOM     14  N   UNL     1      48.352  11.399  10.492  0.00  0.00    +0.000 NA
ATOM     15  C   UNL     1      49.621  11.516  10.306  0.00  0.00    +0.000 A 
ATOM     16  N   UNL     1      50.585  10.811  10.976  0.00  0.00    +0.000 N 
ATOM     17  C   UNL     1      50.284   9.869  11.935  0.00  0.00    +0.000 A 
ATOM     18  O   UNL     1      51.173   9.264  12.524  0.00  0.00    +0.000 OA
ATOM     19  C   UNL     1      48.866   9.712  12.187  0.00  0.00    +0.000 A 
ATOM     20  H   UNL     1      51.565  10.948  10.792  0.00  0.00    +0.000 HD
ENDBRANCH   7  10
ENDBRANCH   5   6
ENDBRANCH   2   5
BRANCH   3  21
ATOM     21  C   UNL     1      46.943   4.302  15.074  0.00  0.00    +0.000 C 
BRANCH  21  22
ATOM     22  C   UNL     1      46.075   4.384  13.843  0.00  0.00    +0.000 A 
ATOM     23  C   UNL     1      45.490   5.603  13.478  0.00  0.00    +0.000 A 
ATOM     24  C   UNL     1      44.754   5.718  12.294  0.00  0.00    +0.000 A 
ATOM     25  C   UNL     1      44.563   4.610  11.452  0.00  0.00    +0.000 A 
ATOM     26  C   UNL     1      45.128   3.384  11.838  0.00  0.00    +0.000 A 
ATOM     27  C   UNL     1      45.862   3.268  13.027  0.00  0.00    +0.000 A 
BRANCH  25  28
ATOM     28  C   UNL     1      43.746   4.699  10.181  0.00  0.00    +0.000 C 
BRANCH  28  29
ATOM     29  N   UNL     1      44.200   3.826   9.117  0.00  0.00    +0.000 N 
ATOM     30  C   UNL     1      45.341   4.112   8.405  0.00  0.00    +0.000 C 
ATOM     31  O   UNL     1      46.006   5.133   8.581  0.00  0.00    +0.000 OA
ATOM     32  H   UNL     1      43.649   3.017   8.866  0.00  0.00    +0.000 HD
BRANCH  30  33
ATOM     33  C   UNL     1      45.700   3.063   7.355  0.00  0.00    +0.000 C 
ATOM     34  C   UNL     1      46.395   1.850   7.973  0.00  0.00    +0.000 C 
ATOM     35  C   UNL     1      47.238   1.243   6.855  0.00  0.00    +0.000 C 
ATOM     36  C   UNL     1      47.345   2.303   5.763  0.00  0.00    +0.000 C 
ATOM     37  C   UNL     1      46.734   3.567   6.349  0.00  0.00    +0.000 C 
ENDBRANCH  30  33
ENDBRANCH  28  29
ENDBRANCH  25  28
ENDBRANCH  21  22
ENDBRANCH   3  21
TORSDOF 8
ENDMDL
