MODEL 1
REMARK VINA RESULT:    -9.311      0.000      0.000
REMARK INTER + INTRA:         -12.763
REMARK INTER:                 -11.488
REMARK INTRA:                  -1.275
REMARK UNBOUND:                -1.275
REMARK  Name = 
REMARK  4 active torsions:
REMARK  status: ('A' for Active; 'I' for Inactive)
REMARK    1  A    between atoms: C_2  and  C_4
REMARK    2  A    between atoms: N_8  and  C_9
REMARK    3  A    between atoms: C_9  and  C_10
REMARK    4  A    between atoms: C_14  and  C_15
REMARK                            x       y       z     vdW  Elec       q    Type
REMARK                         _______ _______ _______ _____ _____    ______ ____
ROOT
ATOM      1  C   UNL     1      43.807   4.908  11.379  0.00  0.00    +0.000 C 
ATOM      2  C   UNL     1      42.432   5.177  11.970  0.00  0.00    +0.000 C 
ATOM      3  C   UNL     1      43.050   6.180  11.055  0.00  0.00    +0.000 C 
ENDROOT
BRANCH   1   8
ATOM      4  C   UNL     1      46.588   2.774   7.508  0.00  0.00    +0.000 A 
ATOM      5  C   UNL     1      46.248   4.109   7.686  0.00  0.00    +0.000 A 
ATOM      6  C   UNL     1      45.362   4.459   8.711  0.00  0.00    +0.000 A 
ATOM      7  C   UNL     1      44.832   3.471   9.530  0.00  0.00    +0.000 A 
ATOM      8  N   UNL     1      43.857   3.720  10.503  0.00  0.00    +0.000 N 
ATOM      9  N   UNL     1      45.158   2.168   9.359  0.00  0.00    +0.000 NA
ATOM     10  C   UNL     1      46.012   1.845   8.359  0.00  0.00    +0.000 A 
ATOM     11  H   UNL     1      43.735   2.828  10.982  0.00  0.00    +0.000 HD
BRANCH   4  13
ATOM     12  N   UNL     1      47.430   2.969   5.238  0.00  0.00    +0.000 N 
ATOM     13  C   UNL     1      47.498   2.308   6.430  0.00  0.00    +0.000 C 
ATOM     14  O   UNL     1      48.279   1.384   6.609  0.00  0.00    +0.000 OA
ATOM     15  H   UNL     1      48.104   2.701   4.535  0.00  0.00    +0.000 HD
ATOM     16  H   UNL     1      46.986   3.871   5.136  0.00  0.00    +0.000 HD
ENDBRANCH   4  13
ENDBRANCH   1   8
BRANCH   1  17
ATOM     17  C   UNL     1      45.048   5.035  12.253  0.00  0.00    +0.000 A 
ATOM     18  C   UNL     1      45.558   3.968  13.006  0.00  0.00    +0.000 A 
ATOM     19  C   UNL     1      46.793   4.067  13.645  0.00  0.00    +0.000 A 
ATOM     20  C   UNL     1      47.559   5.226  13.516  0.00  0.00    +0.000 A 
ATOM     21  C   UNL     1      47.097   6.319  12.764  0.00  0.00    +0.000 A 
ATOM     22  C   UNL     1      45.815   6.213  12.197  0.00  0.00    +0.000 A 
BRANCH  21  23
ATOM     23  C   UNL     1      47.966   7.464  12.412  0.00  0.00    +0.000 A 
ATOM     24  C   UNL     1      49.321   7.256  12.095  0.00  0.00    +0.000 A 
ATOM     25  C   UNL     1      50.109   8.291  11.597  0.00  0.00    +0.000 A 
ATOM     26  F   UNL     1      51.384   8.044  11.275  0.00  0.00    +0.000 F 
ATOM     27  C   UNL     1      49.585   9.558  11.398  0.00  0.00    +0.000 A 
ATOM     28  C   UNL     1      48.260   9.782  11.730  0.00  0.00    +0.000 A 
ATOM     29  F   UNL     1      47.727  10.994  11.521  0.00  0.00    +0.000 F 
ATOM     30  C   UNL     1      47.458   8.764  12.245  0.00  0.00    +0.000 A 
ENDBRANCH  21  23
ENDBRANCH   1  17
TORSDOF 4
ENDMDL
MODEL 2
REMARK VINA RESULT:    -9.261      2.732      3.953
REMARK INTER + INTRA:         -12.702
REMARK INTER:                 -12.017
REMARK INTRA:                  -0.685
REMARK UNBOUND:                -1.275
REMARK  Name = 
REMARK  4 active torsions:
REMARK  status: ('A' for Active; 'I' for Inactive)
REMARK    1  A    between atoms: C_2  and  C_4
REMARK    2  A    between atoms: N_8  and  C_9
REMARK    3  A    between atoms: C_9  and  C_10
REMARK    4  A    between atoms: C_14  and  C_15
REMARK                            x       y       z     vdW  Elec       q    Type
REMARK                         _______ _______ _______ _____ _____    ______ ____
ROOT
ATOM      1  C   UNL     1      43.981   4.970  11.497  0.00  0.00    +0.000 C 
ATOM      2  C   UNL     1      42.857   5.030  12.519  0.00  0.00    +0.000 C 
ATOM      3  C   UNL     1      42.901   6.030  11.413  0.00  0.00    +0.000 C 
ENDROOT
BRANCH   1   8
ATOM      4  C   UNL     1      46.430   2.697   7.484  0.00  0.00    +0.000 A 
ATOM      5  C   UNL     1      46.045   4.025   7.614  0.00  0.00    +0.000 A 
ATOM      6  C   UNL     1      45.259   4.406   8.706  0.00  0.00    +0.000 A 
ATOM      7  C   UNL     1      44.871   3.456   9.641  0.00  0.00    +0.000 A 
ATOM      8  N   UNL     1      43.996   3.728  10.698  0.00  0.00    +0.000 N 
ATOM      9  N   UNL     1      45.241   2.159   9.518  0.00  0.00    +0.000 NA
ATOM     10  C   UNL     1      45.997   1.804   8.451  0.00  0.00    +0.000 A 
ATOM     11  H   UNL     1      43.972   2.867  11.243  0.00  0.00    +0.000 HD
BRANCH   4  13
ATOM     12  N   UNL     1      47.276   2.978   5.225  0.00  0.00    +0.000 N 
ATOM     13  C   UNL     1      47.240   2.197   6.343  0.00  0.00    +0.000 C 
ATOM     14  O   UNL     1      47.855   1.142   6.410  0.00  0.00    +0.000 OA
ATOM     15  H   UNL     1      47.890   2.674   4.482  0.00  0.00    +0.000 HD
ATOM     16  H   UNL     1      46.991   3.947   5.223  0.00  0.00    +0.000 HD
ENDBRANCH   4  13
ENDBRANCH   1   8
BRANCH   1  17
ATOM     17  C   UNL     1      45.383   5.428  11.881  0.00  0.00    +0.000 A 
ATOM     18  C   UNL     1      46.052   6.464  11.214  0.00  0.00    +0.000 A 
ATOM     19  C   UNL     1      47.250   6.979  11.708  0.00  0.00    +0.000 A 
ATOM     20  C   UNL     1      47.787   6.488  12.898  0.00  0.00    +0.000 A 
ATOM     21  C   UNL     1      47.149   5.458  13.609  0.00  0.00    +0.000 A 
ATOM     22  C   UNL     1      45.984   4.911  13.043  0.00  0.00    +0.000 A 
BRANCH  21  23
ATOM     23  C   UNL     1      47.554   5.071  14.980  0.00  0.00    +0.000 A 
ATOM     24  C   UNL     1      48.363   5.927  15.749  0.00  0.00    +0.000 A 
ATOM     25  C   UNL     1      48.612   5.663  17.094  0.00  0.00    +0.000 A 
ATOM     26  F   UNL     1      49.360   6.519  17.800  0.00  0.00    +0.000 F 
ATOM     27  C   UNL     1      48.070   4.551  17.717  0.00  0.00    +0.000 A 
ATOM     28  C   UNL     1      47.294   3.687  16.965  0.00  0.00    +0.000 A 
ATOM     29  F   UNL     1      46.739   2.619  17.556  0.00  0.00    +0.000 F 
ATOM     30  C   UNL     1      47.045   3.924  15.613  0.00  0.00    +0.000 A 
ENDBRANCH  21  23
ENDBRANCH   1  17
TORSDOF 4
ENDMDL
MODEL 3
REMARK VINA RESULT:    -7.776      4.852      8.128
REMARK INTER + INTRA:         -10.870
REMARK INTER:                 -10.909
REMARK INTRA:                   0.039
REMARK UNBOUND:                -1.275
REMARK  Name = 
REMARK  4 active torsions:
REMARK  status: ('A' for Active; 'I' for Inactive)
REMARK    1  A    between atoms: C_2  and  C_4
REMARK    2  A    between atoms: N_8  and  C_9
REMARK    3  A    between atoms: C_9  and  C_10
REMARK    4  A    between atoms: C_14  and  C_15
REMARK                            x       y       z     vdW  Elec       q    Type
REMARK                         _______ _______ _______ _____ _____    ______ ____
ROOT
ATOM      1  C   UNL     1      46.508   5.528  12.944  0.00  0.00    +0.000 C 
ATOM      2  C   UNL     1      47.625   6.447  12.475  0.00  0.00    +0.000 C 
ATOM      3  C   UNL     1      46.523   6.997  13.315  0.00  0.00    +0.000 C 
ENDROOT
BRANCH   1   8
ATOM      4  C   UNL     1      48.228   4.625  17.791  0.00  0.00    +0.000 A 
ATOM      5  C   UNL     1      48.539   5.689  16.954  0.00  0.00    +0.000 A 
ATOM      6  C   UNL     1      48.093   5.670  15.628  0.00  0.00    +0.000 A 
ATOM      7  C   UNL     1      47.353   4.590  15.165  0.00  0.00    +0.000 A 
ATOM      8  N   UNL     1      46.966   4.438  13.829  0.00  0.00    +0.000 N 
ATOM      9  N   UNL     1      47.050   3.548  15.976  0.00  0.00    +0.000 NA
ATOM     10  C   UNL     1      47.494   3.579  17.255  0.00  0.00    +0.000 A 
ATOM     11  H   UNL     1      46.379   3.604  13.823  0.00  0.00    +0.000 HD
BRANCH   4  13
ATOM     12  N   UNL     1      48.311   3.439  19.909  0.00  0.00    +0.000 N 
ATOM     13  C   UNL     1      48.682   4.547  19.204  0.00  0.00    +0.000 C 
ATOM     14  O   UNL     1      49.367   5.428  19.704  0.00  0.00    +0.000 OA
ATOM     15  H   UNL     1      48.686   3.352  20.842  0.00  0.00    +0.000 HD
ATOM     16  H   UNL     1      47.965   2.598  19.467  0.00  0.00    +0.000 HD
ENDBRANCH   4  13
ENDBRANCH   1   8
BRANCH   1  17
ATOM     17  C   UNL     1      45.442   5.065  11.959  0.00  0.00    +0.000 A 
ATOM     18  C   UNL     1      44.167   5.646  11.893  0.00  0.00    +0.000 A 
ATOM     19  C   UNL     1      43.285   5.326  10.863  0.00  0.00    +0.000 A 
ATOM     20  C   UNL     1      43.674   4.441   9.857  0.00  0.00    +0.000 A 
ATOM     21  C   UNL     1      44.944   3.841   9.871  0.00  0.00    +0.000 A 
ATOM     22  C   UNL     1      45.777   4.128  10.965  0.00  0.00    +0.000 A 
BRANCH  21  23
ATOM     23  C   UNL     1      45.478   3.086   8.716  0.00  0.00    +0.000 A 
ATOM     24  C   UNL     1      45.889   3.764   7.553  0.00  0.00    +0.000 A 
ATOM     25  C   UNL     1      46.550   3.093   6.527  0.00  0.00    +0.000 A 
ATOM     26  F   UNL     1      46.955   3.781   5.452  0.00  0.00    +0.000 F 
ATOM     27  C   UNL     1      46.826   1.739   6.618  0.00  0.00    +0.000 A 
ATOM     28  C   UNL     1      46.404   1.055   7.744  0.00  0.00    +0.000 A 
ATOM     29  F   UNL     1      46.684  -0.251   7.863  0.00  0.00    +0.000 F 
ATOM     30  C   UNL     1      45.727   1.703   8.777  0.00  0.00    +0.000 A 
ENDBRANCH  21  23
ENDBRANCH   1  17
TORSDOF 4
ENDMDL
MODEL 4
REMARK VINA RESULT:    -7.771      4.115      7.143
REMARK INTER + INTRA:         -10.864
REMARK INTER:                  -9.787
REMARK INTRA:                  -1.077
REMARK UNBOUND:                -1.275
REMARK  Name = 
REMARK  4 active torsions:
REMARK  status: ('A' for Active; 'I' for Inactive)
REMARK    1  A    between atoms: C_2  and  C_4
REMARK    2  A    between atoms: N_8  and  C_9
REMARK    3  A    between atoms: C_9  and  C_10
REMARK    4  A    between atoms: C_14  and  C_15
REMARK                            x       y       z     vdW  Elec       q    Type
REMARK                         _______ _______ _______ _____ _____    ______ ____
ROOT
ATOM      1  C   UNL     1      46.176   5.170  13.338  0.00  0.00    +0.000 C 
ATOM      2  C   UNL     1      46.258   4.303  14.584  0.00  0.00    +0.000 C 
ATOM      3  C   UNL     1      47.325   4.204  13.547  0.00  0.00    +0.000 C 
ENDROOT
BRANCH   1   8
ATOM      4  C   UNL     1      48.304   9.596  11.562  0.00  0.00    +0.000 A 
ATOM      5  C   UNL     1      48.887   8.338  11.650  0.00  0.00    +0.000 A 
ATOM      6  C   UNL     1      48.198   7.309  12.301  0.00  0.00    +0.000 A 
ATOM      7  C   UNL     1      46.949   7.557  12.852  0.00  0.00    +0.000 A 
ATOM      8  N   UNL     1      46.243   6.619  13.615  0.00  0.00    +0.000 N 
ATOM      9  N   UNL     1      46.377   8.782  12.772  0.00  0.00    +0.000 NA
ATOM     10  C   UNL     1      47.059   9.770  12.143  0.00  0.00    +0.000 A 
ATOM     11  H   UNL     1      45.345   7.062  13.805  0.00  0.00    +0.000 HD
BRANCH   4  13
ATOM     12  N   UNL     1      50.287  10.956  11.220  0.00  0.00    +0.000 N 
ATOM     13  C   UNL     1      48.973  10.754  10.914  0.00  0.00    +0.000 C 
ATOM     14  O   UNL     1      48.375  11.482  10.134  0.00  0.00    +0.000 OA
ATOM     15  H   UNL     1      50.759  11.695  10.719  0.00  0.00    +0.000 HD
ATOM     16  H   UNL     1      50.864  10.249  11.656  0.00  0.00    +0.000 HD
ENDBRANCH   4  13
ENDBRANCH   1   8
BRANCH   1  17
ATOM     17  C   UNL     1      45.170   4.835  12.244  0.00  0.00    +0.000 A 
ATOM     18  C   UNL     1      43.926   5.474  12.137  0.00  0.00    +0.000 A 
ATOM     19  C   UNL     1      43.112   5.276  11.023  0.00  0.00    +0.000 A 
ATOM     20  C   UNL     1      43.543   4.460   9.976  0.00  0.00    +0.000 A 
ATOM     21  C   UNL     1      44.785   3.807  10.031  0.00  0.00    +0.000 A 
ATOM     22  C   UNL     1      45.545   3.968  11.202  0.00  0.00    +0.000 A 
BRANCH  21  23
ATOM     23  C   UNL     1      45.376   3.126   8.856  0.00  0.00    +0.000 A 
ATOM     24  C   UNL     1      45.776   3.871   7.731  0.00  0.00    +0.000 A 
ATOM     25  C   UNL     1      46.488   3.275   6.693  0.00  0.00    +0.000 A 
ATOM     26  F   UNL     1      46.881   4.025   5.656  0.00  0.00    +0.000 F 
ATOM     27  C   UNL     1      46.826   1.933   6.734  0.00  0.00    +0.000 A 
ATOM     28  C   UNL     1      46.416   1.184   7.823  0.00  0.00    +0.000 A 
ATOM     29  F   UNL     1      46.755  -0.112   7.894  0.00  0.00    +0.000 F 
ATOM     30  C   UNL     1      45.689   1.756   8.866  0.00  0.00    +0.000 A 
ENDBRANCH  21  23
ENDBRANCH   1  17
TORSDOF 4
ENDMDL
MODEL 5
REMARK VINA RESULT:    -7.433      5.092      8.249
REMARK INTER + INTRA:         -10.446
REMARK INTER:                  -9.347
REMARK INTRA:                  -1.099
REMARK UNBOUND:                -1.275
REMARK  Name = 
REMARK  4 active torsions:
REMARK  status: ('A' for Active; 'I' for Inactive)
REMARK    1  A    between atoms: C_2  and  C_4
REMARK    2  A    between atoms: N_8  and  C_9
REMARK    3  A    between atoms: C_9  and  C_10
REMARK    4  A    between atoms: C_14  and  C_15
REMARK                            x       y       z     vdW  Elec       q    Type
REMARK                         _______ _______ _______ _____ _____    ______ ____
ROOT
ATOM      1  C   UNL     1      48.970   7.902  12.586  0.00  0.00    +0.000 C 
ATOM      2  C   UNL     1      49.916   8.036  11.403  0.00  0.00    +0.000 C 
ATOM      3  C   UNL     1      49.647   9.221  12.268  0.00  0.00    +0.000 C 
ENDROOT
BRANCH   1   8
ATOM      4  C   UNL     1      48.464   6.776  17.659  0.00  0.00    +0.000 A 
ATOM      5  C   UNL     1      48.559   8.027  17.063  0.00  0.00    +0.000 A 
ATOM      6  C   UNL     1      48.846   8.113  15.696  0.00  0.00    +0.000 A 
ATOM      7  C   UNL     1      49.036   6.953  14.957  0.00  0.00    +0.000 A 
ATOM      8  N   UNL     1      49.435   6.952  13.616  0.00  0.00    +0.000 N 
ATOM      9  N   UNL     1      48.947   5.731  15.534  0.00  0.00    +0.000 NA
ATOM     10  C   UNL     1      48.675   5.664  16.860  0.00  0.00    +0.000 A 
ATOM     11  H   UNL     1      49.409   5.971  13.339  0.00  0.00    +0.000 HD
BRANCH   4  13
ATOM     12  N   UNL     1      47.250   5.657  19.441  0.00  0.00    +0.000 N 
ATOM     13  C   UNL     1      48.191   6.588  19.108  0.00  0.00    +0.000 C 
ATOM     14  O   UNL     1      48.791   7.229  19.959  0.00  0.00    +0.000 OA
ATOM     15  H   UNL     1      47.124   5.476  20.427  0.00  0.00    +0.000 HD
ATOM     16  H   UNL     1      46.922   4.953  18.794  0.00  0.00    +0.000 HD
ENDBRANCH   4  13
ENDBRANCH   1   8
BRANCH   1  17
ATOM     17  C   UNL     1      47.468   7.812  12.350  0.00  0.00    +0.000 A 
ATOM     18  C   UNL     1      46.612   8.916  12.480  0.00  0.00    +0.000 A 
ATOM     19  C   UNL     1      45.279   8.841  12.080  0.00  0.00    +0.000 A 
ATOM     20  C   UNL     1      44.783   7.668  11.509  0.00  0.00    +0.000 A 
ATOM     21  C   UNL     1      45.602   6.539  11.347  0.00  0.00    +0.000 A 
ATOM     22  C   UNL     1      46.918   6.625  11.832  0.00  0.00    +0.000 A 
BRANCH  21  23
ATOM     23  C   UNL     1      45.188   5.366  10.545  0.00  0.00    +0.000 A 
ATOM     24  C   UNL     1      45.687   5.185   9.242  0.00  0.00    +0.000 A 
ATOM     25  C   UNL     1      45.447   4.008   8.538  0.00  0.00    +0.000 A 
ATOM     26  F   UNL     1      45.968   3.860   7.314  0.00  0.00    +0.000 F 
ATOM     27  C   UNL     1      44.710   2.977   9.098  0.00  0.00    +0.000 A 
ATOM     28  C   UNL     1      44.191   3.153  10.368  0.00  0.00    +0.000 A 
ATOM     29  F   UNL     1      43.496   2.157  10.938  0.00  0.00    +0.000 F 
ATOM     30  C   UNL     1      44.406   4.330  11.085  0.00  0.00    +0.000 A 
ENDBRANCH  21  23
ENDBRANCH   1  17
TORSDOF 4
ENDMDL
MODEL 6
REMARK VINA RESULT:    -7.162      4.526      7.527
REMARK INTER + INTRA:         -10.111
REMARK INTER:                  -9.956
REMARK INTRA:                  -0.155
REMARK UNBOUND:                -1.275
REMARK  Name = 
REMARK  4 active torsions:
REMARK  status: ('A' for Active; 'I' for Inactive)
REMARK    1  A    between atoms: C_2  and  C_4
REMARK    2  A    between atoms: N_8  and  C_9
REMARK    3  A    between atoms: C_9  and  C_10
REMARK    4  A    between atoms: C_14  and  C_15
REMARK                            x       y       z     vdW  Elec       q    Type
REMARK                         _______ _______ _______ _____ _____    ______ ____
ROOT
ATOM      1  C   UNL     1      48.314   7.729  12.716  0.00  0.00    +0.000 C 
ATOM      2  C   UNL     1      49.504   7.194  11.935  0.00  0.00    +0.000 C 
ATOM      3  C   UNL     1      49.159   8.643  11.852  0.00  0.00    +0.000 C 
ENDROOT
BRANCH   1   8
ATOM      4  C   UNL     1      47.970   4.231  16.578  0.00  0.00    +0.000 A 
ATOM      5  C   UNL     1      47.146   4.369  15.468  0.00  0.00    +0.000 A 
ATOM      6  C   UNL     1      47.314   5.471  14.624  0.00  0.00    +0.000 A 
ATOM      7  C   UNL     1      48.294   6.413  14.906  0.00  0.00    +0.000 A 
ATOM      8  N   UNL     1      48.455   7.598  14.180  0.00  0.00    +0.000 N 
ATOM      9  N   UNL     1      49.098   6.285  15.988  0.00  0.00    +0.000 NA
ATOM     10  C   UNL     1      48.919   5.215  16.800  0.00  0.00    +0.000 A 
ATOM     11  H   UNL     1      49.291   8.030  14.571  0.00  0.00    +0.000 HD
BRANCH   4  13
ATOM     12  N   UNL     1      48.967   2.779  18.250  0.00  0.00    +0.000 N 
ATOM     13  C   UNL     1      47.846   3.109  17.544  0.00  0.00    +0.000 C 
ATOM     14  O   UNL     1      46.787   2.520  17.707  0.00  0.00    +0.000 OA
ATOM     15  H   UNL     1      48.859   2.070  18.961  0.00  0.00    +0.000 HD
ATOM     16  H   UNL     1      49.770   3.388  18.320  0.00  0.00    +0.000 HD
ENDBRANCH   4  13
ENDBRANCH   1   8
BRANCH   1  17
ATOM     17  C   UNL     1      46.897   7.430  12.241  0.00  0.00    +0.000 A 
ATOM     18  C   UNL     1      45.846   8.349  12.365  0.00  0.00    +0.000 A 
ATOM     19  C   UNL     1      44.614   8.116  11.756  0.00  0.00    +0.000 A 
ATOM     20  C   UNL     1      44.419   6.971  10.982  0.00  0.00    +0.000 A 
ATOM     21  C   UNL     1      45.445   6.026  10.818  0.00  0.00    +0.000 A 
ATOM     22  C   UNL     1      46.647   6.255  11.508  0.00  0.00    +0.000 A 
BRANCH  21  23
ATOM     23  C   UNL     1      45.360   4.928   9.829  0.00  0.00    +0.000 A 
ATOM     24  C   UNL     1      46.069   5.009   8.616  0.00  0.00    +0.000 A 
ATOM     25  C   UNL     1      46.141   3.918   7.753  0.00  0.00    +0.000 A 
ATOM     26  F   UNL     1      46.854   4.024   6.625  0.00  0.00    +0.000 F 
ATOM     27  C   UNL     1      45.519   2.719   8.060  0.00  0.00    +0.000 A 
ATOM     28  C   UNL     1      44.797   2.635   9.237  0.00  0.00    +0.000 A 
ATOM     29  F   UNL     1      44.208   1.476   9.565  0.00  0.00    +0.000 F 
ATOM     30  C   UNL     1      44.699   3.719  10.109  0.00  0.00    +0.000 A 
ENDBRANCH  21  23
ENDBRANCH   1  17
TORSDOF 4
ENDMDL
MODEL 7
REMARK VINA RESULT:    -6.900      4.141      6.346
REMARK INTER + INTRA:          -9.788
REMARK INTER:                  -9.299
REMARK INTRA:                  -0.489
REMARK UNBOUND:                -1.275
REMARK  Name = 
REMARK  4 active torsions:
REMARK  status: ('A' for Active; 'I' for Inactive)
REMARK    1  A    between atoms: C_2  and  C_4
REMARK    2  A    between atoms: N_8  and  C_9
REMARK    3  A    between atoms: C_9  and  C_10
REMARK    4  A    between atoms: C_14  and  C_15
REMARK                            x       y       z     vdW  Elec       q    Type
REMARK                         _______ _______ _______ _____ _____    ______ ____
ROOT
ATOM      1  C   UNL     1      47.468   8.361  13.243  0.00  0.00    +0.000 C 
ATOM      2  C   UNL     1      47.645   9.610  12.394  0.00  0.00    +0.000 C 
ATOM      3  C   UNL     1      48.371   8.360  12.026  0.00  0.00    +0.000 C 
ENDROOT
BRANCH   1   8
ATOM      4  C   UNL     1      44.511   4.502  11.339  0.00  0.00    +0.000 A 
ATOM      5  C   UNL     1      45.506   5.222  10.690  0.00  0.00    +0.000 A 
ATOM      6  C   UNL     1      46.080   6.326  11.329  0.00  0.00    +0.000 A 
ATOM      7  C   UNL     1      45.647   6.690  12.597  0.00  0.00    +0.000 A 
ATOM      8  N   UNL     1      46.086   7.842  13.259  0.00  0.00    +0.000 N 
ATOM      9  N   UNL     1      44.675   5.994  13.233  0.00  0.00    +0.000 NA
ATOM     10  C   UNL     1      44.125   4.931  12.599  0.00  0.00    +0.000 A 
ATOM     11  H   UNL     1      45.657   7.790  14.182  0.00  0.00    +0.000 HD
BRANCH   4  13
ATOM     12  N   UNL     1      44.144   3.044   9.432  0.00  0.00    +0.000 N 
ATOM     13  C   UNL     1      43.827   3.333  10.727  0.00  0.00    +0.000 C 
ATOM     14  O   UNL     1      43.028   2.658  11.360  0.00  0.00    +0.000 OA
ATOM     15  H   UNL     1      43.737   2.204   9.045  0.00  0.00    +0.000 HD
ATOM     16  H   UNL     1      44.961   3.419   8.969  0.00  0.00    +0.000 HD
ENDBRANCH   4  13
ENDBRANCH   1   8
BRANCH   1  17
ATOM     17  C   UNL     1      48.136   8.271  14.609  0.00  0.00    +0.000 A 
ATOM     18  C   UNL     1      48.240   9.369  15.477  0.00  0.00    +0.000 A 
ATOM     19  C   UNL     1      48.689   9.207  16.787  0.00  0.00    +0.000 A 
ATOM     20  C   UNL     1      49.013   7.937  17.266  0.00  0.00    +0.000 A 
ATOM     21  C   UNL     1      48.915   6.805  16.440  0.00  0.00    +0.000 A 
ATOM     22  C   UNL     1      48.533   7.016  15.104  0.00  0.00    +0.000 A 
BRANCH  21  23
ATOM     23  C   UNL     1      49.024   5.427  16.967  0.00  0.00    +0.000 A 
ATOM     24  C   UNL     1      47.871   4.637  17.133  0.00  0.00    +0.000 A 
ATOM     25  C   UNL     1      47.966   3.287  17.463  0.00  0.00    +0.000 A 
ATOM     26  F   UNL     1      46.847   2.562  17.578  0.00  0.00    +0.000 F 
ATOM     27  C   UNL     1      49.198   2.678  17.637  0.00  0.00    +0.000 A 
ATOM     28  C   UNL     1      50.339   3.450  17.502  0.00  0.00    +0.000 A 
ATOM     29  F   UNL     1      51.542   2.873  17.642  0.00  0.00    +0.000 F 
ATOM     30  C   UNL     1      50.266   4.806  17.188  0.00  0.00    +0.000 A 
ENDBRANCH  21  23
ENDBRANCH   1  17
TORSDOF 4
ENDMDL
MODEL 8
REMARK VINA RESULT:    -6.870      4.471      6.991
REMARK INTER + INTRA:          -9.752
REMARK INTER:                  -8.485
REMARK INTRA:                  -1.266
REMARK UNBOUND:                -1.275
REMARK  Name = 
REMARK  4 active torsions:
REMARK  status: ('A' for Active; 'I' for Inactive)
REMARK    1  A    between atoms: C_2  and  C_4
REMARK    2  A    between atoms: N_8  and  C_9
REMARK    3  A    between atoms: C_9  and  C_10
REMARK    4  A    between atoms: C_14  and  C_15
REMARK                            x       y       z     vdW  Elec       q    Type
REMARK                         _______ _______ _______ _____ _____    ______ ____
ROOT
ATOM      1  C   UNL     1      49.023   8.318  12.785  0.00  0.00    +0.000 C 
ATOM      2  C   UNL     1      49.916   9.296  12.039  0.00  0.00    +0.000 C 
ATOM      3  C   UNL     1      50.288   7.853  12.091  0.00  0.00    +0.000 C 
ENDROOT
BRANCH   1   8
ATOM      4  C   UNL     1      44.827   5.209  12.802  0.00  0.00    +0.000 A 
ATOM      5  C   UNL     1      46.167   4.843  12.775  0.00  0.00    +0.000 A 
ATOM      6  C   UNL     1      47.144   5.832  12.619  0.00  0.00    +0.000 A 
ATOM      7  C   UNL     1      46.764   7.161  12.488  0.00  0.00    +0.000 A 
ATOM      8  N   UNL     1      47.666   8.197  12.217  0.00  0.00    +0.000 N 
ATOM      9  N   UNL     1      45.459   7.523  12.511  0.00  0.00    +0.000 NA
ATOM     10  C   UNL     1      44.525   6.553  12.658  0.00  0.00    +0.000 A 
ATOM     11  H   UNL     1      47.105   9.047  12.260  0.00  0.00    +0.000 HD
BRANCH   4  13
ATOM     12  N   UNL     1      44.010   2.929  12.621  0.00  0.00    +0.000 N 
ATOM     13  C   UNL     1      43.722   4.225  12.937  0.00  0.00    +0.000 C 
ATOM     14  O   UNL     1      42.612   4.561  13.324  0.00  0.00    +0.000 OA
ATOM     15  H   UNL     1      43.280   2.251  12.789  0.00  0.00    +0.000 HD
ATOM     16  H   UNL     1      44.956   2.582  12.538  0.00  0.00    +0.000 HD
ENDBRANCH   4  13
ENDBRANCH   1   8
BRANCH   1  17
ATOM     17  C   UNL     1      49.017   8.305  14.309  0.00  0.00    +0.000 A 
ATOM     18  C   UNL     1      48.530   9.376  15.074  0.00  0.00    +0.000 A 
ATOM     19  C   UNL     1      48.369   9.256  16.453  0.00  0.00    +0.000 A 
ATOM     20  C   UNL     1      48.661   8.050  17.091  0.00  0.00    +0.000 A 
ATOM     21  C   UNL     1      49.140   6.946  16.368  0.00  0.00    +0.000 A 
ATOM     22  C   UNL     1      49.363   7.126  14.993  0.00  0.00    +0.000 A 
BRANCH  21  23
ATOM     23  C   UNL     1      49.241   5.593  16.960  0.00  0.00    +0.000 A 
ATOM     24  C   UNL     1      48.113   4.753  17.008  0.00  0.00    +0.000 A 
ATOM     25  C   UNL     1      48.225   3.421  17.401  0.00  0.00    +0.000 A 
ATOM     26  F   UNL     1      47.134   2.646  17.400  0.00  0.00    +0.000 F 
ATOM     27  C   UNL     1      49.450   2.881  17.756  0.00  0.00    +0.000 A 
ATOM     28  C   UNL     1      50.562   3.703  17.738  0.00  0.00    +0.000 A 
ATOM     29  F   UNL     1      51.761   3.192  18.054  0.00  0.00    +0.000 F 
ATOM     30  C   UNL     1      50.470   5.043  17.363  0.00  0.00    +0.000 A 
ENDBRANCH  21  23
ENDBRANCH   1  17
TORSDOF 4
ENDMDL
MODEL 9
REMARK VINA RESULT:    -6.653      1.514      2.640
REMARK INTER + INTRA:          -9.484
REMARK INTER:                  -9.444
REMARK INTRA:                  -0.040
REMARK UNBOUND:                -1.275
REMARK  Name = 
REMARK  4 active torsions:
REMARK  status: ('A' for Active; 'I' for Inactive)
REMARK    1  A    between atoms: C_2  and  C_4
REMARK    2  A    between atoms: N_8  and  C_9
REMARK    3  A    between atoms: C_9  and  C_10
REMARK    4  A    between atoms: C_14  and  C_15
REMARK                            x       y       z     vdW  Elec       q    Type
REMARK                         _______ _______ _______ _____ _____    ______ ____
ROOT
ATOM      1  C   UNL     1      44.059   3.978  11.836  0.00  0.00    +0.000 C 
ATOM      2  C   UNL     1      44.845   3.304  12.949  0.00  0.00    +0.000 C 
ATOM      3  C   UNL     1      43.406   3.637  13.160  0.00  0.00    +0.000 C 
ENDROOT
BRANCH   1   8
ATOM      4  C   UNL     1      46.485   2.967   7.323  0.00  0.00    +0.000 A 
ATOM      5  C   UNL     1      46.327   4.193   7.958  0.00  0.00    +0.000 A 
ATOM      6  C   UNL     1      45.508   4.278   9.089  0.00  0.00    +0.000 A 
ATOM      7  C   UNL     1      44.862   3.143   9.558  0.00  0.00    +0.000 A 
ATOM      8  N   UNL     1      43.940   3.162  10.611  0.00  0.00    +0.000 N 
ATOM      9  N   UNL     1      45.009   1.946   8.942  0.00  0.00    +0.000 NA
ATOM     10  C   UNL     1      45.801   1.881   7.845  0.00  0.00    +0.000 A 
ATOM     11  H   UNL     1      43.707   2.182  10.769  0.00  0.00    +0.000 HD
BRANCH   4  13
ATOM     12  N   UNL     1      48.631   2.493   6.290  0.00  0.00    +0.000 N 
ATOM     13  C   UNL     1      47.312   2.788   6.102  0.00  0.00    +0.000 C 
ATOM     14  O   UNL     1      46.828   2.888   4.983  0.00  0.00    +0.000 OA
ATOM     15  H   UNL     1      49.172   2.295   5.460  0.00  0.00    +0.000 HD
ATOM     16  H   UNL     1      49.000   2.168   7.173  0.00  0.00    +0.000 HD
ENDBRANCH   4  13
ENDBRANCH   1   8
BRANCH   1  17
ATOM     17  C   UNL     1      44.289   5.452  11.529  0.00  0.00    +0.000 A 
ATOM     18  C   UNL     1      43.254   6.319  11.148  0.00  0.00    +0.000 A 
ATOM     19  C   UNL     1      43.467   7.693  11.056  0.00  0.00    +0.000 A 
ATOM     20  C   UNL     1      44.713   8.233  11.376  0.00  0.00    +0.000 A 
ATOM     21  C   UNL     1      45.779   7.409  11.774  0.00  0.00    +0.000 A 
ATOM     22  C   UNL     1      45.550   6.023  11.782  0.00  0.00    +0.000 A 
BRANCH  21  23
ATOM     23  C   UNL     1      47.034   7.953  12.339  0.00  0.00    +0.000 A 
ATOM     24  C   UNL     1      47.033   8.576  13.601  0.00  0.00    +0.000 A 
ATOM     25  C   UNL     1      48.225   8.938  14.224  0.00  0.00    +0.000 A 
ATOM     26  F   UNL     1      48.183   9.498  15.439  0.00  0.00    +0.000 F 
ATOM     27  C   UNL     1      49.449   8.696  13.623  0.00  0.00    +0.000 A 
ATOM     28  C   UNL     1      49.463   8.108  12.371  0.00  0.00    +0.000 A 
ATOM     29  F   UNL     1      50.638   7.842  11.783  0.00  0.00    +0.000 F 
ATOM     30  C   UNL     1      48.281   7.751  11.722  0.00  0.00    +0.000 A 
ENDBRANCH  21  23
ENDBRANCH   1  17
TORSDOF 4
ENDMDL
