MODEL 1
REMARK VINA RESULT:    -9.258      0.000      0.000
REMARK INTER + INTRA:         -13.806
REMARK INTER:                 -12.506
REMARK INTRA:                  -1.300
REMARK UNBOUND:                -1.300
REMARK  Name = 
REMARK  7 active torsions:
REMARK  status: ('A' for Active; 'I' for Inactive)
REMARK    1  A    between atoms: C_1  and  C_2
REMARK    2  A    between atoms: C_4  and  C_5
REMARK    3  A    between atoms: C_10  and  N_11
REMARK    4  A    between atoms: N_11  and  C_12
REMARK    5  A    between atoms: C_12  and  C_13
REMARK    6  A    between atoms: C_17  and  C_18
REMARK    7  A    between atoms: C_23  and  C_24
REMARK                            x       y       z     vdW  Elec       q    Type
REMARK                         _______ _______ _______ _____ _____    ______ ____
ROOT
ATOM      1  C   UNL     1      43.788   5.390  11.105  0.00  0.00    +0.000 C 
ATOM      2  C   UNL     1      42.658   4.579  11.771  0.00  0.00    +0.000 C 
ATOM      3  C   UNL     1      42.574   6.057  11.727  0.00  0.00    +0.000 C 
ENDROOT
BRANCH   1   4
ATOM      4  C   UNL     1      45.090   5.500  11.916  0.00  0.00    +0.000 A 
ATOM      5  C   UNL     1      45.511   4.480  12.778  0.00  0.00    +0.000 A 
ATOM      6  C   UNL     1      46.750   4.546  13.418  0.00  0.00    +0.000 A 
ATOM      7  C   UNL     1      47.600   5.635  13.202  0.00  0.00    +0.000 A 
ATOM      8  C   UNL     1      47.230   6.689  12.353  0.00  0.00    +0.000 A 
ATOM      9  C   UNL     1      45.957   6.603  11.756  0.00  0.00    +0.000 A 
BRANCH   8  10
ATOM     10  C   UNL     1      48.144   7.816  12.043  0.00  0.00    +0.000 A 
ATOM     11  C   UNL     1      47.742   9.153  12.180  0.00  0.00    +0.000 A 
ATOM     12  C   UNL     1      48.587  10.209  11.824  0.00  0.00    +0.000 A 
ATOM     13  C   UNL     1      49.880   9.963  11.355  0.00  0.00    +0.000 A 
ATOM     14 CL   UNL     1      50.823  11.344  10.933  0.00  0.00    +0.000 Cl
ATOM     15  C   UNL     1      50.342   8.651  11.243  0.00  0.00    +0.000 A 
ATOM     16  C   UNL     1      49.450   7.597  11.563  0.00  0.00    +0.000 A 
BRANCH  15  17
ATOM     17  C   UNL     1      51.736   8.265  10.825  0.00  0.00    +0.000 C 
ATOM     18  F   UNL     1      52.727   8.488  11.724  0.00  0.00    +0.000 F 
ATOM     19  F   UNL     1      51.813   6.932  10.533  0.00  0.00    +0.000 F 
ATOM     20  F   UNL     1      52.123   8.903   9.683  0.00  0.00    +0.000 F 
ENDBRANCH  15  17
ENDBRANCH   8  10
ENDBRANCH   1   4
BRANCH   1  21
ATOM     21  N   UNL     1      44.006   5.021   9.704  0.00  0.00    +0.000 N 
ATOM     22  H   UNL     1      43.322   5.365   9.034  0.00  0.00    +0.000 HD
BRANCH  21  29
ATOM     23  C   UNL     1      44.024   1.911  10.094  0.00  0.00    +0.000 C 
ATOM     24  C   UNL     1      44.875   2.727   9.181  0.00  0.00    +0.000 A 
ATOM     25  C   UNL     1      45.869   2.023   8.465  0.00  0.00    +0.000 A 
ATOM     26  C   UNL     1      46.726   2.661   7.574  0.00  0.00    +0.000 A 
ATOM     27  C   UNL     1      46.542   4.018   7.432  0.00  0.00    +0.000 A 
ATOM     28  N   UNL     1      45.617   4.736   8.131  0.00  0.00    +0.000 NA
ATOM     29  C   UNL     1      44.798   4.109   9.021  0.00  0.00    +0.000 A 
BRANCH  26  30
ATOM     30  C   UNL     1      47.750   1.853   6.867  0.00  0.00    +0.000 C 
ATOM     31  N   UNL     1      48.716   2.475   6.131  0.00  0.00    +0.000 N 
ATOM     32  O   UNL     1      47.741   0.627   6.935  0.00  0.00    +0.000 OA
ATOM     33  H   UNL     1      48.816   3.469   5.998  0.00  0.00    +0.000 HD
ATOM     34  H   UNL     1      49.384   1.869   5.668  0.00  0.00    +0.000 HD
ENDBRANCH  26  30
ENDBRANCH  21  29
ENDBRANCH   1  21
TORSDOF 6
ENDMDL
MODEL 2
REMARK VINA RESULT:    -8.876      3.570      4.744
REMARK INTER + INTRA:         -13.289
REMARK INTER:                 -12.333
REMARK INTRA:                  -0.956
REMARK UNBOUND:                -1.300
REMARK  Name = 
REMARK  7 active torsions:
REMARK  status: ('A' for Active; 'I' for Inactive)
REMARK    1  A    between atoms: C_1  and  C_2
REMARK    2  A    between atoms: C_4  and  C_5
REMARK    3  A    between atoms: C_10  and  N_11
REMARK    4  A    between atoms: N_11  and  C_12
REMARK    5  A    between atoms: C_12  and  C_13
REMARK    6  A    between atoms: C_17  and  C_18
REMARK    7  A    between atoms: C_23  and  C_24
REMARK                            x       y       z     vdW  Elec       q    Type
REMARK                         _______ _______ _______ _____ _____    ______ ____
ROOT
ATOM      1  C   UNL     1      44.039   5.166  11.282  0.00  0.00    +0.000 C 
ATOM      2  C   UNL     1      43.308   4.118  12.146  0.00  0.00    +0.000 C 
ATOM      3  C   UNL     1      42.855   5.528  12.162  0.00  0.00    +0.000 C 
ENDROOT
BRANCH   1   4
ATOM      4  C   UNL     1      45.414   5.613  11.807  0.00  0.00    +0.000 A 
ATOM      5  C   UNL     1      46.162   6.607  11.164  0.00  0.00    +0.000 A 
ATOM      6  C   UNL     1      47.353   7.080  11.718  0.00  0.00    +0.000 A 
ATOM      7  C   UNL     1      47.817   6.572  12.935  0.00  0.00    +0.000 A 
ATOM      8  C   UNL     1      47.113   5.574  13.622  0.00  0.00    +0.000 A 
ATOM      9  C   UNL     1      45.937   5.095  13.013  0.00  0.00    +0.000 A 
BRANCH   8  10
ATOM     10  C   UNL     1      47.540   5.074  14.954  0.00  0.00    +0.000 A 
ATOM     11  C   UNL     1      47.177   3.801  15.416  0.00  0.00    +0.000 A 
ATOM     12  C   UNL     1      47.528   3.363  16.698  0.00  0.00    +0.000 A 
ATOM     13  C   UNL     1      48.291   4.171  17.545  0.00  0.00    +0.000 A 
ATOM     14 CL   UNL     1      48.648   3.530  19.105  0.00  0.00    +0.000 Cl
ATOM     15  C   UNL     1      48.714   5.428  17.113  0.00  0.00    +0.000 A 
ATOM     16  C   UNL     1      48.303   5.870  15.829  0.00  0.00    +0.000 A 
BRANCH  15  17
ATOM     17  C   UNL     1      49.601   6.354  17.903  0.00  0.00    +0.000 C 
ATOM     18  F   UNL     1      49.926   7.534  17.318  0.00  0.00    +0.000 F 
ATOM     19  F   UNL     1      49.025   6.693  19.095  0.00  0.00    +0.000 F 
ATOM     20  F   UNL     1      50.788   5.767  18.235  0.00  0.00    +0.000 F 
ENDBRANCH  15  17
ENDBRANCH   8  10
ENDBRANCH   1   4
BRANCH   1  21
ATOM     21  N   UNL     1      44.044   4.827   9.857  0.00  0.00    +0.000 N 
ATOM     22  H   UNL     1      43.200   5.053   9.336  0.00  0.00    +0.000 HD
BRANCH  21  29
ATOM     23  C   UNL     1      44.065   1.696   9.701  0.00  0.00    +0.000 C 
ATOM     24  C   UNL     1      44.905   2.660   8.933  0.00  0.00    +0.000 A 
ATOM     25  C   UNL     1      45.889   2.093   8.094  0.00  0.00    +0.000 A 
ATOM     26  C   UNL     1      46.735   2.877   7.316  0.00  0.00    +0.000 A 
ATOM     27  C   UNL     1      46.550   4.237   7.414  0.00  0.00    +0.000 A 
ATOM     28  N   UNL     1      45.635   4.821   8.238  0.00  0.00    +0.000 NA
ATOM     29  C   UNL     1      44.827   4.049   9.017  0.00  0.00    +0.000 A 
BRANCH  26  30
ATOM     30  C   UNL     1      47.750   2.205   6.467  0.00  0.00    +0.000 C 
ATOM     31  N   UNL     1      48.205   2.820   5.337  0.00  0.00    +0.000 N 
ATOM     32  O   UNL     1      48.189   1.098   6.767  0.00  0.00    +0.000 OA
ATOM     33  H   UNL     1      47.911   3.720   4.990  0.00  0.00    +0.000 HD
ATOM     34  H   UNL     1      48.893   2.309   4.797  0.00  0.00    +0.000 HD
ENDBRANCH  26  30
ENDBRANCH  21  29
ENDBRANCH   1  21
TORSDOF 6
ENDMDL
MODEL 3
REMARK VINA RESULT:    -8.668      3.990      4.987
REMARK INTER + INTRA:         -13.008
REMARK INTER:                 -12.518
REMARK INTRA:                  -0.490
REMARK UNBOUND:                -1.300
REMARK  Name = 
REMARK  7 active torsions:
REMARK  status: ('A' for Active; 'I' for Inactive)
REMARK    1  A    between atoms: C_1  and  C_2
REMARK    2  A    between atoms: C_4  and  C_5
REMARK    3  A    between atoms: C_10  and  N_11
REMARK    4  A    between atoms: N_11  and  C_12
REMARK    5  A    between atoms: C_12  and  C_13
REMARK    6  A    between atoms: C_17  and  C_18
REMARK    7  A    between atoms: C_23  and  C_24
REMARK                            x       y       z     vdW  Elec       q    Type
REMARK                         _______ _______ _______ _____ _____    ______ ____
ROOT
ATOM      1  C   UNL     1      44.610   5.505  11.589  0.00  0.00    +0.000 C 
ATOM      2  C   UNL     1      43.990   4.421  12.494  0.00  0.00    +0.000 C 
ATOM      3  C   UNL     1      43.492   5.814  12.570  0.00  0.00    +0.000 C 
ENDROOT
BRANCH   1   4
ATOM      4  C   UNL     1      46.007   5.995  12.006  0.00  0.00    +0.000 A 
ATOM      5  C   UNL     1      46.765   6.844  11.191  0.00  0.00    +0.000 A 
ATOM      6  C   UNL     1      47.980   7.370  11.635  0.00  0.00    +0.000 A 
ATOM      7  C   UNL     1      48.460   7.060  12.911  0.00  0.00    +0.000 A 
ATOM      8  C   UNL     1      47.747   6.210  13.769  0.00  0.00    +0.000 A 
ATOM      9  C   UNL     1      46.545   5.671  13.271  0.00  0.00    +0.000 A 
BRANCH   8  10
ATOM     10  C   UNL     1      48.193   5.929  15.157  0.00  0.00    +0.000 A 
ATOM     11  C   UNL     1      48.887   6.882  15.918  0.00  0.00    +0.000 A 
ATOM     12  C   UNL     1      49.360   6.587  17.201  0.00  0.00    +0.000 A 
ATOM     13  C   UNL     1      49.119   5.339  17.782  0.00  0.00    +0.000 A 
ATOM     14 CL   UNL     1      49.765   5.087  19.361  0.00  0.00    +0.000 Cl
ATOM     15  C   UNL     1      48.395   4.374  17.082  0.00  0.00    +0.000 A 
ATOM     16  C   UNL     1      47.969   4.679  15.765  0.00  0.00    +0.000 A 
BRANCH  15  17
ATOM     17  C   UNL     1      48.007   3.026  17.631  0.00  0.00    +0.000 C 
ATOM     18  F   UNL     1      48.224   2.821  18.955  0.00  0.00    +0.000 F 
ATOM     19  F   UNL     1      46.676   2.780  17.444  0.00  0.00    +0.000 F 
ATOM     20  F   UNL     1      48.652   2.008  16.990  0.00  0.00    +0.000 F 
ENDBRANCH  15  17
ENDBRANCH   8  10
ENDBRANCH   1   4
BRANCH   1  21
ATOM     21  N   UNL     1      44.508   5.186  10.163  0.00  0.00    +0.000 N 
ATOM     22  H   UNL     1      43.714   5.583   9.667  0.00  0.00    +0.000 HD
BRANCH  21  29
ATOM     23  C   UNL     1      44.090   2.079  10.174  0.00  0.00    +0.000 C 
ATOM     24  C   UNL     1      44.974   2.883   9.283  0.00  0.00    +0.000 A 
ATOM     25  C   UNL     1      45.787   2.151   8.389  0.00  0.00    +0.000 A 
ATOM     26  C   UNL     1      46.652   2.777   7.498  0.00  0.00    +0.000 A 
ATOM     27  C   UNL     1      46.663   4.153   7.539  0.00  0.00    +0.000 A 
ATOM     28  N   UNL     1      45.920   4.892   8.410  0.00  0.00    +0.000 NA
ATOM     29  C   UNL     1      45.093   4.272   9.299  0.00  0.00    +0.000 A 
BRANCH  26  30
ATOM     30  C   UNL     1      47.480   1.936   6.598  0.00  0.00    +0.000 C 
ATOM     31  N   UNL     1      48.442   2.515   5.823  0.00  0.00    +0.000 N 
ATOM     32  O   UNL     1      47.310   0.721   6.539  0.00  0.00    +0.000 OA
ATOM     33  H   UNL     1      48.663   3.498   5.783  0.00  0.00    +0.000 HD
ATOM     34  H   UNL     1      48.971   1.890   5.226  0.00  0.00    +0.000 HD
ENDBRANCH  26  30
ENDBRANCH  21  29
ENDBRANCH   1  21
TORSDOF 6
ENDMDL
MODEL 4
REMARK VINA RESULT:    -8.431      1.775      2.058
REMARK INTER + INTRA:         -12.688
REMARK INTER:                 -11.069
REMARK INTRA:                  -1.619
REMARK UNBOUND:                -1.300
REMARK  Name = 
REMARK  7 active torsions:
REMARK  status: ('A' for Active; 'I' for Inactive)
REMARK    1  A    between atoms: C_1  and  C_2
REMARK    2  A    between atoms: C_4  and  C_5
REMARK    3  A    between atoms: C_10  and  N_11
REMARK    4  A    between atoms: N_11  and  C_12
REMARK    5  A    between atoms: C_12  and  C_13
REMARK    6  A    between atoms: C_17  and  C_18
REMARK    7  A    between atoms: C_23  and  C_24
REMARK                            x       y       z     vdW  Elec       q    Type
REMARK                         _______ _______ _______ _____ _____    ______ ____
ROOT
ATOM      1  C   UNL     1      43.815   5.498  10.964  0.00  0.00    +0.000 C 
ATOM      2  C   UNL     1      42.469   5.736  11.678  0.00  0.00    +0.000 C 
ATOM      3  C   UNL     1      43.194   6.880  11.079  0.00  0.00    +0.000 C 
ENDROOT
BRANCH   1   4
ATOM      4  C   UNL     1      45.016   5.235  11.888  0.00  0.00    +0.000 A 
ATOM      5  C   UNL     1      45.205   4.001  12.522  0.00  0.00    +0.000 A 
ATOM      6  C   UNL     1      46.359   3.743  13.264  0.00  0.00    +0.000 A 
ATOM      7  C   UNL     1      47.355   4.717  13.382  0.00  0.00    +0.000 A 
ATOM      8  C   UNL     1      47.219   5.973  12.775  0.00  0.00    +0.000 A 
ATOM      9  C   UNL     1      46.025   6.208  12.066  0.00  0.00    +0.000 A 
BRANCH   8  10
ATOM     10  C   UNL     1      48.295   6.995  12.817  0.00  0.00    +0.000 A 
ATOM     11  C   UNL     1      48.397   8.001  11.844  0.00  0.00    +0.000 A 
ATOM     12  C   UNL     1      49.451   8.921  11.854  0.00  0.00    +0.000 A 
ATOM     13  C   UNL     1      50.418   8.889  12.862  0.00  0.00    +0.000 A 
ATOM     14 CL   UNL     1      51.677  10.063  12.759  0.00  0.00    +0.000 Cl
ATOM     15  C   UNL     1      50.334   7.935  13.877  0.00  0.00    +0.000 A 
ATOM     16  C   UNL     1      49.285   6.983  13.817  0.00  0.00    +0.000 A 
BRANCH  15  17
ATOM     17  C   UNL     1      51.269   7.850  15.054  0.00  0.00    +0.000 C 
ATOM     18  F   UNL     1      51.330   8.937  15.865  0.00  0.00    +0.000 F 
ATOM     19  F   UNL     1      50.937   6.810  15.875  0.00  0.00    +0.000 F 
ATOM     20  F   UNL     1      52.556   7.605  14.669  0.00  0.00    +0.000 F 
ENDBRANCH  15  17
ENDBRANCH   8  10
ENDBRANCH   1   4
BRANCH   1  21
ATOM     21  N   UNL     1      43.714   4.544   9.858  0.00  0.00    +0.000 N 
ATOM     22  H   UNL     1      42.802   4.116   9.712  0.00  0.00    +0.000 HD
BRANCH  21  29
ATOM     23  C   UNL     1      44.035   1.431   9.666  0.00  0.00    +0.000 C 
ATOM     24  C   UNL     1      44.816   2.481   8.950  0.00  0.00    +0.000 A 
ATOM     25  C   UNL     1      45.887   2.022   8.151  0.00  0.00    +0.000 A 
ATOM     26  C   UNL     1      46.690   2.894   7.424  0.00  0.00    +0.000 A 
ATOM     27  C   UNL     1      46.374   4.230   7.529  0.00  0.00    +0.000 A 
ATOM     28  N   UNL     1      45.371   4.713   8.316  0.00  0.00    +0.000 NA
ATOM     29  C   UNL     1      44.604   3.855   9.047  0.00  0.00    +0.000 A 
BRANCH  26  30
ATOM     30  C   UNL     1      47.802   2.334   6.616  0.00  0.00    +0.000 C 
ATOM     31  N   UNL     1      48.127   2.906   5.420  0.00  0.00    +0.000 N 
ATOM     32  O   UNL     1      48.436   1.359   7.009  0.00  0.00    +0.000 OA
ATOM     33  H   UNL     1      47.672   3.700   4.996  0.00  0.00    +0.000 HD
ATOM     34  H   UNL     1      48.891   2.475   4.913  0.00  0.00    +0.000 HD
ENDBRANCH  26  30
ENDBRANCH  21  29
ENDBRANCH   1  21
TORSDOF 6
ENDMDL
MODEL 5
REMARK VINA RESULT:    -8.341      4.837      7.892
REMARK INTER + INTRA:         -12.566
REMARK INTER:                 -11.423
REMARK INTRA:                  -1.143
REMARK UNBOUND:                -1.300
REMARK  Name = 
REMARK  7 active torsions:
REMARK  status: ('A' for Active; 'I' for Inactive)
REMARK    1  A    between atoms: C_1  and  C_2
REMARK    2  A    between atoms: C_4  and  C_5
REMARK    3  A    between atoms: C_10  and  N_11
REMARK    4  A    between atoms: N_11  and  C_12
REMARK    5  A    between atoms: C_12  and  C_13
REMARK    6  A    between atoms: C_17  and  C_18
REMARK    7  A    between atoms: C_23  and  C_24
REMARK                            x       y       z     vdW  Elec       q    Type
REMARK                         _______ _______ _______ _____ _____    ______ ____
ROOT
ATOM      1  C   UNL     1      48.540   8.483  12.911  0.00  0.00    +0.000 C 
ATOM      2  C   UNL     1      49.520   9.018  11.848  0.00  0.00    +0.000 C 
ATOM      3  C   UNL     1      49.019   9.924  12.907  0.00  0.00    +0.000 C 
ENDROOT
BRANCH   1   4
ATOM      4  C   UNL     1      47.095   8.267  12.430  0.00  0.00    +0.000 A 
ATOM      5  C   UNL     1      46.164   9.312  12.394  0.00  0.00    +0.000 A 
ATOM      6  C   UNL     1      44.893   9.123  11.847  0.00  0.00    +0.000 A 
ATOM      7  C   UNL     1      44.529   7.882  11.316  0.00  0.00    +0.000 A 
ATOM      8  C   UNL     1      45.418   6.797  11.328  0.00  0.00    +0.000 A 
ATOM      9  C   UNL     1      46.676   7.017  11.922  0.00  0.00    +0.000 A 
BRANCH   8  10
ATOM     10  C   UNL     1      45.087   5.494  10.700  0.00  0.00    +0.000 A 
ATOM     11  C   UNL     1      44.119   4.637  11.242  0.00  0.00    +0.000 A 
ATOM     12  C   UNL     1      43.859   3.381  10.681  0.00  0.00    +0.000 A 
ATOM     13  C   UNL     1      44.534   2.958   9.533  0.00  0.00    +0.000 A 
ATOM     14 CL   UNL     1      44.140   1.386   8.944  0.00  0.00    +0.000 Cl
ATOM     15  C   UNL     1      45.474   3.794   8.931  0.00  0.00    +0.000 A 
ATOM     16  C   UNL     1      45.756   5.040   9.547  0.00  0.00    +0.000 A 
BRANCH  15  17
ATOM     17  C   UNL     1      46.207   3.482   7.653  0.00  0.00    +0.000 C 
ATOM     18  F   UNL     1      45.445   3.264   6.551  0.00  0.00    +0.000 F 
ATOM     19  F   UNL     1      47.054   4.497   7.307  0.00  0.00    +0.000 F 
ATOM     20  F   UNL     1      47.002   2.379   7.776  0.00  0.00    +0.000 F 
ENDBRANCH  15  17
ENDBRANCH   8  10
ENDBRANCH   1   4
BRANCH   1  21
ATOM     21  N   UNL     1      49.077   7.347  13.664  0.00  0.00    +0.000 N 
ATOM     22  H   UNL     1      49.854   6.849  13.236  0.00  0.00    +0.000 HD
BRANCH  21  29
ATOM     23  C   UNL     1      49.788   7.847  16.675  0.00  0.00    +0.000 C 
ATOM     24  C   UNL     1      48.985   6.733  16.094  0.00  0.00    +0.000 A 
ATOM     25  C   UNL     1      48.562   5.734  17.000  0.00  0.00    +0.000 A 
ATOM     26  C   UNL     1      47.800   4.645  16.591  0.00  0.00    +0.000 A 
ATOM     27  C   UNL     1      47.481   4.604  15.253  0.00  0.00    +0.000 A 
ATOM     28  N   UNL     1      47.900   5.529  14.344  0.00  0.00    +0.000 NA
ATOM     29  C   UNL     1      48.668   6.581  14.746  0.00  0.00    +0.000 A 
BRANCH  26  30
ATOM     30  C   UNL     1      47.403   3.633  17.602  0.00  0.00    +0.000 C 
ATOM     31  N   UNL     1      48.139   3.487  18.742  0.00  0.00    +0.000 N 
ATOM     32  O   UNL     1      46.418   2.922  17.427  0.00  0.00    +0.000 OA
ATOM     33  H   UNL     1      48.968   4.007  18.986  0.00  0.00    +0.000 HD
ATOM     34  H   UNL     1      47.821   2.777  19.391  0.00  0.00    +0.000 HD
ENDBRANCH  26  30
ENDBRANCH  21  29
ENDBRANCH   1  21
TORSDOF 6
ENDMDL
MODEL 6
REMARK VINA RESULT:    -8.298      1.391      2.138
REMARK INTER + INTRA:         -12.509
REMARK INTER:                 -11.551
REMARK INTRA:                  -0.958
REMARK UNBOUND:                -1.300
REMARK  Name = 
REMARK  7 active torsions:
REMARK  status: ('A' for Active; 'I' for Inactive)
REMARK    1  A    between atoms: C_1  and  C_2
REMARK    2  A    between atoms: C_4  and  C_5
REMARK    3  A    between atoms: C_10  and  N_11
REMARK    4  A    between atoms: N_11  and  C_12
REMARK    5  A    between atoms: C_12  and  C_13
REMARK    6  A    between atoms: C_17  and  C_18
REMARK    7  A    between atoms: C_23  and  C_24
REMARK                            x       y       z     vdW  Elec       q    Type
REMARK                         _______ _______ _______ _____ _____    ______ ____
ROOT
ATOM      1  C   UNL     1      44.871   5.633  11.555  0.00  0.00    +0.000 C 
ATOM      2  C   UNL     1      45.490   4.507  12.409  0.00  0.00    +0.000 C 
ATOM      3  C   UNL     1      44.214   5.132  12.829  0.00  0.00    +0.000 C 
ENDROOT
BRANCH   1   4
ATOM      4  C   UNL     1      45.565   7.002  11.664  0.00  0.00    +0.000 A 
ATOM      5  C   UNL     1      44.836   8.195  11.737  0.00  0.00    +0.000 A 
ATOM      6  C   UNL     1      45.478   9.416  11.950  0.00  0.00    +0.000 A 
ATOM      7  C   UNL     1      46.867   9.468  12.102  0.00  0.00    +0.000 A 
ATOM      8  C   UNL     1      47.649   8.306  12.033  0.00  0.00    +0.000 A 
ATOM      9  C   UNL     1      46.969   7.099  11.779  0.00  0.00    +0.000 A 
BRANCH   8  10
ATOM     10  C   UNL     1      49.114   8.322  12.271  0.00  0.00    +0.000 A 
ATOM     11  C   UNL     1      49.658   8.689  13.511  0.00  0.00    +0.000 A 
ATOM     12  C   UNL     1      51.041   8.763  13.708  0.00  0.00    +0.000 A 
ATOM     13  C   UNL     1      51.928   8.434  12.680  0.00  0.00    +0.000 A 
ATOM     14 CL   UNL     1      53.609   8.579  13.037  0.00  0.00    +0.000 Cl
ATOM     15  C   UNL     1      51.435   8.020  11.442  0.00  0.00    +0.000 A 
ATOM     16  C   UNL     1      50.031   8.000  11.252  0.00  0.00    +0.000 A 
BRANCH  15  17
ATOM     17  C   UNL     1      52.289   7.568  10.287  0.00  0.00    +0.000 C 
ATOM     18  F   UNL     1      53.267   6.670  10.566  0.00  0.00    +0.000 F 
ATOM     19  F   UNL     1      51.531   6.980   9.313  0.00  0.00    +0.000 F 
ATOM     20  F   UNL     1      52.912   8.614   9.671  0.00  0.00    +0.000 F 
ENDBRANCH  15  17
ENDBRANCH   8  10
ENDBRANCH   1   4
BRANCH   1  21
ATOM     21  N   UNL     1      44.608   5.224  10.173  0.00  0.00    +0.000 N 
ATOM     22  H   UNL     1      43.692   5.458   9.799  0.00  0.00    +0.000 HD
BRANCH  21  29
ATOM     23  C   UNL     1      44.181   2.126   9.956  0.00  0.00    +0.000 C 
ATOM     24  C   UNL     1      45.079   2.989   9.136  0.00  0.00    +0.000 A 
ATOM     25  C   UNL     1      45.900   2.319   8.202  0.00  0.00    +0.000 A 
ATOM     26  C   UNL     1      46.777   3.004   7.368  0.00  0.00    +0.000 A 
ATOM     27  C   UNL     1      46.792   4.373   7.508  0.00  0.00    +0.000 A 
ATOM     28  N   UNL     1      46.040   5.051   8.420  0.00  0.00    +0.000 NA
ATOM     29  C   UNL     1      45.202   4.372   9.253  0.00  0.00    +0.000 A 
BRANCH  26  30
ATOM     30  C   UNL     1      47.614   2.227   6.420  0.00  0.00    +0.000 C 
ATOM     31  N   UNL     1      48.056   2.811   5.269  0.00  0.00    +0.000 N 
ATOM     32  O   UNL     1      47.914   1.060   6.656  0.00  0.00    +0.000 OA
ATOM     33  H   UNL     1      47.865   3.754   4.968  0.00  0.00    +0.000 HD
ATOM     34  H   UNL     1      48.618   2.228   4.660  0.00  0.00    +0.000 HD
ENDBRANCH  26  30
ENDBRANCH  21  29
ENDBRANCH   1  21
TORSDOF 6
ENDMDL
MODEL 7
REMARK VINA RESULT:    -7.999      5.175      8.344
REMARK INTER + INTRA:         -12.105
REMARK INTER:                 -10.522
REMARK INTRA:                  -1.583
REMARK UNBOUND:                -1.300
REMARK  Name = 
REMARK  7 active torsions:
REMARK  status: ('A' for Active; 'I' for Inactive)
REMARK    1  A    between atoms: C_1  and  C_2
REMARK    2  A    between atoms: C_4  and  C_5
REMARK    3  A    between atoms: C_10  and  N_11
REMARK    4  A    between atoms: N_11  and  C_12
REMARK    5  A    between atoms: C_12  and  C_13
REMARK    6  A    between atoms: C_17  and  C_18
REMARK    7  A    between atoms: C_23  and  C_24
REMARK                            x       y       z     vdW  Elec       q    Type
REMARK                         _______ _______ _______ _____ _____    ______ ____
ROOT
ATOM      1  C   UNL     1      48.855   8.324  12.763  0.00  0.00    +0.000 C 
ATOM      2  C   UNL     1      49.832   8.505  11.583  0.00  0.00    +0.000 C 
ATOM      3  C   UNL     1      49.443   9.677  12.402  0.00  0.00    +0.000 C 
ENDROOT
BRANCH   1   4
ATOM      4  C   UNL     1      47.381   8.121  12.376  0.00  0.00    +0.000 A 
ATOM      5  C   UNL     1      46.451   9.167  12.430  0.00  0.00    +0.000 A 
ATOM      6  C   UNL     1      45.146   8.992  11.967  0.00  0.00    +0.000 A 
ATOM      7  C   UNL     1      44.744   7.765  11.431  0.00  0.00    +0.000 A 
ATOM      8  C   UNL     1      45.629   6.680  11.355  0.00  0.00    +0.000 A 
ATOM      9  C   UNL     1      46.926   6.884  11.867  0.00  0.00    +0.000 A 
BRANCH   8  10
ATOM     10  C   UNL     1      45.254   5.393  10.718  0.00  0.00    +0.000 A 
ATOM     11  C   UNL     1      44.299   4.538  11.288  0.00  0.00    +0.000 A 
ATOM     12  C   UNL     1      43.998   3.297  10.716  0.00  0.00    +0.000 A 
ATOM     13  C   UNL     1      44.615   2.888   9.531  0.00  0.00    +0.000 A 
ATOM     14 CL   UNL     1      44.174   1.332   8.930  0.00  0.00    +0.000 Cl
ATOM     15  C   UNL     1      45.538   3.724   8.902  0.00  0.00    +0.000 A 
ATOM     16  C   UNL     1      45.863   4.954   9.527  0.00  0.00    +0.000 A 
BRANCH  15  17
ATOM     17  C   UNL     1      46.208   3.427   7.587  0.00  0.00    +0.000 C 
ATOM     18  F   UNL     1      45.395   3.234   6.517  0.00  0.00    +0.000 F 
ATOM     19  F   UNL     1      47.047   4.441   7.219  0.00  0.00    +0.000 F 
ATOM     20  F   UNL     1      46.998   2.316   7.654  0.00  0.00    +0.000 F 
ENDBRANCH  15  17
ENDBRANCH   8  10
ENDBRANCH   1   4
BRANCH   1  21
ATOM     21  N   UNL     1      49.333   7.360  13.757  0.00  0.00    +0.000 N 
ATOM     22  H   UNL     1      49.977   6.647  13.423  0.00  0.00    +0.000 HD
BRANCH  21  29
ATOM     23  C   UNL     1      49.757   9.038  16.371  0.00  0.00    +0.000 C 
ATOM     24  C   UNL     1      49.169   7.674  16.241  0.00  0.00    +0.000 A 
ATOM     25  C   UNL     1      48.840   7.022  17.450  0.00  0.00    +0.000 A 
ATOM     26  C   UNL     1      48.278   5.749  17.471  0.00  0.00    +0.000 A 
ATOM     27  C   UNL     1      48.060   5.169  16.242  0.00  0.00    +0.000 A 
ATOM     28  N   UNL     1      48.396   5.752  15.057  0.00  0.00    +0.000 NA
ATOM     29  C   UNL     1      48.971   6.988  15.044  0.00  0.00    +0.000 A 
BRANCH  26  30
ATOM     30  C   UNL     1      47.969   5.128  18.783  0.00  0.00    +0.000 C 
ATOM     31  N   UNL     1      46.778   5.390  19.395  0.00  0.00    +0.000 N 
ATOM     32  O   UNL     1      48.774   4.379  19.330  0.00  0.00    +0.000 OA
ATOM     33  H   UNL     1      46.049   5.993  19.046  0.00  0.00    +0.000 HD
ATOM     34  H   UNL     1      46.628   4.941  20.291  0.00  0.00    +0.000 HD
ENDBRANCH  26  30
ENDBRANCH  21  29
ENDBRANCH   1  21
TORSDOF 6
ENDMDL
MODEL 8
REMARK VINA RESULT:    -7.985      2.503      3.165
REMARK INTER + INTRA:         -12.085
REMARK INTER:                 -11.421
REMARK INTRA:                  -0.665
REMARK UNBOUND:                -1.300
REMARK  Name = 
REMARK  7 active torsions:
REMARK  status: ('A' for Active; 'I' for Inactive)
REMARK    1  A    between atoms: C_1  and  C_2
REMARK    2  A    between atoms: C_4  and  C_5
REMARK    3  A    between atoms: C_10  and  N_11
REMARK    4  A    between atoms: N_11  and  C_12
REMARK    5  A    between atoms: C_12  and  C_13
REMARK    6  A    between atoms: C_17  and  C_18
REMARK    7  A    between atoms: C_23  and  C_24
REMARK                            x       y       z     vdW  Elec       q    Type
REMARK                         _______ _______ _______ _____ _____    ______ ____
ROOT
ATOM      1  C   UNL     1      44.333   5.646  11.405  0.00  0.00    +0.000 C 
ATOM      2  C   UNL     1      44.791   4.545  12.384  0.00  0.00    +0.000 C 
ATOM      3  C   UNL     1      43.489   5.220  12.594  0.00  0.00    +0.000 C 
ENDROOT
BRANCH   1   4
ATOM      4  C   UNL     1      45.047   7.000  11.554  0.00  0.00    +0.000 A 
ATOM      5  C   UNL     1      44.378   8.214  11.352  0.00  0.00    +0.000 A 
ATOM      6  C   UNL     1      45.011   9.433  11.602  0.00  0.00    +0.000 A 
ATOM      7  C   UNL     1      46.329   9.463  12.068  0.00  0.00    +0.000 A 
ATOM      8  C   UNL     1      47.050   8.280  12.285  0.00  0.00    +0.000 A 
ATOM      9  C   UNL     1      46.390   7.072  11.985  0.00  0.00    +0.000 A 
BRANCH   8  10
ATOM     10  C   UNL     1      48.421   8.280  12.855  0.00  0.00    +0.000 A 
ATOM     11  C   UNL     1      49.518   8.785  12.141  0.00  0.00    +0.000 A 
ATOM     12  C   UNL     1      50.816   8.722  12.659  0.00  0.00    +0.000 A 
ATOM     13  C   UNL     1      51.055   8.187  13.928  0.00  0.00    +0.000 A 
ATOM     14 CL   UNL     1      52.697   8.149  14.452  0.00  0.00    +0.000 Cl
ATOM     15  C   UNL     1      49.990   7.713  14.694  0.00  0.00    +0.000 A 
ATOM     16  C   UNL     1      48.690   7.742  14.127  0.00  0.00    +0.000 A 
BRANCH  15  17
ATOM     17  C   UNL     1      50.111   7.186  16.099  0.00  0.00    +0.000 C 
ATOM     18  F   UNL     1      48.972   6.738  16.684  0.00  0.00    +0.000 F 
ATOM     19  F   UNL     1      50.981   6.133  16.160  0.00  0.00    +0.000 F 
ATOM     20  F   UNL     1      50.622   8.120  16.953  0.00  0.00    +0.000 F 
ENDBRANCH  15  17
ENDBRANCH   8  10
ENDBRANCH   1   4
BRANCH   1  21
ATOM     21  N   UNL     1      44.254   5.181  10.019  0.00  0.00    +0.000 N 
ATOM     22  H   UNL     1      43.416   5.440   9.502  0.00  0.00    +0.000 HD
BRANCH  21  29
ATOM     23  C   UNL     1      43.993   2.061  10.179  0.00  0.00    +0.000 C 
ATOM     24  C   UNL     1      44.879   2.864   9.288  0.00  0.00    +0.000 A 
ATOM     25  C   UNL     1      45.772   2.130   8.475  0.00  0.00    +0.000 A 
ATOM     26  C   UNL     1      46.647   2.754   7.593  0.00  0.00    +0.000 A 
ATOM     27  C   UNL     1      46.587   4.129   7.560  0.00  0.00    +0.000 A 
ATOM     28  N   UNL     1      45.764   4.872   8.353  0.00  0.00    +0.000 NA
ATOM     29  C   UNL     1      44.927   4.256   9.234  0.00  0.00    +0.000 A 
BRANCH  26  30
ATOM     30  C   UNL     1      47.561   1.913   6.780  0.00  0.00    +0.000 C 
ATOM     31  N   UNL     1      48.683   2.463   6.233  0.00  0.00    +0.000 N 
ATOM     32  O   UNL     1      47.320   0.724   6.591  0.00  0.00    +0.000 OA
ATOM     33  H   UNL     1      48.975   3.425   6.313  0.00  0.00    +0.000 HD
ATOM     34  H   UNL     1      49.264   1.840   5.684  0.00  0.00    +0.000 HD
ENDBRANCH  26  30
ENDBRANCH  21  29
ENDBRANCH   1  21
TORSDOF 6
ENDMDL
MODEL 9
REMARK VINA RESULT:    -7.424      6.704      8.800
REMARK INTER + INTRA:         -11.329
REMARK INTER:                  -9.947
REMARK INTRA:                  -1.382
REMARK UNBOUND:                -1.300
REMARK  Name = 
REMARK  7 active torsions:
REMARK  status: ('A' for Active; 'I' for Inactive)
REMARK    1  A    between atoms: C_1  and  C_2
REMARK    2  A    between atoms: C_4  and  C_5
REMARK    3  A    between atoms: C_10  and  N_11
REMARK    4  A    between atoms: N_11  and  C_12
REMARK    5  A    between atoms: C_12  and  C_13
REMARK    6  A    between atoms: C_17  and  C_18
REMARK    7  A    between atoms: C_23  and  C_24
REMARK                            x       y       z     vdW  Elec       q    Type
REMARK                         _______ _______ _______ _____ _____    ______ ____
ROOT
ATOM      1  C   UNL     1      49.498   5.663  17.808  0.00  0.00    +0.000 C 
ATOM      2  C   UNL     1      49.004   6.506  19.001  0.00  0.00    +0.000 C 
ATOM      3  C   UNL     1      48.165   5.399  18.486  0.00  0.00    +0.000 C 
ENDROOT
BRANCH   1   4
ATOM      4  C   UNL     1      49.416   6.349  16.435  0.00  0.00    +0.000 A 
ATOM      5  C   UNL     1      50.495   7.063  15.900  0.00  0.00    +0.000 A 
ATOM      6  C   UNL     1      50.442   7.581  14.604  0.00  0.00    +0.000 A 
ATOM      7  C   UNL     1      49.306   7.390  13.812  0.00  0.00    +0.000 A 
ATOM      8  C   UNL     1      48.193   6.688  14.296  0.00  0.00    +0.000 A 
ATOM      9  C   UNL     1      48.270   6.213  15.620  0.00  0.00    +0.000 A 
BRANCH   8  10
ATOM     10  C   UNL     1      47.007   6.400  13.450  0.00  0.00    +0.000 A 
ATOM     11  C   UNL     1      46.232   7.427  12.891  0.00  0.00    +0.000 A 
ATOM     12  C   UNL     1      45.079   7.149  12.149  0.00  0.00    +0.000 A 
ATOM     13  C   UNL     1      44.685   5.830  11.908  0.00  0.00    +0.000 A 
ATOM     14 CL   UNL     1      43.239   5.613  10.994  0.00  0.00    +0.000 Cl
ATOM     15  C   UNL     1      45.448   4.774  12.405  0.00  0.00    +0.000 A 
ATOM     16  C   UNL     1      46.584   5.081  13.196  0.00  0.00    +0.000 A 
BRANCH  15  17
ATOM     17  C   UNL     1      45.169   3.317  12.148  0.00  0.00    +0.000 C 
ATOM     18  F   UNL     1      45.277   2.892  10.863  0.00  0.00    +0.000 F 
ATOM     19  F   UNL     1      46.016   2.517  12.861  0.00  0.00    +0.000 F 
ATOM     20  F   UNL     1      43.915   2.958  12.550  0.00  0.00    +0.000 F 
ENDBRANCH  15  17
ENDBRANCH   8  10
ENDBRANCH   1   4
BRANCH   1  21
ATOM     21  N   UNL     1      50.791   5.021  18.060  0.00  0.00    +0.000 N 
ATOM     22  H   UNL     1      51.565   5.638  18.293  0.00  0.00    +0.000 HD
BRANCH  21  29
ATOM     23  C   UNL     1      49.304   2.499  16.937  0.00  0.00    +0.000 C 
ATOM     24  C   UNL     1      50.722   2.605  17.388  0.00  0.00    +0.000 A 
ATOM     25  C   UNL     1      51.464   1.402  17.390  0.00  0.00    +0.000 A 
ATOM     26  C   UNL     1      52.798   1.361  17.780  0.00  0.00    +0.000 A 
ATOM     27  C   UNL     1      53.350   2.563  18.159  0.00  0.00    +0.000 A 
ATOM     28  N   UNL     1      52.657   3.736  18.204  0.00  0.00    +0.000 NA
ATOM     29  C   UNL     1      51.342   3.766  17.846  0.00  0.00    +0.000 A 
BRANCH  26  30
ATOM     30  C   UNL     1      53.506   0.057  17.762  0.00  0.00    +0.000 C 
ATOM     31  N   UNL     1      53.904  -0.484  16.574  0.00  0.00    +0.000 N 
ATOM     32  O   UNL     1      53.739  -0.547  18.806  0.00  0.00    +0.000 OA
ATOM     33  H   UNL     1      53.759  -0.084  15.660  0.00  0.00    +0.000 HD
ATOM     34  H   UNL     1      54.378  -1.378  16.627  0.00  0.00    +0.000 HD
ENDBRANCH  26  30
ENDBRANCH  21  29
ENDBRANCH   1  21
TORSDOF 6
ENDMDL
