MODEL 1
REMARK VINA RESULT:    -9.120      0.000      0.000
REMARK INTER + INTRA:         -13.398
REMARK INTER:                 -12.319
REMARK INTRA:                  -1.079
REMARK UNBOUND:                -1.079
REMARK  Name = 
REMARK  6 active torsions:
REMARK  status: ('A' for Active; 'I' for Inactive)
REMARK    1  A    between atoms: C_2  and  C_4
REMARK    2  A    between atoms: C_7  and  N_8
REMARK    3  A    between atoms: N_8  and  C_9
REMARK    4  A    between atoms: C_9  and  C_10
REMARK    5  A    between atoms: C_10  and  C_13
REMARK    6  A    between atoms: C_17  and  N_18
REMARK                            x       y       z     vdW  Elec       q    Type
REMARK                         _______ _______ _______ _____ _____    ______ ____
ROOT
ATOM      1  C   UNL     1      43.362   4.436  11.093  0.00  0.00    +0.000 C 
ENDROOT
BRANCH   1   2
ATOM      2  C   UNL     1      43.650   4.645  12.601  0.00  0.00    +0.000 C 
ATOM      3  F   UNL     1      42.727   5.524  13.100  0.00  0.00    +0.000 F 
ATOM      4  F   UNL     1      43.416   3.469  13.258  0.00  0.00    +0.000 F 
BRANCH   2   5
ATOM      5  C   UNL     1      45.072   5.134  12.771  0.00  0.00    +0.000 A 
ATOM      6  C   UNL     1      45.617   6.061  11.877  0.00  0.00    +0.000 A 
ATOM      7  C   UNL     1      46.888   6.579  12.101  0.00  0.00    +0.000 A 
ATOM      8  C   UNL     1      47.606   6.203  13.240  0.00  0.00    +0.000 A 
ATOM      9  C   UNL     1      47.084   5.300  14.176  0.00  0.00    +0.000 A 
ATOM     10  C   UNL     1      45.830   4.741  13.887  0.00  0.00    +0.000 A 
BRANCH   9  11
ATOM     11  N   UNL     1      47.734   5.016  15.356  0.00  0.00    +0.000 N 
ATOM     12  C   UNL     1      47.564   3.737  16.060  0.00  0.00    +0.000 C 
ATOM     13  C   UNL     1      47.244   4.003  17.540  0.00  0.00    +0.000 C 
ATOM     14  O   UNL     1      48.232   4.844  18.159  0.00  0.00    +0.000 OA
ATOM     15  C   UNL     1      48.312   6.108  17.474  0.00  0.00    +0.000 C 
ATOM     16  C   UNL     1      48.692   5.926  15.997  0.00  0.00    +0.000 C 
ENDBRANCH   9  11
ENDBRANCH   2   5
ENDBRANCH   1   2
BRANCH   1  17
ATOM     17  N   UNL     1      43.781   3.126  10.572  0.00  0.00    +0.000 N 
ATOM     18  H   UNL     1      43.342   2.301  10.966  0.00  0.00    +0.000 HD
BRANCH  17  22
ATOM     19  C   UNL     1      46.450   2.794   7.323  0.00  0.00    +0.000 A 
ATOM     20  C   UNL     1      45.914   4.035   7.688  0.00  0.00    +0.000 A 
ATOM     21  C   UNL     1      45.029   4.130   8.771  0.00  0.00    +0.000 A 
ATOM     22  C   UNL     1      44.663   3.001   9.518  0.00  0.00    +0.000 A 
ATOM     23  C   UNL     1      45.200   1.771   9.130  0.00  0.00    +0.000 A 
ATOM     24  C   UNL     1      46.074   1.670   8.055  0.00  0.00    +0.000 A 
ATOM     25  F   UNL     1      46.546   0.448   7.755  0.00  0.00    +0.000 F 
BRANCH  19  27
ATOM     26  N   UNL     1      48.713   2.435   6.487  0.00  0.00    +0.000 N 
ATOM     27  C   UNL     1      47.408   2.713   6.192  0.00  0.00    +0.000 C 
ATOM     28  O   UNL     1      47.053   2.903   5.037  0.00  0.00    +0.000 OA
ATOM     29  H   UNL     1      49.385   2.425   5.732  0.00  0.00    +0.000 HD
ATOM     30  H   UNL     1      49.044   2.291   7.432  0.00  0.00    +0.000 HD
ENDBRANCH  19  27
ENDBRANCH  17  22
ENDBRANCH   1  17
TORSDOF 6
ENDMDL
MODEL 2
REMARK VINA RESULT:    -8.767      2.678      3.616
REMARK INTER + INTRA:         -12.921
REMARK INTER:                 -12.003
REMARK INTRA:                  -0.918
REMARK UNBOUND:                -1.079
REMARK  Name = 
REMARK  6 active torsions:
REMARK  status: ('A' for Active; 'I' for Inactive)
REMARK    1  A    between atoms: C_2  and  C_4
REMARK    2  A    between atoms: C_7  and  N_8
REMARK    3  A    between atoms: N_8  and  C_9
REMARK    4  A    between atoms: C_9  and  C_10
REMARK    5  A    between atoms: C_10  and  C_13
REMARK    6  A    between atoms: C_17  and  N_18
REMARK                            x       y       z     vdW  Elec       q    Type
REMARK                         _______ _______ _______ _____ _____    ______ ____
ROOT
ATOM      1  C   UNL     1      43.388   3.674  11.484  0.00  0.00    +0.000 C 
ENDROOT
BRANCH   1   2
ATOM      2  C   UNL     1      43.333   4.606  12.720  0.00  0.00    +0.000 C 
ATOM      3  F   UNL     1      42.351   5.536  12.519  0.00  0.00    +0.000 F 
ATOM      4  F   UNL     1      42.919   3.876  13.800  0.00  0.00    +0.000 F 
BRANCH   2   5
ATOM      5  C   UNL     1      44.695   5.231  12.929  0.00  0.00    +0.000 A 
ATOM      6  C   UNL     1      45.840   4.432  13.019  0.00  0.00    +0.000 A 
ATOM      7  C   UNL     1      47.095   5.022  13.107  0.00  0.00    +0.000 A 
ATOM      8  C   UNL     1      47.218   6.414  13.068  0.00  0.00    +0.000 A 
ATOM      9  C   UNL     1      46.101   7.250  12.950  0.00  0.00    +0.000 A 
ATOM     10  C   UNL     1      44.843   6.629  12.932  0.00  0.00    +0.000 A 
BRANCH   9  11
ATOM     11  N   UNL     1      46.223   8.612  12.794  0.00  0.00    +0.000 N 
ATOM     12  C   UNL     1      45.063   9.484  12.554  0.00  0.00    +0.000 C 
ATOM     13  C   UNL     1      45.345  10.394  11.347  0.00  0.00    +0.000 C 
ATOM     14  O   UNL     1      46.566  11.136  11.509  0.00  0.00    +0.000 OA
ATOM     15  C   UNL     1      47.679  10.236  11.673  0.00  0.00    +0.000 C 
ATOM     16  C   UNL     1      47.498   9.334  12.901  0.00  0.00    +0.000 C 
ENDBRANCH   9  11
ENDBRANCH   2   5
ENDBRANCH   1   2
BRANCH   1  17
ATOM     17  N   UNL     1      43.782   4.344  10.236  0.00  0.00    +0.000 N 
ATOM     18  H   UNL     1      43.404   5.268  10.059  0.00  0.00    +0.000 HD
BRANCH  17  22
ATOM     19  C   UNL     1      46.606   2.729   7.552  0.00  0.00    +0.000 A 
ATOM     20  C   UNL     1      46.451   4.114   7.683  0.00  0.00    +0.000 A 
ATOM     21  C   UNL     1      45.509   4.636   8.581  0.00  0.00    +0.000 A 
ATOM     22  C   UNL     1      44.709   3.799   9.370  0.00  0.00    +0.000 A 
ATOM     23  C   UNL     1      44.871   2.420   9.214  0.00  0.00    +0.000 A 
ATOM     24  C   UNL     1      45.800   1.897   8.323  0.00  0.00    +0.000 A 
ATOM     25  F   UNL     1      45.892   0.559   8.243  0.00  0.00    +0.000 F 
BRANCH  19  27
ATOM     26  N   UNL     1      47.849   2.880   5.458  0.00  0.00    +0.000 N 
ATOM     27  C   UNL     1      47.628   2.192   6.618  0.00  0.00    +0.000 C 
ATOM     28  O   UNL     1      48.242   1.162   6.863  0.00  0.00    +0.000 OA
ATOM     29  H   UNL     1      48.507   2.499   4.791  0.00  0.00    +0.000 HD
ATOM     30  H   UNL     1      47.348   3.724   5.216  0.00  0.00    +0.000 HD
ENDBRANCH  19  27
ENDBRANCH  17  22
ENDBRANCH   1  17
TORSDOF 6
ENDMDL
MODEL 3
REMARK VINA RESULT:    -8.442      1.390      1.843
REMARK INTER + INTRA:         -12.482
REMARK INTER:                 -11.445
REMARK INTRA:                  -1.037
REMARK UNBOUND:                -1.079
REMARK  Name = 
REMARK  6 active torsions:
REMARK  status: ('A' for Active; 'I' for Inactive)
REMARK    1  A    between atoms: C_2  and  C_4
REMARK    2  A    between atoms: C_7  and  N_8
REMARK    3  A    between atoms: N_8  and  C_9
REMARK    4  A    between atoms: C_9  and  C_10
REMARK    5  A    between atoms: C_10  and  C_13
REMARK    6  A    between atoms: C_17  and  N_18
REMARK                            x       y       z     vdW  Elec       q    Type
REMARK                         _______ _______ _______ _____ _____    ______ ____
ROOT
ATOM      1  C   UNL     1      44.083   3.754  11.808  0.00  0.00    +0.000 C 
ENDROOT
BRANCH   1   2
ATOM      2  C   UNL     1      43.473   5.153  12.076  0.00  0.00    +0.000 C 
ATOM      3  F   UNL     1      42.536   5.409  11.112  0.00  0.00    +0.000 F 
ATOM      4  F   UNL     1      42.775   5.108  13.251  0.00  0.00    +0.000 F 
BRANCH   2   5
ATOM      5  C   UNL     1      44.583   6.181  12.098  0.00  0.00    +0.000 A 
ATOM      6  C   UNL     1      44.354   7.486  11.648  0.00  0.00    +0.000 A 
ATOM      7  C   UNL     1      45.350   8.448  11.769  0.00  0.00    +0.000 A 
ATOM      8  C   UNL     1      46.568   8.122  12.373  0.00  0.00    +0.000 A 
ATOM      9  C   UNL     1      46.828   6.836  12.863  0.00  0.00    +0.000 A 
ATOM     10  C   UNL     1      45.830   5.868  12.665  0.00  0.00    +0.000 A 
BRANCH   9  11
ATOM     11  N   UNL     1      47.976   6.540  13.562  0.00  0.00    +0.000 N 
ATOM     12  C   UNL     1      47.984   5.618  14.707  0.00  0.00    +0.000 C 
ATOM     13  C   UNL     1      48.706   6.278  15.893  0.00  0.00    +0.000 C 
ATOM     14  O   UNL     1      50.026   6.724  15.537  0.00  0.00    +0.000 OA
ATOM     15  C   UNL     1      49.957   7.674  14.457  0.00  0.00    +0.000 C 
ATOM     16  C   UNL     1      49.302   7.064  13.210  0.00  0.00    +0.000 C 
ENDBRANCH   9  11
ENDBRANCH   2   5
ENDBRANCH   1   2
BRANCH   1  17
ATOM     17  N   UNL     1      43.701   3.163  10.517  0.00  0.00    +0.000 N 
ATOM     18  H   UNL     1      42.722   2.940  10.373  0.00  0.00    +0.000 HD
BRANCH  17  22
ATOM     19  C   UNL     1      46.438   2.708   7.341  0.00  0.00    +0.000 A 
ATOM     20  C   UNL     1      45.917   3.967   7.664  0.00  0.00    +0.000 A 
ATOM     21  C   UNL     1      45.008   4.102   8.723  0.00  0.00    +0.000 A 
ATOM     22  C   UNL     1      44.605   2.998   9.487  0.00  0.00    +0.000 A 
ATOM     23  C   UNL     1      45.129   1.751   9.140  0.00  0.00    +0.000 A 
ATOM     24  C   UNL     1      46.026   1.609   8.089  0.00  0.00    +0.000 A 
ATOM     25  F   UNL     1      46.483   0.372   7.829  0.00  0.00    +0.000 F 
BRANCH  19  27
ATOM     26  N   UNL     1      48.671   2.128   6.546  0.00  0.00    +0.000 N 
ATOM     27  C   UNL     1      47.421   2.585   6.234  0.00  0.00    +0.000 C 
ATOM     28  O   UNL     1      47.135   2.893   5.086  0.00  0.00    +0.000 OA
ATOM     29  H   UNL     1      49.364   2.086   5.812  0.00  0.00    +0.000 HD
ATOM     30  H   UNL     1      48.946   1.882   7.488  0.00  0.00    +0.000 HD
ENDBRANCH  19  27
ENDBRANCH  17  22
ENDBRANCH   1  17
TORSDOF 6
ENDMDL
MODEL 4
REMARK VINA RESULT:    -7.780      2.834      3.540
REMARK INTER + INTRA:         -11.588
REMARK INTER:                 -11.152
REMARK INTRA:                  -0.436
REMARK UNBOUND:                -1.079
REMARK  Name = 
REMARK  6 active torsions:
REMARK  status: ('A' for Active; 'I' for Inactive)
REMARK    1  A    between atoms: C_2  and  C_4
REMARK    2  A    between atoms: C_7  and  N_8
REMARK    3  A    between atoms: N_8  and  C_9
REMARK    4  A    between atoms: C_9  and  C_10
REMARK    5  A    between atoms: C_10  and  C_13
REMARK    6  A    between atoms: C_17  and  N_18
REMARK                            x       y       z     vdW  Elec       q    Type
REMARK                         _______ _______ _______ _____ _____    ______ ____
ROOT
ATOM      1  C   UNL     1      43.842   5.669  10.980  0.00  0.00    +0.000 C 
ENDROOT
BRANCH   1   2
ATOM      2  C   UNL     1      44.829   5.648  12.173  0.00  0.00    +0.000 C 
ATOM      3  F   UNL     1      44.107   5.552  13.332  0.00  0.00    +0.000 F 
ATOM      4  F   UNL     1      45.564   4.496  12.113  0.00  0.00    +0.000 F 
BRANCH   2   5
ATOM      5  C   UNL     1      45.691   6.891  12.124  0.00  0.00    +0.000 A 
ATOM      6  C   UNL     1      45.109   8.162  12.143  0.00  0.00    +0.000 A 
ATOM      7  C   UNL     1      45.913   9.295  12.201  0.00  0.00    +0.000 A 
ATOM      8  C   UNL     1      47.302   9.163  12.278  0.00  0.00    +0.000 A 
ATOM      9  C   UNL     1      47.925   7.909  12.291  0.00  0.00    +0.000 A 
ATOM     10  C   UNL     1      47.092   6.786  12.161  0.00  0.00    +0.000 A 
BRANCH   9  11
ATOM     11  N   UNL     1      49.281   7.769  12.484  0.00  0.00    +0.000 N 
ATOM     12  C   UNL     1      49.879   7.674  13.824  0.00  0.00    +0.000 C 
ATOM     13  C   UNL     1      51.043   8.671  13.939  0.00  0.00    +0.000 C 
ATOM     14  O   UNL     1      52.011   8.488  12.891  0.00  0.00    +0.000 OA
ATOM     15  C   UNL     1      51.390   8.657  11.603  0.00  0.00    +0.000 C 
ATOM     16  C   UNL     1      50.252   7.649  11.389  0.00  0.00    +0.000 C 
ENDBRANCH   9  11
ENDBRANCH   2   5
ENDBRANCH   1   2
BRANCH   1  17
ATOM     17  N   UNL     1      43.587   4.350  10.380  0.00  0.00    +0.000 N 
ATOM     18  H   UNL     1      42.678   3.930  10.538  0.00  0.00    +0.000 HD
BRANCH  17  22
ATOM     19  C   UNL     1      46.377   2.413   7.879  0.00  0.00    +0.000 A 
ATOM     20  C   UNL     1      45.510   1.675   8.694  0.00  0.00    +0.000 A 
ATOM     21  C   UNL     1      44.587   2.333   9.520  0.00  0.00    +0.000 A 
ATOM     22  C   UNL     1      44.499   3.732   9.549  0.00  0.00    +0.000 A 
ATOM     23  C   UNL     1      45.381   4.449   8.736  0.00  0.00    +0.000 A 
ATOM     24  C   UNL     1      46.300   3.803   7.920  0.00  0.00    +0.000 A 
ATOM     25  F   UNL     1      47.106   4.572   7.168  0.00  0.00    +0.000 F 
BRANCH  19  27
ATOM     26  N   UNL     1      48.420   2.397   6.546  0.00  0.00    +0.000 N 
ATOM     27  C   UNL     1      47.329   1.702   6.990  0.00  0.00    +0.000 C 
ATOM     28  O   UNL     1      47.144   0.542   6.649  0.00  0.00    +0.000 OA
ATOM     29  H   UNL     1      49.050   1.940   5.901  0.00  0.00    +0.000 HD
ATOM     30  H   UNL     1      48.594   3.361   6.794  0.00  0.00    +0.000 HD
ENDBRANCH  19  27
ENDBRANCH  17  22
ENDBRANCH   1  17
TORSDOF 6
ENDMDL
MODEL 5
REMARK VINA RESULT:    -7.712      2.330      3.170
REMARK INTER + INTRA:         -11.496
REMARK INTER:                 -10.926
REMARK INTRA:                  -0.570
REMARK UNBOUND:                -1.079
REMARK  Name = 
REMARK  6 active torsions:
REMARK  status: ('A' for Active; 'I' for Inactive)
REMARK    1  A    between atoms: C_2  and  C_4
REMARK    2  A    between atoms: C_7  and  N_8
REMARK    3  A    between atoms: N_8  and  C_9
REMARK    4  A    between atoms: C_9  and  C_10
REMARK    5  A    between atoms: C_10  and  C_13
REMARK    6  A    between atoms: C_17  and  N_18
REMARK                            x       y       z     vdW  Elec       q    Type
REMARK                         _______ _______ _______ _____ _____    ______ ____
ROOT
ATOM      1  C   UNL     1      43.995   5.084  11.253  0.00  0.00    +0.000 C 
ENDROOT
BRANCH   1   2
ATOM      2  C   UNL     1      44.948   6.281  11.497  0.00  0.00    +0.000 C 
ATOM      3  F   UNL     1      45.644   6.524  10.344  0.00  0.00    +0.000 F 
ATOM      4  F   UNL     1      44.196   7.404  11.704  0.00  0.00    +0.000 F 
BRANCH   2   5
ATOM      5  C   UNL     1      45.852   5.963  12.668  0.00  0.00    +0.000 A 
ATOM      6  C   UNL     1      45.821   4.700  13.269  0.00  0.00    +0.000 A 
ATOM      7  C   UNL     1      46.726   4.387  14.276  0.00  0.00    +0.000 A 
ATOM      8  C   UNL     1      47.694   5.319  14.662  0.00  0.00    +0.000 A 
ATOM      9  C   UNL     1      47.779   6.584  14.066  0.00  0.00    +0.000 A 
ATOM     10  C   UNL     1      46.808   6.897  13.102  0.00  0.00    +0.000 A 
BRANCH   9  11
ATOM     11  N   UNL     1      48.799   7.460  14.358  0.00  0.00    +0.000 N 
ATOM     12  C   UNL     1      49.155   8.578  13.471  0.00  0.00    +0.000 C 
ATOM     13  C   UNL     1      50.670   8.568  13.214  0.00  0.00    +0.000 C 
ATOM     14  O   UNL     1      51.422   8.578  14.440  0.00  0.00    +0.000 OA
ATOM     15  C   UNL     1      51.087   7.430  15.241  0.00  0.00    +0.000 C 
ATOM     16  C   UNL     1      49.593   7.404  15.593  0.00  0.00    +0.000 C 
ENDBRANCH   9  11
ENDBRANCH   2   5
ENDBRANCH   1   2
BRANCH   1  17
ATOM     17  N   UNL     1      43.773   4.765   9.835  0.00  0.00    +0.000 N 
ATOM     18  H   UNL     1      43.003   5.227   9.364  0.00  0.00    +0.000 HD
BRANCH  17  22
ATOM     19  C   UNL     1      46.395   2.234   7.711  0.00  0.00    +0.000 A 
ATOM     20  C   UNL     1      45.695   1.766   8.830  0.00  0.00    +0.000 A 
ATOM     21  C   UNL     1      44.826   2.619   9.525  0.00  0.00    +0.000 A 
ATOM     22  C   UNL     1      44.627   3.947   9.123  0.00  0.00    +0.000 A 
ATOM     23  C   UNL     1      45.344   4.396   8.011  0.00  0.00    +0.000 A 
ATOM     24  C   UNL     1      46.210   3.557   7.321  0.00  0.00    +0.000 A 
ATOM     25  F   UNL     1      46.855   4.073   6.260  0.00  0.00    +0.000 F 
BRANCH  19  27
ATOM     26  N   UNL     1      48.439   1.832   6.441  0.00  0.00    +0.000 N 
ATOM     27  C   UNL     1      47.290   1.311   6.968  0.00  0.00    +0.000 C 
ATOM     28  O   UNL     1      47.009   0.131   6.815  0.00  0.00    +0.000 OA
ATOM     29  H   UNL     1      49.033   1.226   5.892  0.00  0.00    +0.000 HD
ATOM     30  H   UNL     1      48.693   2.806   6.534  0.00  0.00    +0.000 HD
ENDBRANCH  19  27
ENDBRANCH  17  22
ENDBRANCH   1  17
TORSDOF 6
ENDMDL
MODEL 6
REMARK VINA RESULT:    -7.686      1.570      1.988
REMARK INTER + INTRA:         -11.460
REMARK INTER:                 -10.418
REMARK INTRA:                  -1.042
REMARK UNBOUND:                -1.079
REMARK  Name = 
REMARK  6 active torsions:
REMARK  status: ('A' for Active; 'I' for Inactive)
REMARK    1  A    between atoms: C_2  and  C_4
REMARK    2  A    between atoms: C_7  and  N_8
REMARK    3  A    between atoms: N_8  and  C_9
REMARK    4  A    between atoms: C_9  and  C_10
REMARK    5  A    between atoms: C_10  and  C_13
REMARK    6  A    between atoms: C_17  and  N_18
REMARK                            x       y       z     vdW  Elec       q    Type
REMARK                         _______ _______ _______ _____ _____    ______ ____
ROOT
ATOM      1  C   UNL     1      44.895   4.819  12.036  0.00  0.00    +0.000 C 
ENDROOT
BRANCH   1   2
ATOM      2  C   UNL     1      45.147   6.343  12.157  0.00  0.00    +0.000 C 
ATOM      3  F   UNL     1      44.662   6.953  11.032  0.00  0.00    +0.000 F 
ATOM      4  F   UNL     1      44.390   6.831  13.184  0.00  0.00    +0.000 F 
BRANCH   2   5
ATOM      5  C   UNL     1      46.627   6.585  12.359  0.00  0.00    +0.000 A 
ATOM      6  C   UNL     1      47.392   7.196  11.360  0.00  0.00    +0.000 A 
ATOM      7  C   UNL     1      48.726   7.506  11.597  0.00  0.00    +0.000 A 
ATOM      8  C   UNL     1      49.295   7.241  12.846  0.00  0.00    +0.000 A 
ATOM      9  C   UNL     1      48.557   6.657  13.884  0.00  0.00    +0.000 A 
ATOM     10  C   UNL     1      47.233   6.292  13.593  0.00  0.00    +0.000 A 
BRANCH   9  11
ATOM     11  N   UNL     1      49.076   6.501  15.149  0.00  0.00    +0.000 N 
ATOM     12  C   UNL     1      48.449   5.630  16.154  0.00  0.00    +0.000 C 
ATOM     13  C   UNL     1      48.283   6.403  17.473  0.00  0.00    +0.000 C 
ATOM     14  O   UNL     1      49.528   6.960  17.927  0.00  0.00    +0.000 OA
ATOM     15  C   UNL     1      50.066   7.856  16.937  0.00  0.00    +0.000 C 
ATOM     16  C   UNL     1      50.319   7.137  15.604  0.00  0.00    +0.000 C 
ENDBRANCH   9  11
ENDBRANCH   2   5
ENDBRANCH   1   2
BRANCH   1  17
ATOM     17  N   UNL     1      44.258   4.408  10.776  0.00  0.00    +0.000 N 
ATOM     18  H   UNL     1      43.270   4.607  10.661  0.00  0.00    +0.000 HD
BRANCH  17  22
ATOM     19  C   UNL     1      46.444   2.782   7.556  0.00  0.00    +0.000 A 
ATOM     20  C   UNL     1      46.386   4.166   7.758  0.00  0.00    +0.000 A 
ATOM     21  C   UNL     1      45.656   4.692   8.833  0.00  0.00    +0.000 A 
ATOM     22  C   UNL     1      44.977   3.859   9.733  0.00  0.00    +0.000 A 
ATOM     23  C   UNL     1      45.039   2.482   9.506  0.00  0.00    +0.000 A 
ATOM     24  C   UNL     1      45.757   1.955   8.440  0.00  0.00    +0.000 A 
ATOM     25  F   UNL     1      45.765   0.619   8.301  0.00  0.00    +0.000 F 
BRANCH  19  27
ATOM     26  N   UNL     1      46.877   2.597   5.162  0.00  0.00    +0.000 N 
ATOM     27  C   UNL     1      47.244   2.239   6.429  0.00  0.00    +0.000 C 
ATOM     28  O   UNL     1      48.189   1.485   6.619  0.00  0.00    +0.000 OA
ATOM     29  H   UNL     1      47.382   2.196   4.384  0.00  0.00    +0.000 HD
ATOM     30  H   UNL     1      46.091   3.203   4.969  0.00  0.00    +0.000 HD
ENDBRANCH  19  27
ENDBRANCH  17  22
ENDBRANCH   1  17
TORSDOF 6
ENDMDL
MODEL 7
REMARK VINA RESULT:    -7.452      2.430      3.164
REMARK INTER + INTRA:         -11.144
REMARK INTER:                 -10.124
REMARK INTRA:                  -1.020
REMARK UNBOUND:                -1.079
REMARK  Name = 
REMARK  6 active torsions:
REMARK  status: ('A' for Active; 'I' for Inactive)
REMARK    1  A    between atoms: C_2  and  C_4
REMARK    2  A    between atoms: C_7  and  N_8
REMARK    3  A    between atoms: N_8  and  C_9
REMARK    4  A    between atoms: C_9  and  C_10
REMARK    5  A    between atoms: C_10  and  C_13
REMARK    6  A    between atoms: C_17  and  N_18
REMARK                            x       y       z     vdW  Elec       q    Type
REMARK                         _______ _______ _______ _____ _____    ______ ____
ROOT
ATOM      1  C   UNL     1      44.171   4.188  11.860  0.00  0.00    +0.000 C 
ENDROOT
BRANCH   1   2
ATOM      2  C   UNL     1      43.237   5.400  12.100  0.00  0.00    +0.000 C 
ATOM      3  F   UNL     1      42.132   5.261  11.306  0.00  0.00    +0.000 F 
ATOM      4  F   UNL     1      42.766   5.342  13.382  0.00  0.00    +0.000 F 
BRANCH   2   5
ATOM      5  C   UNL     1      44.000   6.676  11.819  0.00  0.00    +0.000 A 
ATOM      6  C   UNL     1      43.358   7.778  11.244  0.00  0.00    +0.000 A 
ATOM      7  C   UNL     1      44.042   8.977  11.084  0.00  0.00    +0.000 A 
ATOM      8  C   UNL     1      45.361   9.095  11.533  0.00  0.00    +0.000 A 
ATOM      9  C   UNL     1      46.032   8.026  12.140  0.00  0.00    +0.000 A 
ATOM     10  C   UNL     1      45.339   6.808  12.224  0.00  0.00    +0.000 A 
BRANCH   9  11
ATOM     11  N   UNL     1      47.287   8.169  12.688  0.00  0.00    +0.000 N 
ATOM     12  C   UNL     1      48.512   8.099  11.878  0.00  0.00    +0.000 C 
ATOM     13  C   UNL     1      49.504   7.122  12.530  0.00  0.00    +0.000 C 
ATOM     14  O   UNL     1      49.771   7.465  13.901  0.00  0.00    +0.000 OA
ATOM     15  C   UNL     1      48.550   7.454  14.664  0.00  0.00    +0.000 C 
ATOM     16  C   UNL     1      47.528   8.455  14.108  0.00  0.00    +0.000 C 
ENDBRANCH   9  11
ENDBRANCH   2   5
ENDBRANCH   1   2
BRANCH   1  17
ATOM     17  N   UNL     1      43.809   3.364  10.697  0.00  0.00    +0.000 N 
ATOM     18  H   UNL     1      42.853   3.031  10.636  0.00  0.00    +0.000 HD
BRANCH  17  22
ATOM     19  C   UNL     1      46.518   2.568   7.564  0.00  0.00    +0.000 A 
ATOM     20  C   UNL     1      45.802   1.532   8.174  0.00  0.00    +0.000 A 
ATOM     21  C   UNL     1      44.904   1.812   9.214  0.00  0.00    +0.000 A 
ATOM     22  C   UNL     1      44.692   3.122   9.664  0.00  0.00    +0.000 A 
ATOM     23  C   UNL     1      45.425   4.140   9.048  0.00  0.00    +0.000 A 
ATOM     24  C   UNL     1      46.319   3.868   8.021  0.00  0.00    +0.000 A 
ATOM     25  F   UNL     1      46.978   4.909   7.484  0.00  0.00    +0.000 F 
BRANCH  19  27
ATOM     26  N   UNL     1      47.240   2.905   5.258  0.00  0.00    +0.000 N 
ATOM     27  C   UNL     1      47.444   2.259   6.445  0.00  0.00    +0.000 C 
ATOM     28  O   UNL     1      48.349   1.446   6.568  0.00  0.00    +0.000 OA
ATOM     29  H   UNL     1      47.832   2.668   4.474  0.00  0.00    +0.000 HD
ATOM     30  H   UNL     1      46.491   3.569   5.116  0.00  0.00    +0.000 HD
ENDBRANCH  19  27
ENDBRANCH  17  22
ENDBRANCH   1  17
TORSDOF 6
ENDMDL
MODEL 8
REMARK VINA RESULT:    -7.413      2.391      8.165
REMARK INTER + INTRA:         -11.092
REMARK INTER:                 -10.027
REMARK INTRA:                  -1.066
REMARK UNBOUND:                -1.079
REMARK  Name = 
REMARK  6 active torsions:
REMARK  status: ('A' for Active; 'I' for Inactive)
REMARK    1  A    between atoms: C_2  and  C_4
REMARK    2  A    between atoms: C_7  and  N_8
REMARK    3  A    between atoms: N_8  and  C_9
REMARK    4  A    between atoms: C_9  and  C_10
REMARK    5  A    between atoms: C_10  and  C_13
REMARK    6  A    between atoms: C_17  and  N_18
REMARK                            x       y       z     vdW  Elec       q    Type
REMARK                         _______ _______ _______ _____ _____    ______ ____
ROOT
ATOM      1  C   UNL     1      47.035   6.518  12.570  0.00  0.00    +0.000 C 
ENDROOT
BRANCH   1   2
ATOM      2  C   UNL     1      45.533   6.644  12.212  0.00  0.00    +0.000 C 
ATOM      3  F   UNL     1      44.878   7.200  13.277  0.00  0.00    +0.000 F 
ATOM      4  F   UNL     1      45.400   7.550  11.197  0.00  0.00    +0.000 F 
BRANCH   2   5
ATOM      5  C   UNL     1      44.996   5.277  11.846  0.00  0.00    +0.000 A 
ATOM      6  C   UNL     1      44.012   4.665  12.631  0.00  0.00    +0.000 A 
ATOM      7  C   UNL     1      43.453   3.458  12.228  0.00  0.00    +0.000 A 
ATOM      8  C   UNL     1      43.845   2.873  11.020  0.00  0.00    +0.000 A 
ATOM      9  C   UNL     1      44.805   3.467  10.191  0.00  0.00    +0.000 A 
ATOM     10  C   UNL     1      45.402   4.649  10.656  0.00  0.00    +0.000 A 
BRANCH   9  11
ATOM     11  N   UNL     1      45.110   2.958   8.948  0.00  0.00    +0.000 N 
ATOM     12  C   UNL     1      45.238   1.515   8.699  0.00  0.00    +0.000 C 
ATOM     13  C   UNL     1      46.556   1.236   7.959  0.00  0.00    +0.000 C 
ATOM     14  O   UNL     1      46.670   2.015   6.755  0.00  0.00    +0.000 OA
ATOM     15  C   UNL     1      46.606   3.420   7.062  0.00  0.00    +0.000 C 
ATOM     16  C   UNL     1      45.284   3.788   7.749  0.00  0.00    +0.000 C 
ENDBRANCH   9  11
ENDBRANCH   2   5
ENDBRANCH   1   2
BRANCH   1  17
ATOM     17  N   UNL     1      47.370   6.940  13.938  0.00  0.00    +0.000 N 
ATOM     18  H   UNL     1      47.223   7.914  14.179  0.00  0.00    +0.000 HD
BRANCH  17  22
ATOM     19  C   UNL     1      48.557   4.177  16.896  0.00  0.00    +0.000 A 
ATOM     20  C   UNL     1      47.556   3.854  15.972  0.00  0.00    +0.000 A 
ATOM     21  C   UNL     1      47.172   4.782  14.994  0.00  0.00    +0.000 A 
ATOM     22  C   UNL     1      47.777   6.044  14.906  0.00  0.00    +0.000 A 
ATOM     23  C   UNL     1      48.765   6.350  15.845  0.00  0.00    +0.000 A 
ATOM     24  C   UNL     1      49.146   5.435  16.819  0.00  0.00    +0.000 A 
ATOM     25  F   UNL     1      50.109   5.813  17.678  0.00  0.00    +0.000 F 
BRANCH  19  27
ATOM     26  N   UNL     1      48.283   3.143  19.089  0.00  0.00    +0.000 N 
ATOM     27  C   UNL     1      48.971   3.173  17.908  0.00  0.00    +0.000 C 
ATOM     28  O   UNL     1      49.904   2.407  17.707  0.00  0.00    +0.000 OA
ATOM     29  H   UNL     1      48.586   2.498  19.805  0.00  0.00    +0.000 HD
ATOM     30  H   UNL     1      47.519   3.773  19.295  0.00  0.00    +0.000 HD
ENDBRANCH  19  27
ENDBRANCH  17  22
ENDBRANCH   1  17
TORSDOF 6
ENDMDL
MODEL 9
REMARK VINA RESULT:    -6.849      3.228      4.989
REMARK INTER + INTRA:         -10.331
REMARK INTER:                  -9.131
REMARK INTRA:                  -1.199
REMARK UNBOUND:                -1.079
REMARK  Name = 
REMARK  6 active torsions:
REMARK  status: ('A' for Active; 'I' for Inactive)
REMARK    1  A    between atoms: C_2  and  C_4
REMARK    2  A    between atoms: C_7  and  N_8
REMARK    3  A    between atoms: N_8  and  C_9
REMARK    4  A    between atoms: C_9  and  C_10
REMARK    5  A    between atoms: C_10  and  C_13
REMARK    6  A    between atoms: C_17  and  N_18
REMARK                            x       y       z     vdW  Elec       q    Type
REMARK                         _______ _______ _______ _____ _____    ______ ____
ROOT
ATOM      1  C   UNL     1      47.038   8.485  12.601  0.00  0.00    +0.000 C 
ENDROOT
BRANCH   1   2
ATOM      2  C   UNL     1      48.493   8.091  12.958  0.00  0.00    +0.000 C 
ATOM      3  F   UNL     1      48.781   6.898  12.353  0.00  0.00    +0.000 F 
ATOM      4  F   UNL     1      49.344   8.997  12.388  0.00  0.00    +0.000 F 
BRANCH   2   5
ATOM      5  C   UNL     1      48.634   8.030  14.464  0.00  0.00    +0.000 A 
ATOM      6  C   UNL     1      48.530   9.191  15.236  0.00  0.00    +0.000 A 
ATOM      7  C   UNL     1      48.558   9.108  16.624  0.00  0.00    +0.000 A 
ATOM      8  C   UNL     1      48.652   7.861  17.249  0.00  0.00    +0.000 A 
ATOM      9  C   UNL     1      48.729   6.672  16.513  0.00  0.00    +0.000 A 
ATOM     10  C   UNL     1      48.768   6.792  15.115  0.00  0.00    +0.000 A 
BRANCH   9  11
ATOM     11  N   UNL     1      48.704   5.436  17.120  0.00  0.00    +0.000 N 
ATOM     12  C   UNL     1      49.794   4.963  17.986  0.00  0.00    +0.000 C 
ATOM     13  C   UNL     1      50.225   3.554  17.547  0.00  0.00    +0.000 C 
ATOM     14  O   UNL     1      49.115   2.641  17.510  0.00  0.00    +0.000 OA
ATOM     15  C   UNL     1      48.107   3.116  16.598  0.00  0.00    +0.000 C 
ATOM     16  C   UNL     1      47.580   4.498  17.010  0.00  0.00    +0.000 C 
ENDBRANCH   9  11
ENDBRANCH   2   5
ENDBRANCH   1   2
BRANCH   1  17
ATOM     17  N   UNL     1      46.009   7.685  13.280  0.00  0.00    +0.000 N 
ATOM     18  H   UNL     1      45.601   8.064  14.127  0.00  0.00    +0.000 HD
BRANCH  17  22
ATOM     19  C   UNL     1      44.484   4.102  11.658  0.00  0.00    +0.000 A 
ATOM     20  C   UNL     1      43.961   5.343  11.276  0.00  0.00    +0.000 A 
ATOM     21  C   UNL     1      44.478   6.525  11.823  0.00  0.00    +0.000 A 
ATOM     22  C   UNL     1      45.528   6.503  12.751  0.00  0.00    +0.000 A 
ATOM     23  C   UNL     1      46.028   5.254  13.127  0.00  0.00    +0.000 A 
ATOM     24  C   UNL     1      45.516   4.079  12.592  0.00  0.00    +0.000 A 
ATOM     25  F   UNL     1      46.060   2.922  13.007  0.00  0.00    +0.000 F 
BRANCH  19  27
ATOM     26  N   UNL     1      44.586   2.365   9.948  0.00  0.00    +0.000 N 
ATOM     27  C   UNL     1      43.944   2.860  11.049  0.00  0.00    +0.000 C 
ATOM     28  O   UNL     1      42.953   2.304  11.500  0.00  0.00    +0.000 OA
ATOM     29  H   UNL     1      44.201   1.548   9.495  0.00  0.00    +0.000 HD
ATOM     30  H   UNL     1      45.397   2.809   9.539  0.00  0.00    +0.000 HD
ENDBRANCH  19  27
ENDBRANCH  17  22
ENDBRANCH   1  17
TORSDOF 6
ENDMDL
