MODEL 1
REMARK VINA RESULT:    -9.187      0.000      0.000
REMARK INTER + INTRA:         -14.021
REMARK INTER:                 -12.947
REMARK INTRA:                  -1.075
REMARK UNBOUND:                -1.075
REMARK  Name = 
REMARK  8 active torsions:
REMARK  status: ('A' for Active; 'I' for Inactive)
REMARK    1  A    between atoms: C_1  and  C_2
REMARK    2  A    between atoms: C_4  and  O_5
REMARK    3  A    between atoms: O_5  and  C_6
REMARK    4  A    between atoms: C_6  and  C_7
REMARK    5  A    between atoms: C_7  and  C_10
REMARK    6  A    between atoms: C_14  and  O_15
REMARK    7  A    between atoms: O_15  and  C_16
REMARK    8  A    between atoms: C_23  and  C_24
REMARK                            x       y       z     vdW  Elec       q    Type
REMARK                         _______ _______ _______ _____ _____    ______ ____
ROOT
ATOM      1  C   UNL     1      43.524   4.420  10.782  0.00  0.00    +0.000 C 
ENDROOT
BRANCH   1   2
ATOM      2  C   UNL     1      43.822   4.576  12.281  0.00  0.00    +0.000 C 
ATOM      3  F   UNL     1      42.849   5.354  12.843  0.00  0.00    +0.000 F 
ATOM      4  F   UNL     1      43.700   3.354  12.882  0.00  0.00    +0.000 F 
BRANCH   2   5
ATOM      5  C   UNL     1      45.209   5.166  12.489  0.00  0.00    +0.000 A 
ATOM      6  C   UNL     1      45.738   6.086  11.572  0.00  0.00    +0.000 A 
ATOM      7  C   UNL     1      46.996   6.657  11.784  0.00  0.00    +0.000 A 
ATOM      8  C   UNL     1      47.745   6.317  12.914  0.00  0.00    +0.000 A 
ATOM      9  C   UNL     1      47.237   5.399  13.830  0.00  0.00    +0.000 A 
ATOM     10  C   UNL     1      45.974   4.833  13.619  0.00  0.00    +0.000 A 
BRANCH   9  11
ATOM     11  O   UNL     1      47.864   5.011  14.987  0.00  0.00    +0.000 OA
BRANCH  11  12
ATOM     12  C   UNL     1      47.225   4.057  15.863  0.00  0.00    +0.000 C 
ATOM     13  C   UNL     1      47.174   4.402  17.373  0.00  0.00    +0.000 C 
ATOM     14  C   UNL     1      47.563   2.945  17.676  0.00  0.00    +0.000 C 
ATOM     15  C   UNL     1      48.132   2.858  16.252  0.00  0.00    +0.000 C 
ENDBRANCH  11  12
ENDBRANCH   9  11
ENDBRANCH   2   5
ENDBRANCH   1   2
BRANCH   1  16
ATOM     16  O   UNL     1      43.705   3.059  10.336  0.00  0.00    +0.000 OA
BRANCH  16  20
ATOM     17  C   UNL     1      46.697   0.247   7.689  0.00  0.00    +0.000 C 
ATOM     18  C   UNL     1      46.102   1.597   7.985  0.00  0.00    +0.000 A 
ATOM     19  C   UNL     1      45.169   1.723   9.032  0.00  0.00    +0.000 A 
ATOM     20  C   UNL     1      44.622   2.972   9.306  0.00  0.00    +0.000 A 
ATOM     21  N   UNL     1      44.945   4.085   8.620  0.00  0.00    +0.000 NA
ATOM     22  C   UNL     1      45.850   3.948   7.624  0.00  0.00    +0.000 A 
ATOM     23  C   UNL     1      46.444   2.747   7.251  0.00  0.00    +0.000 A 
BRANCH  23  24
ATOM     24  C   UNL     1      47.428   2.736   6.137  0.00  0.00    +0.000 C 
ATOM     25  N   UNL     1      48.755   2.624   6.463  0.00  0.00    +0.000 N 
ATOM     26  O   UNL     1      47.099   2.832   4.963  0.00  0.00    +0.000 OA
ATOM     27  H   UNL     1      49.124   2.737   7.397  0.00  0.00    +0.000 HD
ATOM     28  H   UNL     1      49.412   2.687   5.695  0.00  0.00    +0.000 HD
ENDBRANCH  23  24
ENDBRANCH  16  20
ENDBRANCH   1  16
TORSDOF 7
ENDMDL
MODEL 2
REMARK VINA RESULT:    -8.233      1.706      3.515
REMARK INTER + INTRA:         -12.677
REMARK INTER:                 -11.650
REMARK INTRA:                  -1.027
REMARK UNBOUND:                -1.075
REMARK  Name = 
REMARK  8 active torsions:
REMARK  status: ('A' for Active; 'I' for Inactive)
REMARK    1  A    between atoms: C_1  and  C_2
REMARK    2  A    between atoms: C_4  and  O_5
REMARK    3  A    between atoms: O_5  and  C_6
REMARK    4  A    between atoms: C_6  and  C_7
REMARK    5  A    between atoms: C_7  and  C_10
REMARK    6  A    between atoms: C_14  and  O_15
REMARK    7  A    between atoms: O_15  and  C_16
REMARK    8  A    between atoms: C_23  and  C_24
REMARK                            x       y       z     vdW  Elec       q    Type
REMARK                         _______ _______ _______ _____ _____    ______ ____
ROOT
ATOM      1  C   UNL     1      43.395   4.328  10.829  0.00  0.00    +0.000 C 
ENDROOT
BRANCH   1   2
ATOM      2  C   UNL     1      43.504   4.580  12.341  0.00  0.00    +0.000 C 
ATOM      3  F   UNL     1      42.534   5.469  12.709  0.00  0.00    +0.000 F 
ATOM      4  F   UNL     1      43.204   3.422  13.002  0.00  0.00    +0.000 F 
BRANCH   2   5
ATOM      5  C   UNL     1      44.896   5.083  12.696  0.00  0.00    +0.000 A 
ATOM      6  C   UNL     1      45.709   4.365  13.584  0.00  0.00    +0.000 A 
ATOM      7  C   UNL     1      47.002   4.808  13.879  0.00  0.00    +0.000 A 
ATOM      8  C   UNL     1      47.501   5.974  13.293  0.00  0.00    +0.000 A 
ATOM      9  C   UNL     1      46.702   6.703  12.415  0.00  0.00    +0.000 A 
ATOM     10  C   UNL     1      45.411   6.255  12.115  0.00  0.00    +0.000 A 
BRANCH   9  11
ATOM     11  O   UNL     1      47.092   7.843  11.758  0.00  0.00    +0.000 OA
BRANCH  11  12
ATOM     12  C   UNL     1      46.912   9.130  12.388  0.00  0.00    +0.000 C 
ATOM     13  C   UNL     1      45.800  10.049  11.821  0.00  0.00    +0.000 C 
ATOM     14  C   UNL     1      46.782  11.229  11.924  0.00  0.00    +0.000 C 
ATOM     15  C   UNL     1      47.927  10.206  11.916  0.00  0.00    +0.000 C 
ENDBRANCH  11  12
ENDBRANCH   9  11
ENDBRANCH   2   5
ENDBRANCH   1   2
BRANCH   1  16
ATOM     16  O   UNL     1      43.746   2.972  10.483  0.00  0.00    +0.000 OA
BRANCH  16  20
ATOM     17  C   UNL     1      46.689   0.264   7.677  0.00  0.00    +0.000 C 
ATOM     18  C   UNL     1      46.096   1.600   8.031  0.00  0.00    +0.000 A 
ATOM     19  C   UNL     1      45.186   1.687   9.103  0.00  0.00    +0.000 A 
ATOM     20  C   UNL     1      44.640   2.923   9.431  0.00  0.00    +0.000 A 
ATOM     21  N   UNL     1      44.943   4.061   8.776  0.00  0.00    +0.000 NA
ATOM     22  C   UNL     1      45.826   3.961   7.756  0.00  0.00    +0.000 A 
ATOM     23  C   UNL     1      46.416   2.776   7.329  0.00  0.00    +0.000 A 
BRANCH  23  24
ATOM     24  C   UNL     1      47.376   2.807   6.194  0.00  0.00    +0.000 C 
ATOM     25  N   UNL     1      48.713   2.722   6.490  0.00  0.00    +0.000 N 
ATOM     26  O   UNL     1      47.019   2.915   5.030  0.00  0.00    +0.000 OA
ATOM     27  H   UNL     1      49.099   2.829   7.417  0.00  0.00    +0.000 HD
ATOM     28  H   UNL     1      49.350   2.813   5.708  0.00  0.00    +0.000 HD
ENDBRANCH  23  24
ENDBRANCH  16  20
ENDBRANCH   1  16
TORSDOF 7
ENDMDL
MODEL 3
REMARK VINA RESULT:    -8.067      1.516      1.919
REMARK INTER + INTRA:         -12.442
REMARK INTER:                 -11.564
REMARK INTRA:                  -0.879
REMARK UNBOUND:                -1.075
REMARK  Name = 
REMARK  8 active torsions:
REMARK  status: ('A' for Active; 'I' for Inactive)
REMARK    1  A    between atoms: C_1  and  C_2
REMARK    2  A    between atoms: C_4  and  O_5
REMARK    3  A    between atoms: O_5  and  C_6
REMARK    4  A    between atoms: C_6  and  C_7
REMARK    5  A    between atoms: C_7  and  C_10
REMARK    6  A    between atoms: C_14  and  O_15
REMARK    7  A    between atoms: O_15  and  C_16
REMARK    8  A    between atoms: C_23  and  C_24
REMARK                            x       y       z     vdW  Elec       q    Type
REMARK                         _______ _______ _______ _____ _____    ______ ____
ROOT
ATOM      1  C   UNL     1      44.343   3.369  11.614  0.00  0.00    +0.000 C 
ENDROOT
BRANCH   1   2
ATOM      2  C   UNL     1      43.756   4.675  12.172  0.00  0.00    +0.000 C 
ATOM      3  F   UNL     1      42.777   5.113  11.324  0.00  0.00    +0.000 F 
ATOM      4  F   UNL     1      43.117   4.402  13.350  0.00  0.00    +0.000 F 
BRANCH   2   5
ATOM      5  C   UNL     1      44.851   5.714  12.357  0.00  0.00    +0.000 A 
ATOM      6  C   UNL     1      44.710   7.003  11.824  0.00  0.00    +0.000 A 
ATOM      7  C   UNL     1      45.700   7.968  12.028  0.00  0.00    +0.000 A 
ATOM      8  C   UNL     1      46.846   7.661  12.766  0.00  0.00    +0.000 A 
ATOM      9  C   UNL     1      47.006   6.382  13.295  0.00  0.00    +0.000 A 
ATOM     10  C   UNL     1      46.010   5.419  13.095  0.00  0.00    +0.000 A 
BRANCH   9  11
ATOM     11  O   UNL     1      48.070   5.973  14.059  0.00  0.00    +0.000 OA
BRANCH  11  12
ATOM     12  C   UNL     1      48.685   6.897  14.982  0.00  0.00    +0.000 C 
ATOM     13  C   UNL     1      50.131   7.358  14.667  0.00  0.00    +0.000 C 
ATOM     14  C   UNL     1      50.471   7.167  16.155  0.00  0.00    +0.000 C 
ATOM     15  C   UNL     1      49.267   6.219  16.252  0.00  0.00    +0.000 C 
ENDBRANCH  11  12
ENDBRANCH   9  11
ENDBRANCH   2   5
ENDBRANCH   1   2
BRANCH   1  16
ATOM     16  O   UNL     1      43.721   2.989  10.369  0.00  0.00    +0.000 OA
BRANCH  16  20
ATOM     17  C   UNL     1      46.733   0.240   7.677  0.00  0.00    +0.000 C 
ATOM     18  C   UNL     1      46.126   1.580   7.992  0.00  0.00    +0.000 A 
ATOM     19  C   UNL     1      45.195   1.684   9.043  0.00  0.00    +0.000 A 
ATOM     20  C   UNL     1      44.635   2.923   9.335  0.00  0.00    +0.000 A 
ATOM     21  N   UNL     1      44.945   4.049   8.662  0.00  0.00    +0.000 NA
ATOM     22  C   UNL     1      45.848   3.933   7.661  0.00  0.00    +0.000 A 
ATOM     23  C   UNL     1      46.453   2.744   7.271  0.00  0.00    +0.000 A 
BRANCH  23  24
ATOM     24  C   UNL     1      47.434   2.757   6.154  0.00  0.00    +0.000 C 
ATOM     25  N   UNL     1      48.762   2.635   6.474  0.00  0.00    +0.000 N 
ATOM     26  O   UNL     1      47.102   2.880   4.984  0.00  0.00    +0.000 OA
ATOM     27  H   UNL     1      49.134   2.727   7.409  0.00  0.00    +0.000 HD
ATOM     28  H   UNL     1      49.416   2.715   5.705  0.00  0.00    +0.000 HD
ENDBRANCH  23  24
ENDBRANCH  16  20
ENDBRANCH   1  16
TORSDOF 7
ENDMDL
MODEL 4
REMARK VINA RESULT:    -7.568      2.553      3.139
REMARK INTER + INTRA:         -11.739
REMARK INTER:                 -10.798
REMARK INTRA:                  -0.941
REMARK UNBOUND:                -1.075
REMARK  Name = 
REMARK  8 active torsions:
REMARK  status: ('A' for Active; 'I' for Inactive)
REMARK    1  A    between atoms: C_1  and  C_2
REMARK    2  A    between atoms: C_4  and  O_5
REMARK    3  A    between atoms: O_5  and  C_6
REMARK    4  A    between atoms: C_6  and  C_7
REMARK    5  A    between atoms: C_7  and  C_10
REMARK    6  A    between atoms: C_14  and  O_15
REMARK    7  A    between atoms: O_15  and  C_16
REMARK    8  A    between atoms: C_23  and  C_24
REMARK                            x       y       z     vdW  Elec       q    Type
REMARK                         _______ _______ _______ _____ _____    ______ ____
ROOT
ATOM      1  C   UNL     1      43.732   4.859  10.733  0.00  0.00    +0.000 C 
ENDROOT
BRANCH   1   2
ATOM      2  C   UNL     1      44.222   5.284  12.126  0.00  0.00    +0.000 C 
ATOM      3  F   UNL     1      43.197   5.129  13.018  0.00  0.00    +0.000 F 
ATOM      4  F   UNL     1      45.192   4.412  12.536  0.00  0.00    +0.000 F 
BRANCH   2   5
ATOM      5  C   UNL     1      44.733   6.716  12.095  0.00  0.00    +0.000 A 
ATOM      6  C   UNL     1      44.087   7.688  11.319  0.00  0.00    +0.000 A 
ATOM      7  C   UNL     1      44.534   9.012  11.322  0.00  0.00    +0.000 A 
ATOM      8  C   UNL     1      45.635   9.385  12.098  0.00  0.00    +0.000 A 
ATOM      9  C   UNL     1      46.294   8.429  12.868  0.00  0.00    +0.000 A 
ATOM     10  C   UNL     1      45.839   7.105  12.870  0.00  0.00    +0.000 A 
BRANCH   9  11
ATOM     11  O   UNL     1      47.363   8.680  13.691  0.00  0.00    +0.000 OA
BRANCH  11  12
ATOM     12  C   UNL     1      48.653   8.980  13.116  0.00  0.00    +0.000 C 
ATOM     13  C   UNL     1      48.989   8.330  11.749  0.00  0.00    +0.000 C 
ATOM     14  C   UNL     1      50.395   8.017  12.291  0.00  0.00    +0.000 C 
ATOM     15  C   UNL     1      49.815   8.136  13.708  0.00  0.00    +0.000 C 
ENDBRANCH  11  12
ENDBRANCH   9  11
ENDBRANCH   2   5
ENDBRANCH   1   2
BRANCH   1  16
ATOM     16  O   UNL     1      43.985   3.461  10.478  0.00  0.00    +0.000 OA
BRANCH  16  20
ATOM     17  C   UNL     1      46.603   0.367   7.749  0.00  0.00    +0.000 C 
ATOM     18  C   UNL     1      46.125   1.764   8.037  0.00  0.00    +0.000 A 
ATOM     19  C   UNL     1      45.269   1.987   9.132  0.00  0.00    +0.000 A 
ATOM     20  C   UNL     1      44.829   3.279   9.399  0.00  0.00    +0.000 A 
ATOM     21  N   UNL     1      45.188   4.347   8.660  0.00  0.00    +0.000 NA
ATOM     22  C   UNL     1      46.018   4.117   7.617  0.00  0.00    +0.000 A 
ATOM     23  C   UNL     1      46.501   2.866   7.248  0.00  0.00    +0.000 A 
BRANCH  23  24
ATOM     24  C   UNL     1      47.413   2.753   6.079  0.00  0.00    +0.000 C 
ATOM     25  N   UNL     1      48.745   2.545   6.330  0.00  0.00    +0.000 N 
ATOM     26  O   UNL     1      47.022   2.849   4.924  0.00  0.00    +0.000 OA
ATOM     27  H   UNL     1      49.177   2.650   7.237  0.00  0.00    +0.000 HD
ATOM     28  H   UNL     1      49.356   2.539   5.523  0.00  0.00    +0.000 HD
ENDBRANCH  23  24
ENDBRANCH  16  20
ENDBRANCH   1  16
TORSDOF 7
ENDMDL
MODEL 5
REMARK VINA RESULT:    -7.555      3.130      8.097
REMARK INTER + INTRA:         -11.721
REMARK INTER:                 -10.688
REMARK INTRA:                  -1.034
REMARK UNBOUND:                -1.075
REMARK  Name = 
REMARK  8 active torsions:
REMARK  status: ('A' for Active; 'I' for Inactive)
REMARK    1  A    between atoms: C_1  and  C_2
REMARK    2  A    between atoms: C_4  and  O_5
REMARK    3  A    between atoms: O_5  and  C_6
REMARK    4  A    between atoms: C_6  and  C_7
REMARK    5  A    between atoms: C_7  and  C_10
REMARK    6  A    between atoms: C_14  and  O_15
REMARK    7  A    between atoms: O_15  and  C_16
REMARK    8  A    between atoms: C_23  and  C_24
REMARK                            x       y       z     vdW  Elec       q    Type
REMARK                         _______ _______ _______ _____ _____    ______ ____
ROOT
ATOM      1  C   UNL     1      46.509   6.469  12.445  0.00  0.00    +0.000 C 
ENDROOT
BRANCH   1   2
ATOM      2  C   UNL     1      45.048   6.339  11.990  0.00  0.00    +0.000 C 
ATOM      3  F   UNL     1      44.251   6.238  13.096  0.00  0.00    +0.000 F 
ATOM      4  F   UNL     1      44.672   7.503  11.380  0.00  0.00    +0.000 F 
BRANCH   2   5
ATOM      5  C   UNL     1      44.884   5.143  11.064  0.00  0.00    +0.000 A 
ATOM      6  C   UNL     1      44.147   4.021  11.471  0.00  0.00    +0.000 A 
ATOM      7  C   UNL     1      43.965   2.940  10.604  0.00  0.00    +0.000 A 
ATOM      8  C   UNL     1      44.516   2.961   9.320  0.00  0.00    +0.000 A 
ATOM      9  C   UNL     1      45.257   4.064   8.905  0.00  0.00    +0.000 A 
ATOM     10  C   UNL     1      45.433   5.150   9.771  0.00  0.00    +0.000 A 
BRANCH   9  11
ATOM     11  O   UNL     1      45.820   4.213   7.662  0.00  0.00    +0.000 OA
BRANCH  11  12
ATOM     12  C   UNL     1      46.135   3.044   6.875  0.00  0.00    +0.000 C 
ATOM     13  C   UNL     1      47.419   2.260   7.252  0.00  0.00    +0.000 C 
ATOM     14  C   UNL     1      47.743   2.153   5.752  0.00  0.00    +0.000 C 
ATOM     15  C   UNL     1      46.830   3.366   5.524  0.00  0.00    +0.000 C 
ENDBRANCH  11  12
ENDBRANCH   9  11
ENDBRANCH   2   5
ENDBRANCH   1   2
BRANCH   1  16
ATOM     16  O   UNL     1      47.050   5.205  12.886  0.00  0.00    +0.000 OA
BRANCH  16  20
ATOM     17  C   UNL     1      47.107   3.224  17.351  0.00  0.00    +0.000 C 
ATOM     18  C   UNL     1      47.553   4.300  16.399  0.00  0.00    +0.000 A 
ATOM     19  C   UNL     1      47.099   4.271  15.066  0.00  0.00    +0.000 A 
ATOM     20  C   UNL     1      47.510   5.267  14.187  0.00  0.00    +0.000 A 
ATOM     21  N   UNL     1      48.326   6.277  14.546  0.00  0.00    +0.000 NA
ATOM     22  C   UNL     1      48.745   6.295  15.833  0.00  0.00    +0.000 A 
ATOM     23  C   UNL     1      48.414   5.342  16.789  0.00  0.00    +0.000 A 
BRANCH  23  24
ATOM     24  C   UNL     1      48.942   5.483  18.172  0.00  0.00    +0.000 C 
ATOM     25  N   UNL     1      50.162   4.921  18.447  0.00  0.00    +0.000 N 
ATOM     26  O   UNL     1      48.329   6.062  19.057  0.00  0.00    +0.000 OA
ATOM     27  H   UNL     1      50.636   4.266  17.841  0.00  0.00    +0.000 HD
ATOM     28  H   UNL     1      50.470   4.970  19.410  0.00  0.00    +0.000 HD
ENDBRANCH  23  24
ENDBRANCH  16  20
ENDBRANCH   1  16
TORSDOF 7
ENDMDL
MODEL 6
REMARK VINA RESULT:    -7.462      3.076      8.149
REMARK INTER + INTRA:         -11.591
REMARK INTER:                 -10.616
REMARK INTRA:                  -0.975
REMARK UNBOUND:                -1.075
REMARK  Name = 
REMARK  8 active torsions:
REMARK  status: ('A' for Active; 'I' for Inactive)
REMARK    1  A    between atoms: C_1  and  C_2
REMARK    2  A    between atoms: C_4  and  O_5
REMARK    3  A    between atoms: O_5  and  C_6
REMARK    4  A    between atoms: C_6  and  C_7
REMARK    5  A    between atoms: C_7  and  C_10
REMARK    6  A    between atoms: C_14  and  O_15
REMARK    7  A    between atoms: O_15  and  C_16
REMARK    8  A    between atoms: C_23  and  C_24
REMARK                            x       y       z     vdW  Elec       q    Type
REMARK                         _______ _______ _______ _____ _____    ______ ____
ROOT
ATOM      1  C   UNL     1      46.786   6.425  12.380  0.00  0.00    +0.000 C 
ENDROOT
BRANCH   1   2
ATOM      2  C   UNL     1      45.297   6.433  12.001  0.00  0.00    +0.000 C 
ATOM      3  F   UNL     1      44.554   6.536  13.143  0.00  0.00    +0.000 F 
ATOM      4  F   UNL     1      45.030   7.571  11.292  0.00  0.00    +0.000 F 
BRANCH   2   5
ATOM      5  C   UNL     1      44.944   5.184  11.207  0.00  0.00    +0.000 A 
ATOM      6  C   UNL     1      44.237   4.133  11.809  0.00  0.00    +0.000 A 
ATOM      7  C   UNL     1      43.879   3.003  11.068  0.00  0.00    +0.000 A 
ATOM      8  C   UNL     1      44.222   2.905   9.716  0.00  0.00    +0.000 A 
ATOM      9  C   UNL     1      44.931   3.937   9.107  0.00  0.00    +0.000 A 
ATOM     10  C   UNL     1      45.282   5.072   9.848  0.00  0.00    +0.000 A 
BRANCH   9  11
ATOM     11  O   UNL     1      45.296   3.969   7.784  0.00  0.00    +0.000 OA
BRANCH  11  12
ATOM     12  C   UNL     1      46.595   3.478   7.389  0.00  0.00    +0.000 C 
ATOM     13  C   UNL     1      46.821   3.206   5.879  0.00  0.00    +0.000 C 
ATOM     14  C   UNL     1      47.526   1.894   6.264  0.00  0.00    +0.000 C 
ATOM     15  C   UNL     1      46.780   1.951   7.605  0.00  0.00    +0.000 C 
ENDBRANCH  11  12
ENDBRANCH   9  11
ENDBRANCH   2   5
ENDBRANCH   1   2
BRANCH   1  16
ATOM     16  O   UNL     1      47.224   5.118  12.809  0.00  0.00    +0.000 OA
BRANCH  16  20
ATOM     17  C   UNL     1      49.249   7.148  16.765  0.00  0.00    +0.000 C 
ATOM     18  C   UNL     1      48.421   6.058  16.141  0.00  0.00    +0.000 A 
ATOM     19  C   UNL     1      48.195   6.076  14.751  0.00  0.00    +0.000 A 
ATOM     20  C   UNL     1      47.431   5.067  14.174  0.00  0.00    +0.000 A 
ATOM     21  N   UNL     1      46.893   4.054  14.881  0.00  0.00    +0.000 NA
ATOM     22  C   UNL     1      47.128   4.047  16.213  0.00  0.00    +0.000 A 
ATOM     23  C   UNL     1      47.858   5.013  16.896  0.00  0.00    +0.000 A 
BRANCH  23  24
ATOM     24  C   UNL     1      48.044   4.883  18.366  0.00  0.00    +0.000 C 
ATOM     25  N   UNL     1      47.058   5.381  19.178  0.00  0.00    +0.000 N 
ATOM     26  O   UNL     1      49.035   4.366  18.862  0.00  0.00    +0.000 OA
ATOM     27  H   UNL     1      46.315   5.989  18.864  0.00  0.00    +0.000 HD
ATOM     28  H   UNL     1      47.237   5.343  20.173  0.00  0.00    +0.000 HD
ENDBRANCH  23  24
ENDBRANCH  16  20
ENDBRANCH   1  16
TORSDOF 7
ENDMDL
MODEL 7
REMARK VINA RESULT:    -7.393      3.428      8.331
REMARK INTER + INTRA:         -11.493
REMARK INTER:                 -10.681
REMARK INTRA:                  -0.812
REMARK UNBOUND:                -1.075
REMARK  Name = 
REMARK  8 active torsions:
REMARK  status: ('A' for Active; 'I' for Inactive)
REMARK    1  A    between atoms: C_1  and  C_2
REMARK    2  A    between atoms: C_4  and  O_5
REMARK    3  A    between atoms: O_5  and  C_6
REMARK    4  A    between atoms: C_6  and  C_7
REMARK    5  A    between atoms: C_7  and  C_10
REMARK    6  A    between atoms: C_14  and  O_15
REMARK    7  A    between atoms: O_15  and  C_16
REMARK    8  A    between atoms: C_23  and  C_24
REMARK                            x       y       z     vdW  Elec       q    Type
REMARK                         _______ _______ _______ _____ _____    ______ ____
ROOT
ATOM      1  C   UNL     1      46.268   5.910  13.289  0.00  0.00    +0.000 C 
ENDROOT
BRANCH   1   2
ATOM      2  C   UNL     1      45.855   6.366  11.881  0.00  0.00    +0.000 C 
ATOM      3  F   UNL     1      44.934   7.369  11.997  0.00  0.00    +0.000 F 
ATOM      4  F   UNL     1      46.936   6.937  11.269  0.00  0.00    +0.000 F 
BRANCH   2   5
ATOM      5  C   UNL     1      45.314   5.192  11.079  0.00  0.00    +0.000 A 
ATOM      6  C   UNL     1      44.496   4.229  11.687  0.00  0.00    +0.000 A 
ATOM      7  C   UNL     1      43.968   3.172  10.940  0.00  0.00    +0.000 A 
ATOM      8  C   UNL     1      44.250   3.059   9.576  0.00  0.00    +0.000 A 
ATOM      9  C   UNL     1      45.068   4.003   8.960  0.00  0.00    +0.000 A 
ATOM     10  C   UNL     1      45.590   5.065   9.707  0.00  0.00    +0.000 A 
BRANCH   9  11
ATOM     11  O   UNL     1      45.391   4.014   7.626  0.00  0.00    +0.000 OA
BRANCH  11  12
ATOM     12  C   UNL     1      46.682   3.529   7.197  0.00  0.00    +0.000 C 
ATOM     13  C   UNL     1      46.837   3.148   5.703  0.00  0.00    +0.000 C 
ATOM     14  C   UNL     1      47.602   1.890   6.147  0.00  0.00    +0.000 C 
ATOM     15  C   UNL     1      46.926   2.030   7.518  0.00  0.00    +0.000 C 
ENDBRANCH  11  12
ENDBRANCH   9  11
ENDBRANCH   2   5
ENDBRANCH   1   2
BRANCH   1  16
ATOM     16  O   UNL     1      47.693   6.014  13.491  0.00  0.00    +0.000 OA
BRANCH  16  20
ATOM     17  C   UNL     1      47.024   3.072  17.334  0.00  0.00    +0.000 C 
ATOM     18  C   UNL     1      47.744   4.224  16.686  0.00  0.00    +0.000 A 
ATOM     19  C   UNL     1      47.393   4.605  15.376  0.00  0.00    +0.000 A 
ATOM     20  C   UNL     1      48.057   5.670  14.779  0.00  0.00    +0.000 A 
ATOM     21  N   UNL     1      49.027   6.374  15.394  0.00  0.00    +0.000 NA
ATOM     22  C   UNL     1      49.345   6.001  16.656  0.00  0.00    +0.000 A 
ATOM     23  C   UNL     1      48.761   4.941  17.341  0.00  0.00    +0.000 A 
BRANCH  23  24
ATOM     24  C   UNL     1      49.202   4.639  18.729  0.00  0.00    +0.000 C 
ATOM     25  N   UNL     1      50.396   3.984  18.888  0.00  0.00    +0.000 N 
ATOM     26  O   UNL     1      48.540   4.941  19.712  0.00  0.00    +0.000 OA
ATOM     27  H   UNL     1      50.900   3.530  18.140  0.00  0.00    +0.000 HD
ATOM     28  H   UNL     1      50.643   3.729  19.836  0.00  0.00    +0.000 HD
ENDBRANCH  23  24
ENDBRANCH  16  20
ENDBRANCH   1  16
TORSDOF 7
ENDMDL
MODEL 8
REMARK VINA RESULT:    -6.836      3.961      6.419
REMARK INTER + INTRA:         -10.708
REMARK INTER:                  -9.886
REMARK INTRA:                  -0.822
REMARK UNBOUND:                -1.075
REMARK  Name = 
REMARK  8 active torsions:
REMARK  status: ('A' for Active; 'I' for Inactive)
REMARK    1  A    between atoms: C_1  and  C_2
REMARK    2  A    between atoms: C_4  and  O_5
REMARK    3  A    between atoms: O_5  and  C_6
REMARK    4  A    between atoms: C_6  and  C_7
REMARK    5  A    between atoms: C_7  and  C_10
REMARK    6  A    between atoms: C_14  and  O_15
REMARK    7  A    between atoms: O_15  and  C_16
REMARK    8  A    between atoms: C_23  and  C_24
REMARK                            x       y       z     vdW  Elec       q    Type
REMARK                         _______ _______ _______ _____ _____    ______ ____
ROOT
ATOM      1  C   UNL     1      47.475   3.858  15.715  0.00  0.00    +0.000 C 
ENDROOT
BRANCH   1   2
ATOM      2  C   UNL     1      48.132   2.895  16.715  0.00  0.00    +0.000 C 
ATOM      3  F   UNL     1      47.163   2.381  17.531  0.00  0.00    +0.000 F 
ATOM      4  F   UNL     1      48.632   1.823  16.030  0.00  0.00    +0.000 F 
BRANCH   2   5
ATOM      5  C   UNL     1      49.217   3.609  17.506  0.00  0.00    +0.000 A 
ATOM      6  C   UNL     1      50.549   3.175  17.443  0.00  0.00    +0.000 A 
ATOM      7  C   UNL     1      51.552   3.856  18.139  0.00  0.00    +0.000 A 
ATOM      8  C   UNL     1      51.240   4.979  18.910  0.00  0.00    +0.000 A 
ATOM      9  C   UNL     1      49.920   5.418  18.990  0.00  0.00    +0.000 A 
ATOM     10  C   UNL     1      48.918   4.739  18.286  0.00  0.00    +0.000 A 
BRANCH   9  11
ATOM     11  O   UNL     1      49.498   6.522  19.688  0.00  0.00    +0.000 OA
BRANCH  11  12
ATOM     12  C   UNL     1      48.221   7.119  19.376  0.00  0.00    +0.000 C 
ATOM     13  C   UNL     1      48.237   8.473  18.619  0.00  0.00    +0.000 C 
ATOM     14  C   UNL     1      47.135   8.969  19.571  0.00  0.00    +0.000 C 
ATOM     15  C   UNL     1      47.581   7.887  20.564  0.00  0.00    +0.000 C 
ENDBRANCH  11  12
ENDBRANCH   9  11
ENDBRANCH   2   5
ENDBRANCH   1   2
BRANCH   1  16
ATOM     16  O   UNL     1      47.497   3.334  14.370  0.00  0.00    +0.000 OA
BRANCH  16  20
ATOM     17  C   UNL     1      45.205   7.281  12.627  0.00  0.00    +0.000 C 
ATOM     18  C   UNL     1      45.327   5.785  12.726  0.00  0.00    +0.000 A 
ATOM     19  C   UNL     1      46.359   5.229  13.507  0.00  0.00    +0.000 A 
ATOM     20  C   UNL     1      46.470   3.846  13.600  0.00  0.00    +0.000 A 
ATOM     21  N   UNL     1      45.629   2.995  12.981  0.00  0.00    +0.000 NA
ATOM     22  C   UNL     1      44.638   3.546  12.242  0.00  0.00    +0.000 A 
ATOM     23  C   UNL     1      44.446   4.911  12.064  0.00  0.00    +0.000 A 
BRANCH  23  24
ATOM     24  C   UNL     1      43.311   5.385  11.227  0.00  0.00    +0.000 C 
ATOM     25  N   UNL     1      42.225   5.918  11.872  0.00  0.00    +0.000 N 
ATOM     26  O   UNL     1      43.313   5.305  10.007  0.00  0.00    +0.000 OA
ATOM     27  H   UNL     1      42.059   5.841  12.865  0.00  0.00    +0.000 HD
ATOM     28  H   UNL     1      41.438   6.171  11.288  0.00  0.00    +0.000 HD
ENDBRANCH  23  24
ENDBRANCH  16  20
ENDBRANCH   1  16
TORSDOF 7
ENDMDL
MODEL 9
REMARK VINA RESULT:    -6.829      3.840      6.099
REMARK INTER + INTRA:         -10.698
REMARK INTER:                  -9.192
REMARK INTRA:                  -1.506
REMARK UNBOUND:                -1.075
REMARK  Name = 
REMARK  8 active torsions:
REMARK  status: ('A' for Active; 'I' for Inactive)
REMARK    1  A    between atoms: C_1  and  C_2
REMARK    2  A    between atoms: C_4  and  O_5
REMARK    3  A    between atoms: O_5  and  C_6
REMARK    4  A    between atoms: C_6  and  C_7
REMARK    5  A    between atoms: C_7  and  C_10
REMARK    6  A    between atoms: C_14  and  O_15
REMARK    7  A    between atoms: O_15  and  C_16
REMARK    8  A    between atoms: C_23  and  C_24
REMARK                            x       y       z     vdW  Elec       q    Type
REMARK                         _______ _______ _______ _____ _____    ______ ____
ROOT
ATOM      1  C   UNL     1      47.144   3.903  15.993  0.00  0.00    +0.000 C 
ENDROOT
BRANCH   1   2
ATOM      2  C   UNL     1      48.352   3.873  16.943  0.00  0.00    +0.000 C 
ATOM      3  F   UNL     1      47.897   3.810  18.230  0.00  0.00    +0.000 F 
ATOM      4  F   UNL     1      49.038   2.707  16.744  0.00  0.00    +0.000 F 
BRANCH   2   5
ATOM      5  C   UNL     1      49.238   5.088  16.715  0.00  0.00    +0.000 A 
ATOM      6  C   UNL     1      50.558   5.108  17.185  0.00  0.00    +0.000 A 
ATOM      7  C   UNL     1      51.383   6.210  16.941  0.00  0.00    +0.000 A 
ATOM      8  C   UNL     1      50.901   7.309  16.225  0.00  0.00    +0.000 A 
ATOM      9  C   UNL     1      49.589   7.309  15.758  0.00  0.00    +0.000 A 
ATOM     10  C   UNL     1      48.767   6.201  15.997  0.00  0.00    +0.000 A 
BRANCH   9  11
ATOM     11  O   UNL     1      49.015   8.313  15.019  0.00  0.00    +0.000 OA
BRANCH  11  12
ATOM     12  C   UNL     1      49.419   8.513  13.648  0.00  0.00    +0.000 C 
ATOM     13  C   UNL     1      48.369   9.114  12.678  0.00  0.00    +0.000 C 
ATOM     14  C   UNL     1      48.805   8.076  11.630  0.00  0.00    +0.000 C 
ATOM     15  C   UNL     1      49.358   7.225  12.782  0.00  0.00    +0.000 C 
ENDBRANCH  11  12
ENDBRANCH   9  11
ENDBRANCH   2   5
ENDBRANCH   1   2
BRANCH   1  16
ATOM     16  O   UNL     1      47.483   3.419  14.677  0.00  0.00    +0.000 OA
BRANCH  16  20
ATOM     17  C   UNL     1      45.212   7.145  12.480  0.00  0.00    +0.000 C 
ATOM     18  C   UNL     1      45.445   5.665  12.624  0.00  0.00    +0.000 A 
ATOM     19  C   UNL     1      46.361   5.204  13.590  0.00  0.00    +0.000 A 
ATOM     20  C   UNL     1      46.574   3.837  13.724  0.00  0.00    +0.000 A 
ATOM     21  N   UNL     1      45.939   2.914  12.975  0.00  0.00    +0.000 NA
ATOM     22  C   UNL     1      45.056   3.374  12.059  0.00  0.00    +0.000 A 
ATOM     23  C   UNL     1      44.780   4.717  11.826  0.00  0.00    +0.000 A 
BRANCH  23  24
ATOM     24  C   UNL     1      43.782   5.087  10.789  0.00  0.00    +0.000 C 
ATOM     25  N   UNL     1      44.102   4.833   9.480  0.00  0.00    +0.000 N 
ATOM     26  O   UNL     1      42.711   5.610  11.060  0.00  0.00    +0.000 OA
ATOM     27  H   UNL     1      45.027   4.591   9.156  0.00  0.00    +0.000 HD
ATOM     28  H   UNL     1      43.437   5.154   8.787  0.00  0.00    +0.000 HD
ENDBRANCH  23  24
ENDBRANCH  16  20
ENDBRANCH   1  16
TORSDOF 7
ENDMDL
