MODEL 1
REMARK VINA RESULT:    -9.191      0.000      0.000
REMARK INTER + INTRA:         -14.052
REMARK INTER:                 -12.952
REMARK INTRA:                  -1.100
REMARK UNBOUND:                -1.100
REMARK  Name = 
REMARK  8 active torsions:
REMARK  status: ('A' for Active; 'I' for Inactive)
REMARK    1  A    between atoms: C_1  and  C_2
REMARK    2  A    between atoms: C_4  and  O_5
REMARK    3  A    between atoms: O_5  and  C_6
REMARK    4  A    between atoms: C_6  and  C_7
REMARK    5  A    between atoms: C_7  and  C_10
REMARK    6  A    between atoms: C_14  and  O_15
REMARK    7  A    between atoms: O_15  and  C_16
REMARK    8  A    between atoms: C_23  and  C_24
REMARK                            x       y       z     vdW  Elec       q    Type
REMARK                         _______ _______ _______ _____ _____    ______ ____
ROOT
ATOM      1  C   UNL     1      43.395   4.324  10.909  0.00  0.00    +0.000 C 
ENDROOT
BRANCH   1   2
ATOM      2  C   UNL     1      43.715   4.509  12.403  0.00  0.00    +0.000 C 
ATOM      3  F   UNL     1      43.642   3.296  13.024  0.00  0.00    +0.000 F 
ATOM      4  F   UNL     1      42.737   5.274  12.974  0.00  0.00    +0.000 F 
BRANCH   2   5
ATOM      5  C   UNL     1      45.090   5.142  12.558  0.00  0.00    +0.000 A 
ATOM      6  C   UNL     1      45.572   6.057  11.611  0.00  0.00    +0.000 A 
ATOM      7  C   UNL     1      46.846   6.612  11.749  0.00  0.00    +0.000 A 
ATOM      8  C   UNL     1      47.660   6.253  12.826  0.00  0.00    +0.000 A 
ATOM      9  C   UNL     1      47.200   5.330  13.762  0.00  0.00    +0.000 A 
ATOM     10  C   UNL     1      45.917   4.793  13.637  0.00  0.00    +0.000 A 
BRANCH   9  11
ATOM     11  O   UNL     1      47.909   4.906  14.858  0.00  0.00    +0.000 OA
BRANCH  11  12
ATOM     12  C   UNL     1      47.219   4.149  15.878  0.00  0.00    +0.000 C 
ATOM     13  C   UNL     1      47.350   4.610  17.337  0.00  0.00    +0.000 C 
ATOM     14  O   UNL     1      47.786   3.297  17.762  0.00  0.00    +0.000 OA
ATOM     15  C   UNL     1      47.956   2.898  16.380  0.00  0.00    +0.000 C 
ENDBRANCH  11  12
ENDBRANCH   9  11
ENDBRANCH   2   5
ENDBRANCH   1   2
BRANCH   1  16
ATOM     16  O   UNL     1      43.637   2.978  10.468  0.00  0.00    +0.000 OA
BRANCH  16  20
ATOM     17  C   UNL     1      46.695   0.241   7.683  0.00  0.00    +0.000 C 
ATOM     18  C   UNL     1      46.084   1.576   8.018  0.00  0.00    +0.000 A 
ATOM     19  C   UNL     1      45.160   1.631   9.081  0.00  0.00    +0.000 A 
ATOM     20  C   UNL     1      44.545   2.830   9.451  0.00  0.00    +0.000 A 
ATOM     21  C   UNL     1      44.861   3.992   8.753  0.00  0.00    +0.000 A 
ATOM     22  C   UNL     1      45.780   3.961   7.695  0.00  0.00    +0.000 A 
ATOM     23  C   UNL     1      46.395   2.756   7.313  0.00  0.00    +0.000 A 
BRANCH  23  24
ATOM     24  C   UNL     1      47.384   2.749   6.188  0.00  0.00    +0.000 C 
ATOM     25  N   UNL     1      48.709   2.660   6.518  0.00  0.00    +0.000 N 
ATOM     26  O   UNL     1      47.055   2.825   5.011  0.00  0.00    +0.000 OA
ATOM     27  H   UNL     1      49.059   2.778   7.458  0.00  0.00    +0.000 HD
ATOM     28  H   UNL     1      49.366   2.742   5.754  0.00  0.00    +0.000 HD
ENDBRANCH  23  24
ENDBRANCH  16  20
ENDBRANCH   1  16
TORSDOF 7
ENDMDL
MODEL 2
REMARK VINA RESULT:    -8.433      1.490      1.794
REMARK INTER + INTRA:         -12.985
REMARK INTER:                 -11.984
REMARK INTRA:                  -1.001
REMARK UNBOUND:                -1.100
REMARK  Name = 
REMARK  8 active torsions:
REMARK  status: ('A' for Active; 'I' for Inactive)
REMARK    1  A    between atoms: C_1  and  C_2
REMARK    2  A    between atoms: C_4  and  O_5
REMARK    3  A    between atoms: O_5  and  C_6
REMARK    4  A    between atoms: C_6  and  C_7
REMARK    5  A    between atoms: C_7  and  C_10
REMARK    6  A    between atoms: C_14  and  O_15
REMARK    7  A    between atoms: O_15  and  C_16
REMARK    8  A    between atoms: C_23  and  C_24
REMARK                            x       y       z     vdW  Elec       q    Type
REMARK                         _______ _______ _______ _____ _____    ______ ____
ROOT
ATOM      1  C   UNL     1      43.648   4.409  10.968  0.00  0.00    +0.000 C 
ENDROOT
BRANCH   1   2
ATOM      2  C   UNL     1      44.231   4.392  12.392  0.00  0.00    +0.000 C 
ATOM      3  F   UNL     1      44.504   3.101  12.743  0.00  0.00    +0.000 F 
ATOM      4  F   UNL     1      43.273   4.816  13.268  0.00  0.00    +0.000 F 
BRANCH   2   5
ATOM      5  C   UNL     1      45.474   5.267  12.447  0.00  0.00    +0.000 A 
ATOM      6  C   UNL     1      45.824   6.089  11.366  0.00  0.00    +0.000 A 
ATOM      7  C   UNL     1      46.982   6.869  11.417  0.00  0.00    +0.000 A 
ATOM      8  C   UNL     1      47.811   6.829  12.541  0.00  0.00    +0.000 A 
ATOM      9  C   UNL     1      47.485   6.001  13.612  0.00  0.00    +0.000 A 
ATOM     10  C   UNL     1      46.315   5.239  13.571  0.00  0.00    +0.000 A 
BRANCH   9  11
ATOM     11  O   UNL     1      48.222   5.883  14.764  0.00  0.00    +0.000 OA
BRANCH  11  12
ATOM     12  C   UNL     1      49.205   6.900  15.063  0.00  0.00    +0.000 C 
ATOM     13  C   UNL     1      50.214   6.624  16.188  0.00  0.00    +0.000 C 
ATOM     14  O   UNL     1      49.877   7.863  16.857  0.00  0.00    +0.000 OA
ATOM     15  C   UNL     1      48.727   8.026  15.992  0.00  0.00    +0.000 C 
ENDBRANCH  11  12
ENDBRANCH   9  11
ENDBRANCH   2   5
ENDBRANCH   1   2
BRANCH   1  16
ATOM     16  O   UNL     1      43.664   3.105  10.362  0.00  0.00    +0.000 OA
BRANCH  16  20
ATOM     17  C   UNL     1      46.719   0.255   7.691  0.00  0.00    +0.000 C 
ATOM     18  C   UNL     1      46.120   1.605   7.980  0.00  0.00    +0.000 A 
ATOM     19  C   UNL     1      45.186   1.702   9.031  0.00  0.00    +0.000 A 
ATOM     20  C   UNL     1      44.581   2.918   9.359  0.00  0.00    +0.000 A 
ATOM     21  C   UNL     1      44.916   4.055   8.630  0.00  0.00    +0.000 A 
ATOM     22  C   UNL     1      45.846   3.983   7.583  0.00  0.00    +0.000 A 
ATOM     23  C   UNL     1      46.451   2.761   7.243  0.00  0.00    +0.000 A 
BRANCH  23  24
ATOM     24  C   UNL     1      47.451   2.710   6.129  0.00  0.00    +0.000 C 
ATOM     25  N   UNL     1      48.766   2.562   6.473  0.00  0.00    +0.000 N 
ATOM     26  O   UNL     1      47.138   2.800   4.949  0.00  0.00    +0.000 OA
ATOM     27  H   UNL     1      49.112   2.665   7.417  0.00  0.00    +0.000 HD
ATOM     28  H   UNL     1      49.435   2.615   5.716  0.00  0.00    +0.000 HD
ENDBRANCH  23  24
ENDBRANCH  16  20
ENDBRANCH   1  16
TORSDOF 7
ENDMDL
MODEL 3
REMARK VINA RESULT:    -8.108      2.530      4.007
REMARK INTER + INTRA:         -12.526
REMARK INTER:                 -11.648
REMARK INTRA:                  -0.878
REMARK UNBOUND:                -1.100
REMARK  Name = 
REMARK  8 active torsions:
REMARK  status: ('A' for Active; 'I' for Inactive)
REMARK    1  A    between atoms: C_1  and  C_2
REMARK    2  A    between atoms: C_4  and  O_5
REMARK    3  A    between atoms: O_5  and  C_6
REMARK    4  A    between atoms: C_6  and  C_7
REMARK    5  A    between atoms: C_7  and  C_10
REMARK    6  A    between atoms: C_14  and  O_15
REMARK    7  A    between atoms: O_15  and  C_16
REMARK    8  A    between atoms: C_23  and  C_24
REMARK                            x       y       z     vdW  Elec       q    Type
REMARK                         _______ _______ _______ _____ _____    ______ ____
ROOT
ATOM      1  C   UNL     1      44.226   3.210  11.704  0.00  0.00    +0.000 C 
ENDROOT
BRANCH   1   2
ATOM      2  C   UNL     1      43.752   4.513  12.370  0.00  0.00    +0.000 C 
ATOM      3  F   UNL     1      43.114   4.207  13.537  0.00  0.00    +0.000 F 
ATOM      4  F   UNL     1      42.806   5.098  11.576  0.00  0.00    +0.000 F 
BRANCH   2   5
ATOM      5  C   UNL     1      44.942   5.433  12.601  0.00  0.00    +0.000 A 
ATOM      6  C   UNL     1      45.992   5.052  13.448  0.00  0.00    +0.000 A 
ATOM      7  C   UNL     1      47.067   5.915  13.673  0.00  0.00    +0.000 A 
ATOM      8  C   UNL     1      47.102   7.173  13.067  0.00  0.00    +0.000 A 
ATOM      9  C   UNL     1      46.055   7.571  12.240  0.00  0.00    +0.000 A 
ATOM     10  C   UNL     1      44.991   6.699  11.996  0.00  0.00    +0.000 A 
BRANCH   9  11
ATOM     11  O   UNL     1      45.984   8.779  11.592  0.00  0.00    +0.000 OA
BRANCH  11  12
ATOM     12  C   UNL     1      44.936   9.703  11.965  0.00  0.00    +0.000 C 
ATOM     13  C   UNL     1      43.803   9.959  10.960  0.00  0.00    +0.000 C 
ATOM     14  O   UNL     1      44.011  11.391  11.020  0.00  0.00    +0.000 OA
ATOM     15  C   UNL     1      45.255  11.188  11.734  0.00  0.00    +0.000 C 
ENDBRANCH  11  12
ENDBRANCH   9  11
ENDBRANCH   2   5
ENDBRANCH   1   2
BRANCH   1  16
ATOM     16  O   UNL     1      43.683   3.049  10.383  0.00  0.00    +0.000 OA
BRANCH  16  20
ATOM     17  C   UNL     1      46.725   0.250   7.642  0.00  0.00    +0.000 C 
ATOM     18  C   UNL     1      46.128   1.595   7.961  0.00  0.00    +0.000 A 
ATOM     19  C   UNL     1      45.199   1.672   9.018  0.00  0.00    +0.000 A 
ATOM     20  C   UNL     1      44.596   2.882   9.373  0.00  0.00    +0.000 A 
ATOM     21  C   UNL     1      44.930   4.033   8.666  0.00  0.00    +0.000 A 
ATOM     22  C   UNL     1      45.855   3.982   7.614  0.00  0.00    +0.000 A 
ATOM     23  C   UNL     1      46.457   2.766   7.247  0.00  0.00    +0.000 A 
BRANCH  23  24
ATOM     24  C   UNL     1      47.453   2.736   6.128  0.00  0.00    +0.000 C 
ATOM     25  N   UNL     1      48.775   2.647   6.467  0.00  0.00    +0.000 N 
ATOM     26  O   UNL     1      47.131   2.794   4.948  0.00  0.00    +0.000 OA
ATOM     27  H   UNL     1      49.121   2.779   7.407  0.00  0.00    +0.000 HD
ATOM     28  H   UNL     1      49.438   2.714   5.706  0.00  0.00    +0.000 HD
ENDBRANCH  23  24
ENDBRANCH  16  20
ENDBRANCH   1  16
TORSDOF 7
ENDMDL
MODEL 4
REMARK VINA RESULT:    -8.084      2.068      3.375
REMARK INTER + INTRA:         -12.492
REMARK INTER:                 -11.681
REMARK INTRA:                  -0.811
REMARK UNBOUND:                -1.100
REMARK  Name = 
REMARK  8 active torsions:
REMARK  status: ('A' for Active; 'I' for Inactive)
REMARK    1  A    between atoms: C_1  and  C_2
REMARK    2  A    between atoms: C_4  and  O_5
REMARK    3  A    between atoms: O_5  and  C_6
REMARK    4  A    between atoms: C_6  and  C_7
REMARK    5  A    between atoms: C_7  and  C_10
REMARK    6  A    between atoms: C_14  and  O_15
REMARK    7  A    between atoms: O_15  and  C_16
REMARK    8  A    between atoms: C_23  and  C_24
REMARK                            x       y       z     vdW  Elec       q    Type
REMARK                         _______ _______ _______ _____ _____    ______ ____
ROOT
ATOM      1  C   UNL     1      43.543   4.553  10.876  0.00  0.00    +0.000 C 
ENDROOT
BRANCH   1   2
ATOM      2  C   UNL     1      43.643   4.646  12.408  0.00  0.00    +0.000 C 
ATOM      3  F   UNL     1      43.512   3.394  12.937  0.00  0.00    +0.000 F 
ATOM      4  F   UNL     1      42.576   5.357  12.880  0.00  0.00    +0.000 F 
BRANCH   2   5
ATOM      5  C   UNL     1      44.966   5.289  12.798  0.00  0.00    +0.000 A 
ATOM      6  C   UNL     1      45.927   4.572  13.525  0.00  0.00    +0.000 A 
ATOM      7  C   UNL     1      47.128   5.180  13.900  0.00  0.00    +0.000 A 
ATOM      8  C   UNL     1      47.379   6.512  13.565  0.00  0.00    +0.000 A 
ATOM      9  C   UNL     1      46.423   7.241  12.861  0.00  0.00    +0.000 A 
ATOM     10  C   UNL     1      45.233   6.626  12.466  0.00  0.00    +0.000 A 
BRANCH   9  11
ATOM     11  O   UNL     1      46.562   8.551  12.479  0.00  0.00    +0.000 OA
BRANCH  11  12
ATOM     12  C   UNL     1      47.895   9.094  12.342  0.00  0.00    +0.000 C 
ATOM     13  C   UNL     1      48.423  10.010  13.457  0.00  0.00    +0.000 C 
ATOM     14  O   UNL     1      48.746  11.056  12.509  0.00  0.00    +0.000 OA
ATOM     15  C   UNL     1      48.005  10.359  11.477  0.00  0.00    +0.000 C 
ENDBRANCH  11  12
ENDBRANCH   9  11
ENDBRANCH   2   5
ENDBRANCH   1   2
BRANCH   1  16
ATOM     16  O   UNL     1      43.665   3.200  10.408  0.00  0.00    +0.000 OA
BRANCH  16  20
ATOM     17  C   UNL     1      46.621   0.265   7.716  0.00  0.00    +0.000 C 
ATOM     18  C   UNL     1      46.069   1.634   8.015  0.00  0.00    +0.000 A 
ATOM     19  C   UNL     1      45.138   1.755   9.066  0.00  0.00    +0.000 A 
ATOM     20  C   UNL     1      44.575   2.989   9.404  0.00  0.00    +0.000 A 
ATOM     21  C   UNL     1      44.951   4.119   8.684  0.00  0.00    +0.000 A 
ATOM     22  C   UNL     1      45.878   4.023   7.637  0.00  0.00    +0.000 A 
ATOM     23  C   UNL     1      46.440   2.783   7.288  0.00  0.00    +0.000 A 
BRANCH  23  24
ATOM     24  C   UNL     1      47.440   2.706   6.174  0.00  0.00    +0.000 C 
ATOM     25  N   UNL     1      48.755   2.559   6.520  0.00  0.00    +0.000 N 
ATOM     26  O   UNL     1      47.126   2.774   4.993  0.00  0.00    +0.000 OA
ATOM     27  H   UNL     1      49.101   2.678   7.461  0.00  0.00    +0.000 HD
ATOM     28  H   UNL     1      49.423   2.594   5.762  0.00  0.00    +0.000 HD
ENDBRANCH  23  24
ENDBRANCH  16  20
ENDBRANCH   1  16
TORSDOF 7
ENDMDL
MODEL 5
REMARK VINA RESULT:    -7.837      2.235      2.765
REMARK INTER + INTRA:         -12.144
REMARK INTER:                 -11.401
REMARK INTRA:                  -0.743
REMARK UNBOUND:                -1.100
REMARK  Name = 
REMARK  8 active torsions:
REMARK  status: ('A' for Active; 'I' for Inactive)
REMARK    1  A    between atoms: C_1  and  C_2
REMARK    2  A    between atoms: C_4  and  O_5
REMARK    3  A    between atoms: O_5  and  C_6
REMARK    4  A    between atoms: C_6  and  C_7
REMARK    5  A    between atoms: C_7  and  C_10
REMARK    6  A    between atoms: C_14  and  O_15
REMARK    7  A    between atoms: O_15  and  C_16
REMARK    8  A    between atoms: C_23  and  C_24
REMARK                            x       y       z     vdW  Elec       q    Type
REMARK                         _______ _______ _______ _____ _____    ______ ____
ROOT
ATOM      1  C   UNL     1      44.178   3.427  11.757  0.00  0.00    +0.000 C 
ENDROOT
BRANCH   1   2
ATOM      2  C   UNL     1      43.317   4.594  12.271  0.00  0.00    +0.000 C 
ATOM      3  F   UNL     1      42.899   4.311  13.539  0.00  0.00    +0.000 F 
ATOM      4  F   UNL     1      42.180   4.672  11.517  0.00  0.00    +0.000 F 
BRANCH   2   5
ATOM      5  C   UNL     1      44.120   5.886  12.216  0.00  0.00    +0.000 A 
ATOM      6  C   UNL     1      43.708   6.955  11.407  0.00  0.00    +0.000 A 
ATOM      7  C   UNL     1      44.466   8.126  11.344  0.00  0.00    +0.000 A 
ATOM      8  C   UNL     1      45.650   8.241  12.077  0.00  0.00    +0.000 A 
ATOM      9  C   UNL     1      46.080   7.179  12.867  0.00  0.00    +0.000 A 
ATOM     10  C   UNL     1      45.310   6.016  12.949  0.00  0.00    +0.000 A 
BRANCH   9  11
ATOM     11  O   UNL     1      47.221   7.181  13.629  0.00  0.00    +0.000 OA
BRANCH  11  12
ATOM     12  C   UNL     1      48.313   8.043  13.236  0.00  0.00    +0.000 C 
ATOM     13  C   UNL     1      48.894   7.882  11.823  0.00  0.00    +0.000 C 
ATOM     14  O   UNL     1      50.236   7.726  12.343  0.00  0.00    +0.000 OA
ATOM     15  C   UNL     1      49.709   7.584  13.684  0.00  0.00    +0.000 C 
ENDBRANCH  11  12
ENDBRANCH   9  11
ENDBRANCH   2   5
ENDBRANCH   1   2
BRANCH   1  16
ATOM     16  O   UNL     1      43.663   2.872  10.535  0.00  0.00    +0.000 OA
BRANCH  16  20
ATOM     17  C   UNL     1      46.683   0.219   7.631  0.00  0.00    +0.000 C 
ATOM     18  C   UNL     1      46.077   1.543   8.012  0.00  0.00    +0.000 A 
ATOM     19  C   UNL     1      45.167   1.568   9.089  0.00  0.00    +0.000 A 
ATOM     20  C   UNL     1      44.557   2.755   9.502  0.00  0.00    +0.000 A 
ATOM     21  C   UNL     1      44.862   3.937   8.833  0.00  0.00    +0.000 A 
ATOM     22  C   UNL     1      45.767   3.937   7.762  0.00  0.00    +0.000 A 
ATOM     23  C   UNL     1      46.377   2.744   7.337  0.00  0.00    +0.000 A 
BRANCH  23  24
ATOM     24  C   UNL     1      47.351   2.770   6.199  0.00  0.00    +0.000 C 
ATOM     25  N   UNL     1      48.680   2.681   6.508  0.00  0.00    +0.000 N 
ATOM     26  O   UNL     1      47.005   2.872   5.029  0.00  0.00    +0.000 OA
ATOM     27  H   UNL     1      49.043   2.778   7.446  0.00  0.00    +0.000 HD
ATOM     28  H   UNL     1      49.326   2.785   5.737  0.00  0.00    +0.000 HD
ENDBRANCH  23  24
ENDBRANCH  16  20
ENDBRANCH   1  16
TORSDOF 7
ENDMDL
MODEL 6
REMARK VINA RESULT:    -7.784      1.049      1.611
REMARK INTER + INTRA:         -12.070
REMARK INTER:                 -11.849
REMARK INTRA:                  -0.221
REMARK UNBOUND:                -1.100
REMARK  Name = 
REMARK  8 active torsions:
REMARK  status: ('A' for Active; 'I' for Inactive)
REMARK    1  A    between atoms: C_1  and  C_2
REMARK    2  A    between atoms: C_4  and  O_5
REMARK    3  A    between atoms: O_5  and  C_6
REMARK    4  A    between atoms: C_6  and  C_7
REMARK    5  A    between atoms: C_7  and  C_10
REMARK    6  A    between atoms: C_14  and  O_15
REMARK    7  A    between atoms: O_15  and  C_16
REMARK    8  A    between atoms: C_23  and  C_24
REMARK                            x       y       z     vdW  Elec       q    Type
REMARK                         _______ _______ _______ _____ _____    ______ ____
ROOT
ATOM      1  C   UNL     1      43.942   5.484  10.967  0.00  0.00    +0.000 C 
ENDROOT
BRANCH   1   2
ATOM      2  C   UNL     1      44.335   5.093  12.403  0.00  0.00    +0.000 C 
ATOM      3  F   UNL     1      44.277   3.734  12.522  0.00  0.00    +0.000 F 
ATOM      4  F   UNL     1      43.396   5.578  13.268  0.00  0.00    +0.000 F 
BRANCH   2   5
ATOM      5  C   UNL     1      45.724   5.629  12.718  0.00  0.00    +0.000 A 
ATOM      6  C   UNL     1      46.372   6.509  11.840  0.00  0.00    +0.000 A 
ATOM      7  C   UNL     1      47.657   6.975  12.127  0.00  0.00    +0.000 A 
ATOM      8  C   UNL     1      48.316   6.559  13.286  0.00  0.00    +0.000 A 
ATOM      9  C   UNL     1      47.691   5.669  14.156  0.00  0.00    +0.000 A 
ATOM     10  C   UNL     1      46.397   5.222  13.881  0.00  0.00    +0.000 A 
BRANCH   9  11
ATOM     11  O   UNL     1      48.240   5.196  15.321  0.00  0.00    +0.000 OA
BRANCH  11  12
ATOM     12  C   UNL     1      47.419   4.388  16.195  0.00  0.00    +0.000 C 
ATOM     13  C   UNL     1      47.536   4.609  17.710  0.00  0.00    +0.000 C 
ATOM     14  O   UNL     1      47.794   3.203  17.942  0.00  0.00    +0.000 OA
ATOM     15  C   UNL     1      47.978   2.995  16.521  0.00  0.00    +0.000 C 
ENDBRANCH  11  12
ENDBRANCH   9  11
ENDBRANCH   2   5
ENDBRANCH   1   2
BRANCH   1  16
ATOM     16  O   UNL     1      43.442   4.363  10.219  0.00  0.00    +0.000 OA
BRANCH  16  20
ATOM     17  C   UNL     1      47.066   4.197   6.837  0.00  0.00    +0.000 C 
ATOM     18  C   UNL     1      46.154   3.488   7.803  0.00  0.00    +0.000 A 
ATOM     19  C   UNL     1      45.239   4.267   8.540  0.00  0.00    +0.000 A 
ATOM     20  C   UNL     1      44.362   3.686   9.460  0.00  0.00    +0.000 A 
ATOM     21  C   UNL     1      44.396   2.307   9.644  0.00  0.00    +0.000 A 
ATOM     22  C   UNL     1      45.294   1.512   8.919  0.00  0.00    +0.000 A 
ATOM     23  C   UNL     1      46.185   2.092   7.999  0.00  0.00    +0.000 A 
BRANCH  23  24
ATOM     24  C   UNL     1      47.128   1.222   7.225  0.00  0.00    +0.000 C 
ATOM     25  N   UNL     1      48.321   1.772   6.846  0.00  0.00    +0.000 N 
ATOM     26  O   UNL     1      46.868   0.065   6.921  0.00  0.00    +0.000 OA
ATOM     27  H   UNL     1      48.523   2.760   6.900  0.00  0.00    +0.000 HD
ATOM     28  H   UNL     1      48.909   1.201   6.253  0.00  0.00    +0.000 HD
ENDBRANCH  23  24
ENDBRANCH  16  20
ENDBRANCH   1  16
TORSDOF 7
ENDMDL
MODEL 7
REMARK VINA RESULT:    -7.282      3.132      8.225
REMARK INTER + INTRA:         -11.362
REMARK INTER:                 -10.579
REMARK INTRA:                  -0.782
REMARK UNBOUND:                -1.100
REMARK  Name = 
REMARK  8 active torsions:
REMARK  status: ('A' for Active; 'I' for Inactive)
REMARK    1  A    between atoms: C_1  and  C_2
REMARK    2  A    between atoms: C_4  and  O_5
REMARK    3  A    between atoms: O_5  and  C_6
REMARK    4  A    between atoms: C_6  and  C_7
REMARK    5  A    between atoms: C_7  and  C_10
REMARK    6  A    between atoms: C_14  and  O_15
REMARK    7  A    between atoms: O_15  and  C_16
REMARK    8  A    between atoms: C_23  and  C_24
REMARK                            x       y       z     vdW  Elec       q    Type
REMARK                         _______ _______ _______ _____ _____    ______ ____
ROOT
ATOM      1  C   UNL     1      45.868   5.993  12.702  0.00  0.00    +0.000 C 
ENDROOT
BRANCH   1   2
ATOM      2  C   UNL     1      45.731   6.238  11.189  0.00  0.00    +0.000 C 
ATOM      3  F   UNL     1      46.934   6.656  10.698  0.00  0.00    +0.000 F 
ATOM      4  F   UNL     1      44.869   7.278  10.984  0.00  0.00    +0.000 F 
BRANCH   2   5
ATOM      5  C   UNL     1      45.252   4.966  10.505  0.00  0.00    +0.000 A 
ATOM      6  C   UNL     1      44.456   4.037  11.190  0.00  0.00    +0.000 A 
ATOM      7  C   UNL     1      44.044   2.859  10.561  0.00  0.00    +0.000 A 
ATOM      8  C   UNL     1      44.431   2.589   9.247  0.00  0.00    +0.000 A 
ATOM      9  C   UNL     1      45.239   3.494   8.563  0.00  0.00    +0.000 A 
ATOM     10  C   UNL     1      45.632   4.682   9.184  0.00  0.00    +0.000 A 
BRANCH   9  11
ATOM     11  O   UNL     1      45.677   3.334   7.273  0.00  0.00    +0.000 OA
BRANCH  11  12
ATOM     12  C   UNL     1      47.060   2.975   7.051  0.00  0.00    +0.000 C 
ATOM     13  C   UNL     1      47.510   2.674   5.614  0.00  0.00    +0.000 C 
ATOM     14  O   UNL     1      48.055   1.390   6.005  0.00  0.00    +0.000 OA
ATOM     15  C   UNL     1      47.404   1.497   7.293  0.00  0.00    +0.000 C 
ENDBRANCH  11  12
ENDBRANCH   9  11
ENDBRANCH   2   5
ENDBRANCH   1   2
BRANCH   1  16
ATOM     16  O   UNL     1      47.144   6.421  13.205  0.00  0.00    +0.000 OA
BRANCH  16  20
ATOM     17  C   UNL     1      49.844   6.361  17.365  0.00  0.00    +0.000 C 
ATOM     18  C   UNL     1      48.849   5.698  16.450  0.00  0.00    +0.000 A 
ATOM     19  C   UNL     1      48.481   6.377  15.271  0.00  0.00    +0.000 A 
ATOM     20  C   UNL     1      47.560   5.833  14.372  0.00  0.00    +0.000 A 
ATOM     21  C   UNL     1      47.000   4.590  14.653  0.00  0.00    +0.000 A 
ATOM     22  C   UNL     1      47.354   3.894  15.817  0.00  0.00    +0.000 A 
ATOM     23  C   UNL     1      48.273   4.442  16.729  0.00  0.00    +0.000 A 
BRANCH  23  24
ATOM     24  C   UNL     1      48.647   3.675  17.961  0.00  0.00    +0.000 C 
ATOM     25  N   UNL     1      47.969   3.967  19.112  0.00  0.00    +0.000 N 
ATOM     26  O   UNL     1      49.524   2.821  17.973  0.00  0.00    +0.000 OA
ATOM     27  H   UNL     1      47.371   4.775  19.218  0.00  0.00    +0.000 HD
ATOM     28  H   UNL     1      48.290   3.503  19.951  0.00  0.00    +0.000 HD
ENDBRANCH  23  24
ENDBRANCH  16  20
ENDBRANCH   1  16
TORSDOF 7
ENDMDL
MODEL 8
REMARK VINA RESULT:    -7.206      3.067      8.282
REMARK INTER + INTRA:         -11.256
REMARK INTER:                 -10.606
REMARK INTRA:                  -0.650
REMARK UNBOUND:                -1.100
REMARK  Name = 
REMARK  8 active torsions:
REMARK  status: ('A' for Active; 'I' for Inactive)
REMARK    1  A    between atoms: C_1  and  C_2
REMARK    2  A    between atoms: C_4  and  O_5
REMARK    3  A    between atoms: O_5  and  C_6
REMARK    4  A    between atoms: C_6  and  C_7
REMARK    5  A    between atoms: C_7  and  C_10
REMARK    6  A    between atoms: C_14  and  O_15
REMARK    7  A    between atoms: O_15  and  C_16
REMARK    8  A    between atoms: C_23  and  C_24
REMARK                            x       y       z     vdW  Elec       q    Type
REMARK                         _______ _______ _______ _____ _____    ______ ____
ROOT
ATOM      1  C   UNL     1      45.759   5.815  12.796  0.00  0.00    +0.000 C 
ENDROOT
BRANCH   1   2
ATOM      2  C   UNL     1      45.538   6.287  11.348  0.00  0.00    +0.000 C 
ATOM      3  F   UNL     1      46.659   6.937  10.918  0.00  0.00    +0.000 F 
ATOM      4  F   UNL     1      44.542   7.222  11.334  0.00  0.00    +0.000 F 
BRANCH   2   5
ATOM      5  C   UNL     1      45.204   5.093  10.465  0.00  0.00    +0.000 A 
ATOM      6  C   UNL     1      44.399   4.048  10.942  0.00  0.00    +0.000 A 
ATOM      7  C   UNL     1      44.121   2.944  10.133  0.00  0.00    +0.000 A 
ATOM      8  C   UNL     1      44.650   2.864   8.842  0.00  0.00    +0.000 A 
ATOM      9  C   UNL     1      45.466   3.886   8.364  0.00  0.00    +0.000 A 
ATOM     10  C   UNL     1      45.726   5.000   9.165  0.00  0.00    +0.000 A 
BRANCH   9  11
ATOM     11  O   UNL     1      46.038   3.914   7.117  0.00  0.00    +0.000 OA
BRANCH  11  12
ATOM     12  C   UNL     1      46.404   2.661   6.496  0.00  0.00    +0.000 C 
ATOM     13  C   UNL     1      47.521   1.829   7.144  0.00  0.00    +0.000 C 
ATOM     14  O   UNL     1      48.257   1.762   5.898  0.00  0.00    +0.000 OA
ATOM     15  C   UNL     1      47.391   2.771   5.324  0.00  0.00    +0.000 C 
ENDBRANCH  11  12
ENDBRANCH   9  11
ENDBRANCH   2   5
ENDBRANCH   1   2
BRANCH   1  16
ATOM     16  O   UNL     1      47.108   5.371  13.018  0.00  0.00    +0.000 OA
BRANCH  16  20
ATOM     17  C   UNL     1      47.218   3.144  17.449  0.00  0.00    +0.000 C 
ATOM     18  C   UNL     1      47.630   4.283  16.554  0.00  0.00    +0.000 A 
ATOM     19  C   UNL     1      47.168   4.277  15.222  0.00  0.00    +0.000 A 
ATOM     20  C   UNL     1      47.509   5.295  14.328  0.00  0.00    +0.000 A 
ATOM     21  C   UNL     1      48.320   6.337  14.770  0.00  0.00    +0.000 A 
ATOM     22  C   UNL     1      48.787   6.365  16.091  0.00  0.00    +0.000 A 
ATOM     23  C   UNL     1      48.454   5.339  16.993  0.00  0.00    +0.000 A 
BRANCH  23  24
ATOM     24  C   UNL     1      48.954   5.397  18.404  0.00  0.00    +0.000 C 
ATOM     25  N   UNL     1      50.187   4.861  18.656  0.00  0.00    +0.000 N 
ATOM     26  O   UNL     1      48.308   5.890  19.319  0.00  0.00    +0.000 OA
ATOM     27  H   UNL     1      50.689   4.282  17.998  0.00  0.00    +0.000 HD
ATOM     28  H   UNL     1      50.472   4.831  19.626  0.00  0.00    +0.000 HD
ENDBRANCH  23  24
ENDBRANCH  16  20
ENDBRANCH   1  16
TORSDOF 7
ENDMDL
MODEL 9
REMARK VINA RESULT:    -6.473      3.889      7.708
REMARK INTER + INTRA:         -10.222
REMARK INTER:                  -9.548
REMARK INTRA:                  -0.675
REMARK UNBOUND:                -1.100
REMARK  Name = 
REMARK  8 active torsions:
REMARK  status: ('A' for Active; 'I' for Inactive)
REMARK    1  A    between atoms: C_1  and  C_2
REMARK    2  A    between atoms: C_4  and  O_5
REMARK    3  A    between atoms: O_5  and  C_6
REMARK    4  A    between atoms: C_6  and  C_7
REMARK    5  A    between atoms: C_7  and  C_10
REMARK    6  A    between atoms: C_14  and  O_15
REMARK    7  A    between atoms: O_15  and  C_16
REMARK    8  A    between atoms: C_23  and  C_24
REMARK                            x       y       z     vdW  Elec       q    Type
REMARK                         _______ _______ _______ _____ _____    ______ ____
ROOT
ATOM      1  C   UNL     1      46.736   6.604  11.742  0.00  0.00    +0.000 C 
ENDROOT
BRANCH   1   2
ATOM      2  C   UNL     1      45.231   6.366  11.528  0.00  0.00    +0.000 C 
ATOM      3  F   UNL     1      44.678   7.490  10.986  0.00  0.00    +0.000 F 
ATOM      4  F   UNL     1      44.629   6.209  12.744  0.00  0.00    +0.000 F 
BRANCH   2   5
ATOM      5  C   UNL     1      45.026   5.150  10.636  0.00  0.00    +0.000 A 
ATOM      6  C   UNL     1      44.242   4.068  11.063  0.00  0.00    +0.000 A 
ATOM      7  C   UNL     1      44.082   2.946  10.247  0.00  0.00    +0.000 A 
ATOM      8  C   UNL     1      44.711   2.883   9.001  0.00  0.00    +0.000 A 
ATOM      9  C   UNL     1      45.509   3.942   8.575  0.00  0.00    +0.000 A 
ATOM     10  C   UNL     1      45.650   5.074   9.381  0.00  0.00    +0.000 A 
BRANCH   9  11
ATOM     11  O   UNL     1      46.171   3.990   7.374  0.00  0.00    +0.000 OA
BRANCH  11  12
ATOM     12  C   UNL     1      46.395   2.754   6.657  0.00  0.00    +0.000 C 
ATOM     13  C   UNL     1      47.506   1.818   7.154  0.00  0.00    +0.000 C 
ATOM     14  O   UNL     1      48.121   1.777   5.844  0.00  0.00    +0.000 OA
ATOM     15  C   UNL     1      47.278   2.870   5.406  0.00  0.00    +0.000 C 
ENDBRANCH  11  12
ENDBRANCH   9  11
ENDBRANCH   2   5
ENDBRANCH   1   2
BRANCH   1  16
ATOM     16  O   UNL     1      47.009   7.929  12.226  0.00  0.00    +0.000 OA
BRANCH  16  20
ATOM     17  C   UNL     1      51.678   7.483  10.614  0.00  0.00    +0.000 C 
ATOM     18  C   UNL     1      50.549   8.348  11.109  0.00  0.00    +0.000 A 
ATOM     19  C   UNL     1      49.329   7.721  11.431  0.00  0.00    +0.000 A 
ATOM     20  C   UNL     1      48.231   8.453  11.891  0.00  0.00    +0.000 A 
ATOM     21  C   UNL     1      48.355   9.832  12.036  0.00  0.00    +0.000 A 
ATOM     22  C   UNL     1      49.561  10.477  11.726  0.00  0.00    +0.000 A 
ATOM     23  C   UNL     1      50.665   9.745  11.254  0.00  0.00    +0.000 A 
BRANCH  23  24
ATOM     24  C   UNL     1      51.948  10.453  10.941  0.00  0.00    +0.000 C 
ATOM     25  N   UNL     1      52.820  10.658  11.975  0.00  0.00    +0.000 N 
ATOM     26  O   UNL     1      52.232  10.851   9.819  0.00  0.00    +0.000 OA
ATOM     27  H   UNL     1      52.577  10.524  12.946  0.00  0.00    +0.000 HD
ATOM     28  H   UNL     1      53.641  11.210  11.765  0.00  0.00    +0.000 HD
ENDBRANCH  23  24
ENDBRANCH  16  20
ENDBRANCH   1  16
TORSDOF 7
ENDMDL
