MODEL 1
REMARK VINA RESULT:    -9.178      0.000      0.000
REMARK INTER + INTRA:         -11.951
REMARK INTER:                 -11.324
REMARK INTRA:                  -0.627
REMARK UNBOUND:                -0.627
REMARK  Name = 
REMARK  4 active torsions:
REMARK  status: ('A' for Active; 'I' for Inactive)
REMARK    1  A    between atoms: C_2  and  C_4
REMARK    2  A    between atoms: N_8  and  C_9
REMARK    3  A    between atoms: C_9  and  C_10
REMARK    4  A    between atoms: C_14  and  C_15
REMARK                            x       y       z     vdW  Elec       q    Type
REMARK                         _______ _______ _______ _____ _____    ______ ____
ROOT
ATOM      1  C   UNL     1      46.399   2.298   7.727  0.00  0.00    +0.000 A 
ATOM      2  C   UNL     1      45.571   1.784   8.717  0.00  0.00    +0.000 A 
ATOM      3  C   UNL     1      44.690   2.640   9.379  0.00  0.00    +0.000 A 
ATOM      4  C   UNL     1      44.671   3.997   9.064  0.00  0.00    +0.000 A 
ATOM      5  N   UNL     1      43.758   4.884   9.602  0.00  0.00    +0.000 N 
ATOM      6  N   UNL     1      45.487   4.509   8.124  0.00  0.00    +0.000 NA
ATOM      7  C   UNL     1      46.335   3.661   7.481  0.00  0.00    +0.000 A 
ATOM      8  H   UNL     1      44.024   5.816   9.286  0.00  0.00    +0.000 HD
ENDROOT
BRANCH   1  10
ATOM      9  N   UNL     1      48.441   2.070   6.428  0.00  0.00    +0.000 N 
ATOM     10  C   UNL     1      47.330   1.460   6.947  0.00  0.00    +0.000 C 
ATOM     11  O   UNL     1      47.139   0.261   6.798  0.00  0.00    +0.000 OA
ATOM     12  H   UNL     1      49.120   1.463   5.984  0.00  0.00    +0.000 HD
ATOM     13  H   UNL     1      48.761   2.974   6.740  0.00  0.00    +0.000 HD
ENDBRANCH   1  10
BRANCH   5  14
ATOM     14  C   UNL     1      43.407   4.813  11.010  0.00  0.00    +0.000 C 
BRANCH  14  15
ATOM     15  C   UNL     1      44.628   4.966  11.883  0.00  0.00    +0.000 A 
ATOM     16  C   UNL     1      44.915   4.006  12.843  0.00  0.00    +0.000 A 
ATOM     17  N   UNL     1      45.940   4.091  13.715  0.00  0.00    +0.000 NA
ATOM     18  C   UNL     1      46.723   5.196  13.632  0.00  0.00    +0.000 A 
ATOM     19  C   UNL     1      46.539   6.249  12.732  0.00  0.00    +0.000 A 
ATOM     20  C   UNL     1      45.448   6.106  11.857  0.00  0.00    +0.000 A 
BRANCH  19  21
ATOM     21  C   UNL     1      47.427   7.430  12.703  0.00  0.00    +0.000 A 
ATOM     22  C   UNL     1      48.461   7.567  11.763  0.00  0.00    +0.000 A 
ATOM     23  C   UNL     1      49.284   8.694  11.762  0.00  0.00    +0.000 A 
ATOM     24  C   UNL     1      49.062   9.671  12.714  0.00  0.00    +0.000 A 
ATOM     25  N   UNL     1      48.088   9.595  13.641  0.00  0.00    +0.000 NA
ATOM     26  C   UNL     1      47.301   8.488  13.609  0.00  0.00    +0.000 A 
ENDBRANCH  19  21
ENDBRANCH  14  15
ENDBRANCH   5  14
TORSDOF 4
ENDMDL
MODEL 2
REMARK VINA RESULT:    -8.977      1.641      3.250
REMARK INTER + INTRA:         -11.702
REMARK INTER:                 -10.983
REMARK INTRA:                  -0.719
REMARK UNBOUND:                -0.627
REMARK  Name = 
REMARK  4 active torsions:
REMARK  status: ('A' for Active; 'I' for Inactive)
REMARK    1  A    between atoms: C_2  and  C_4
REMARK    2  A    between atoms: N_8  and  C_9
REMARK    3  A    between atoms: C_9  and  C_10
REMARK    4  A    between atoms: C_14  and  C_15
REMARK                            x       y       z     vdW  Elec       q    Type
REMARK                         _______ _______ _______ _____ _____    ______ ____
ROOT
ATOM      1  C   UNL     1      46.381   2.302   7.715  0.00  0.00    +0.000 A 
ATOM      2  C   UNL     1      45.577   1.825   8.743  0.00  0.00    +0.000 A 
ATOM      3  C   UNL     1      44.717   2.706   9.399  0.00  0.00    +0.000 A 
ATOM      4  C   UNL     1      44.695   4.052   9.040  0.00  0.00    +0.000 A 
ATOM      5  N   UNL     1      43.800   4.961   9.572  0.00  0.00    +0.000 N 
ATOM      6  N   UNL     1      45.489   4.530   8.064  0.00  0.00    +0.000 NA
ATOM      7  C   UNL     1      46.317   3.657   7.427  0.00  0.00    +0.000 A 
ATOM      8  H   UNL     1      44.061   5.880   9.219  0.00  0.00    +0.000 HD
ENDROOT
BRANCH   1  10
ATOM      9  N   UNL     1      48.373   2.027   6.350  0.00  0.00    +0.000 N 
ATOM     10  C   UNL     1      47.288   1.435   6.940  0.00  0.00    +0.000 C 
ATOM     11  O   UNL     1      47.102   0.229   6.855  0.00  0.00    +0.000 OA
ATOM     12  H   UNL     1      49.039   1.404   5.909  0.00  0.00    +0.000 HD
ATOM     13  H   UNL     1      48.697   2.947   6.606  0.00  0.00    +0.000 HD
ENDBRANCH   1  10
BRANCH   5  14
ATOM     14  C   UNL     1      43.486   4.937  10.990  0.00  0.00    +0.000 C 
BRANCH  14  15
ATOM     15  C   UNL     1      44.604   5.537  11.806  0.00  0.00    +0.000 A 
ATOM     16  C   UNL     1      45.095   6.795  11.485  0.00  0.00    +0.000 A 
ATOM     17  N   UNL     1      46.136   7.382  12.108  0.00  0.00    +0.000 NA
ATOM     18  C   UNL     1      46.727   6.678  13.106  0.00  0.00    +0.000 A 
ATOM     19  C   UNL     1      46.354   5.397  13.520  0.00  0.00    +0.000 A 
ATOM     20  C   UNL     1      45.270   4.835  12.824  0.00  0.00    +0.000 A 
BRANCH  19  21
ATOM     21  C   UNL     1      47.051   4.682  14.610  0.00  0.00    +0.000 A 
ATOM     22  C   UNL     1      47.506   5.338  15.765  0.00  0.00    +0.000 A 
ATOM     23  C   UNL     1      48.162   4.636  16.776  0.00  0.00    +0.000 A 
ATOM     24  C   UNL     1      48.360   3.278  16.612  0.00  0.00    +0.000 A 
ATOM     25  N   UNL     1      47.948   2.595  15.526  0.00  0.00    +0.000 NA
ATOM     26  C   UNL     1      47.307   3.308  14.565  0.00  0.00    +0.000 A 
ENDBRANCH  19  21
ENDBRANCH  14  15
ENDBRANCH   5  14
TORSDOF 4
ENDMDL
MODEL 3
REMARK VINA RESULT:    -8.251      2.897      6.803
REMARK INTER + INTRA:         -10.807
REMARK INTER:                 -10.016
REMARK INTRA:                  -0.791
REMARK UNBOUND:                -0.627
REMARK  Name = 
REMARK  4 active torsions:
REMARK  status: ('A' for Active; 'I' for Inactive)
REMARK    1  A    between atoms: C_2  and  C_4
REMARK    2  A    between atoms: N_8  and  C_9
REMARK    3  A    between atoms: C_9  and  C_10
REMARK    4  A    between atoms: C_14  and  C_15
REMARK                            x       y       z     vdW  Elec       q    Type
REMARK                         _______ _______ _______ _____ _____    ______ ____
ROOT
ATOM      1  C   UNL     1      48.309   7.110  13.010  0.00  0.00    +0.000 A 
ATOM      2  C   UNL     1      47.655   7.667  11.917  0.00  0.00    +0.000 A 
ATOM      3  C   UNL     1      46.299   7.398  11.725  0.00  0.00    +0.000 A 
ATOM      4  C   UNL     1      45.627   6.555  12.607  0.00  0.00    +0.000 A 
ATOM      5  N   UNL     1      44.266   6.325  12.541  0.00  0.00    +0.000 N 
ATOM      6  N   UNL     1      46.257   5.989  13.653  0.00  0.00    +0.000 NA
ATOM      7  C   UNL     1      47.577   6.268  13.833  0.00  0.00    +0.000 A 
ATOM      8  H   UNL     1      44.051   5.604  13.228  0.00  0.00    +0.000 HD
ENDROOT
BRANCH   1  10
ATOM      9  N   UNL     1      50.578   7.538  12.253  0.00  0.00    +0.000 N 
ATOM     10  C   UNL     1      49.728   7.374  13.314  0.00  0.00    +0.000 C 
ATOM     11  O   UNL     1      50.126   7.478  14.466  0.00  0.00    +0.000 OA
ATOM     12  H   UNL     1      51.526   7.819  12.477  0.00  0.00    +0.000 HD
ATOM     13  H   UNL     1      50.252   7.714  11.315  0.00  0.00    +0.000 HD
ENDBRANCH   1  10
BRANCH   5  14
ATOM     14  C   UNL     1      43.615   6.133  11.256  0.00  0.00    +0.000 C 
BRANCH  14  15
ATOM     15  C   UNL     1      43.802   4.722  10.757  0.00  0.00    +0.000 A 
ATOM     16  C   UNL     1      43.188   3.668  11.418  0.00  0.00    +0.000 A 
ATOM     17  N   UNL     1      43.353   2.371  11.090  0.00  0.00    +0.000 NA
ATOM     18  C   UNL     1      44.179   2.103  10.047  0.00  0.00    +0.000 A 
ATOM     19  C   UNL     1      44.878   3.060   9.307  0.00  0.00    +0.000 A 
ATOM     20  C   UNL     1      44.673   4.392   9.704  0.00  0.00    +0.000 A 
BRANCH  19  21
ATOM     21  C   UNL     1      45.771   2.697   8.187  0.00  0.00    +0.000 A 
ATOM     22  C   UNL     1      46.082   3.597   7.155  0.00  0.00    +0.000 A 
ATOM     23  C   UNL     1      46.928   3.225   6.110  0.00  0.00    +0.000 A 
ATOM     24  C   UNL     1      47.448   1.944   6.109  0.00  0.00    +0.000 A 
ATOM     25  N   UNL     1      47.184   1.037   7.070  0.00  0.00    +0.000 NA
ATOM     26  C   UNL     1      46.364   1.435   8.076  0.00  0.00    +0.000 A 
ENDBRANCH  19  21
ENDBRANCH  14  15
ENDBRANCH   5  14
TORSDOF 4
ENDMDL
MODEL 4
REMARK VINA RESULT:    -7.944      3.038      7.305
REMARK INTER + INTRA:         -10.429
REMARK INTER:                  -9.932
REMARK INTRA:                  -0.497
REMARK UNBOUND:                -0.627
REMARK  Name = 
REMARK  4 active torsions:
REMARK  status: ('A' for Active; 'I' for Inactive)
REMARK    1  A    between atoms: C_2  and  C_4
REMARK    2  A    between atoms: N_8  and  C_9
REMARK    3  A    between atoms: C_9  and  C_10
REMARK    4  A    between atoms: C_14  and  C_15
REMARK                            x       y       z     vdW  Elec       q    Type
REMARK                         _______ _______ _______ _____ _____    ______ ____
ROOT
ATOM      1  C   UNL     1      47.892   5.550  15.366  0.00  0.00    +0.000 A 
ATOM      2  C   UNL     1      46.882   4.759  14.833  0.00  0.00    +0.000 A 
ATOM      3  C   UNL     1      46.319   5.110  13.606  0.00  0.00    +0.000 A 
ATOM      4  C   UNL     1      46.751   6.259  12.946  0.00  0.00    +0.000 A 
ATOM      5  N   UNL     1      46.315   6.614  11.684  0.00  0.00    +0.000 N 
ATOM      6  N   UNL     1      47.711   7.046  13.467  0.00  0.00    +0.000 NA
ATOM      7  C   UNL     1      48.257   6.687  14.661  0.00  0.00    +0.000 A 
ATOM      8  H   UNL     1      46.704   7.534  11.481  0.00  0.00    +0.000 HD
ENDROOT
BRANCH   1  10
ATOM      9  N   UNL     1      47.997   5.690  17.791  0.00  0.00    +0.000 N 
ATOM     10  C   UNL     1      48.573   5.231  16.636  0.00  0.00    +0.000 C 
ATOM     11  O   UNL     1      49.591   4.554  16.663  0.00  0.00    +0.000 OA
ATOM     12  H   UNL     1      48.419   5.377  18.657  0.00  0.00    +0.000 HD
ATOM     13  H   UNL     1      47.045   6.019  17.830  0.00  0.00    +0.000 HD
ENDBRANCH   1  10
BRANCH   5  14
ATOM     14  C   UNL     1      44.915   6.469  11.323  0.00  0.00    +0.000 C 
BRANCH  14  15
ATOM     15  C   UNL     1      44.650   5.118  10.707  0.00  0.00    +0.000 A 
ATOM     16  C   UNL     1      43.682   4.287  11.253  0.00  0.00    +0.000 A 
ATOM     17  N   UNL     1      43.423   3.038  10.816  0.00  0.00    +0.000 NA
ATOM     18  C   UNL     1      44.172   2.585   9.780  0.00  0.00    +0.000 A 
ATOM     19  C   UNL     1      45.192   3.301   9.149  0.00  0.00    +0.000 A 
ATOM     20  C   UNL     1      45.421   4.592   9.656  0.00  0.00    +0.000 A 
BRANCH  19  21
ATOM     21  C   UNL     1      45.978   2.741   8.029  0.00  0.00    +0.000 A 
ATOM     22  C   UNL     1      46.326   3.505   6.903  0.00  0.00    +0.000 A 
ATOM     23  C   UNL     1      47.067   2.947   5.860  0.00  0.00    +0.000 A 
ATOM     24  C   UNL     1      47.445   1.621   5.958  0.00  0.00    +0.000 A 
ATOM     25  N   UNL     1      47.139   0.839   7.012  0.00  0.00    +0.000 NA
ATOM     26  C   UNL     1      46.424   1.416   8.012  0.00  0.00    +0.000 A 
ENDBRANCH  19  21
ENDBRANCH  14  15
ENDBRANCH   5  14
TORSDOF 4
ENDMDL
MODEL 5
REMARK VINA RESULT:    -7.944      1.689      2.265
REMARK INTER + INTRA:         -10.428
REMARK INTER:                  -9.833
REMARK INTRA:                  -0.595
REMARK UNBOUND:                -0.627
REMARK  Name = 
REMARK  4 active torsions:
REMARK  status: ('A' for Active; 'I' for Inactive)
REMARK    1  A    between atoms: C_2  and  C_4
REMARK    2  A    between atoms: N_8  and  C_9
REMARK    3  A    between atoms: C_9  and  C_10
REMARK    4  A    between atoms: C_14  and  C_15
REMARK                            x       y       z     vdW  Elec       q    Type
REMARK                         _______ _______ _______ _____ _____    ______ ____
ROOT
ATOM      1  C   UNL     1      46.345   2.198   7.853  0.00  0.00    +0.000 A 
ATOM      2  C   UNL     1      45.612   1.821   8.972  0.00  0.00    +0.000 A 
ATOM      3  C   UNL     1      44.769   2.752   9.579  0.00  0.00    +0.000 A 
ATOM      4  C   UNL     1      44.693   4.050   9.079  0.00  0.00    +0.000 A 
ATOM      5  N   UNL     1      43.808   4.995   9.562  0.00  0.00    +0.000 N 
ATOM      6  N   UNL     1      45.419   4.433   8.012  0.00  0.00    +0.000 NA
ATOM      7  C   UNL     1      46.231   3.511   7.425  0.00  0.00    +0.000 A 
ATOM      8  H   UNL     1      44.026   5.875   9.097  0.00  0.00    +0.000 HD
ENDROOT
BRANCH   1  10
ATOM      9  N   UNL     1      48.220   1.815   6.356  0.00  0.00    +0.000 N 
ATOM     10  C   UNL     1      47.227   1.268   7.123  0.00  0.00    +0.000 C 
ATOM     11  O   UNL     1      47.103   0.055   7.226  0.00  0.00    +0.000 OA
ATOM     12  H   UNL     1      48.879   1.165   5.944  0.00  0.00    +0.000 HD
ATOM     13  H   UNL     1      48.513   2.776   6.449  0.00  0.00    +0.000 HD
ENDBRANCH   1  10
BRANCH   5  14
ATOM     14  C   UNL     1      43.575   5.120  10.991  0.00  0.00    +0.000 C 
BRANCH  14  15
ATOM     15  C   UNL     1      44.248   6.350  11.546  0.00  0.00    +0.000 A 
ATOM     16  C   UNL     1      43.809   7.610  11.164  0.00  0.00    +0.000 A 
ATOM     17  N   UNL     1      44.392   8.763  11.550  0.00  0.00    +0.000 NA
ATOM     18  C   UNL     1      45.475   8.660  12.360  0.00  0.00    +0.000 A 
ATOM     19  C   UNL     1      46.039   7.461  12.804  0.00  0.00    +0.000 A 
ATOM     20  C   UNL     1      45.394   6.295  12.359  0.00  0.00    +0.000 A 
BRANCH  19  21
ATOM     21  C   UNL     1      47.229   7.421  13.679  0.00  0.00    +0.000 A 
ATOM     22  C   UNL     1      47.795   8.584  14.227  0.00  0.00    +0.000 A 
ATOM     23  C   UNL     1      48.921   8.514  15.048  0.00  0.00    +0.000 A 
ATOM     24  C   UNL     1      49.472   7.272  15.304  0.00  0.00    +0.000 A 
ATOM     25  N   UNL     1      48.975   6.124  14.806  0.00  0.00    +0.000 NA
ATOM     26  C   UNL     1      47.875   6.228  14.017  0.00  0.00    +0.000 A 
ENDBRANCH  19  21
ENDBRANCH  14  15
ENDBRANCH   5  14
TORSDOF 4
ENDMDL
MODEL 6
REMARK VINA RESULT:    -7.890      1.743      2.274
REMARK INTER + INTRA:         -10.362
REMARK INTER:                 -10.254
REMARK INTRA:                  -0.108
REMARK UNBOUND:                -0.627
REMARK  Name = 
REMARK  4 active torsions:
REMARK  status: ('A' for Active; 'I' for Inactive)
REMARK    1  A    between atoms: C_2  and  C_4
REMARK    2  A    between atoms: N_8  and  C_9
REMARK    3  A    between atoms: C_9  and  C_10
REMARK    4  A    between atoms: C_14  and  C_15
REMARK                            x       y       z     vdW  Elec       q    Type
REMARK                         _______ _______ _______ _____ _____    ______ ____
ROOT
ATOM      1  C   UNL     1      46.705   2.507   7.160  0.00  0.00    +0.000 A 
ATOM      2  C   UNL     1      46.233   3.730   7.620  0.00  0.00    +0.000 A 
ATOM      3  C   UNL     1      45.487   3.772   8.798  0.00  0.00    +0.000 A 
ATOM      4  C   UNL     1      45.199   2.593   9.481  0.00  0.00    +0.000 A 
ATOM      5  N   UNL     1      44.555   2.565  10.704  0.00  0.00    +0.000 N 
ATOM      6  N   UNL     1      45.629   1.399   9.030  0.00  0.00    +0.000 NA
ATOM      7  C   UNL     1      46.363   1.374   7.884  0.00  0.00    +0.000 A 
ATOM      8  H   UNL     1      44.383   1.587  10.930  0.00  0.00    +0.000 HD
ENDROOT
BRANCH   1  10
ATOM      9  N   UNL     1      47.374   3.315   4.968  0.00  0.00    +0.000 N 
ATOM     10  C   UNL     1      47.536   2.373   5.948  0.00  0.00    +0.000 C 
ATOM     11  O   UNL     1      48.364   1.479   5.837  0.00  0.00    +0.000 OA
ATOM     12  H   UNL     1      48.022   3.268   4.190  0.00  0.00    +0.000 HD
ATOM     13  H   UNL     1      46.903   4.192   5.128  0.00  0.00    +0.000 HD
ENDBRANCH   1  10
BRANCH   5  14
ATOM     14  C   UNL     1      43.424   3.441  10.957  0.00  0.00    +0.000 C 
BRANCH  14  15
ATOM     15  C   UNL     1      43.883   4.831  11.322  0.00  0.00    +0.000 A 
ATOM     16  C   UNL     1      43.040   5.913  11.115  0.00  0.00    +0.000 A 
ATOM     17  N   UNL     1      43.386   7.196  11.343  0.00  0.00    +0.000 NA
ATOM     18  C   UNL     1      44.644   7.419  11.799  0.00  0.00    +0.000 A 
ATOM     19  C   UNL     1      45.604   6.430  12.031  0.00  0.00    +0.000 A 
ATOM     20  C   UNL     1      45.187   5.115  11.764  0.00  0.00    +0.000 A 
BRANCH  19  21
ATOM     21  C   UNL     1      46.963   6.745  12.520  0.00  0.00    +0.000 A 
ATOM     22  C   UNL     1      47.815   7.633  11.844  0.00  0.00    +0.000 A 
ATOM     23  C   UNL     1      49.094   7.908  12.330  0.00  0.00    +0.000 A 
ATOM     24  C   UNL     1      49.506   7.280  13.490  0.00  0.00    +0.000 A 
ATOM     25  N   UNL     1      48.734   6.418  14.180  0.00  0.00    +0.000 NA
ATOM     26  C   UNL     1      47.493   6.179  13.683  0.00  0.00    +0.000 A 
ENDBRANCH  19  21
ENDBRANCH  14  15
ENDBRANCH   5  14
TORSDOF 4
ENDMDL
MODEL 7
REMARK VINA RESULT:    -7.618      2.908      6.678
REMARK INTER + INTRA:         -10.026
REMARK INTER:                  -9.323
REMARK INTRA:                  -0.703
REMARK UNBOUND:                -0.627
REMARK  Name = 
REMARK  4 active torsions:
REMARK  status: ('A' for Active; 'I' for Inactive)
REMARK    1  A    between atoms: C_2  and  C_4
REMARK    2  A    between atoms: N_8  and  C_9
REMARK    3  A    between atoms: C_9  and  C_10
REMARK    4  A    between atoms: C_14  and  C_15
REMARK                            x       y       z     vdW  Elec       q    Type
REMARK                         _______ _______ _______ _____ _____    ______ ____
ROOT
ATOM      1  C   UNL     1      49.151   7.697  12.279  0.00  0.00    +0.000 A 
ATOM      2  C   UNL     1      48.056   8.376  11.758  0.00  0.00    +0.000 A 
ATOM      3  C   UNL     1      46.771   7.908  12.035  0.00  0.00    +0.000 A 
ATOM      4  C   UNL     1      46.601   6.756  12.800  0.00  0.00    +0.000 A 
ATOM      5  N   UNL     1      45.362   6.292  13.200  0.00  0.00    +0.000 N 
ATOM      6  N   UNL     1      47.656   6.077  13.287  0.00  0.00    +0.000 NA
ATOM      7  C   UNL     1      48.903   6.550  13.017  0.00  0.00    +0.000 A 
ATOM      8  H   UNL     1      45.512   5.393  13.656  0.00  0.00    +0.000 HD
ENDROOT
BRANCH   1  10
ATOM      9  N   UNL     1      51.304   7.439  11.180  0.00  0.00    +0.000 N 
ATOM     10  C   UNL     1      50.542   8.144  12.074  0.00  0.00    +0.000 C 
ATOM     11  O   UNL     1      50.990   9.126  12.649  0.00  0.00    +0.000 OA
ATOM     12  H   UNL     1      52.220   7.818  10.974  0.00  0.00    +0.000 HD
ATOM     13  H   UNL     1      50.904   6.800  10.509  0.00  0.00    +0.000 HD
ENDBRANCH   1  10
BRANCH   5  14
ATOM     14  C   UNL     1      44.239   6.309  12.278  0.00  0.00    +0.000 C 
BRANCH  14  15
ATOM     15  C   UNL     1      44.122   5.000  11.538  0.00  0.00    +0.000 A 
ATOM     16  C   UNL     1      43.290   4.003  12.026  0.00  0.00    +0.000 A 
ATOM     17  N   UNL     1      43.175   2.778  11.475  0.00  0.00    +0.000 NA
ATOM     18  C   UNL     1      43.932   2.526  10.378  0.00  0.00    +0.000 A 
ATOM     19  C   UNL     1      44.827   3.426   9.793  0.00  0.00    +0.000 A 
ATOM     20  C   UNL     1      44.911   4.681  10.419  0.00  0.00    +0.000 A 
BRANCH  19  21
ATOM     21  C   UNL     1      45.630   3.082   8.601  0.00  0.00    +0.000 A 
ATOM     22  C   UNL     1      46.145   1.792   8.391  0.00  0.00    +0.000 A 
ATOM     23  C   UNL     1      46.902   1.499   7.256  0.00  0.00    +0.000 A 
ATOM     24  C   UNL     1      47.139   2.510   6.345  0.00  0.00    +0.000 A 
ATOM     25  N   UNL     1      46.674   3.765   6.492  0.00  0.00    +0.000 NA
ATOM     26  C   UNL     1      45.935   4.014   7.604  0.00  0.00    +0.000 A 
ENDBRANCH  19  21
ENDBRANCH  14  15
ENDBRANCH   5  14
TORSDOF 4
ENDMDL
MODEL 8
REMARK VINA RESULT:    -7.305      2.890      6.985
REMARK INTER + INTRA:          -9.640
REMARK INTER:                  -9.086
REMARK INTRA:                  -0.555
REMARK UNBOUND:                -0.627
REMARK  Name = 
REMARK  4 active torsions:
REMARK  status: ('A' for Active; 'I' for Inactive)
REMARK    1  A    between atoms: C_2  and  C_4
REMARK    2  A    between atoms: N_8  and  C_9
REMARK    3  A    between atoms: C_9  and  C_10
REMARK    4  A    between atoms: C_14  and  C_15
REMARK                            x       y       z     vdW  Elec       q    Type
REMARK                         _______ _______ _______ _____ _____    ______ ____
ROOT
ATOM      1  C   UNL     1      47.139   8.879  12.972  0.00  0.00    +0.000 A 
ATOM      2  C   UNL     1      46.811   7.545  13.178  0.00  0.00    +0.000 A 
ATOM      3  C   UNL     1      45.682   7.017  12.550  0.00  0.00    +0.000 A 
ATOM      4  C   UNL     1      44.885   7.834  11.752  0.00  0.00    +0.000 A 
ATOM      5  N   UNL     1      43.814   7.361  11.018  0.00  0.00    +0.000 N 
ATOM      6  N   UNL     1      45.180   9.135  11.567  0.00  0.00    +0.000 NA
ATOM      7  C   UNL     1      46.288   9.634  12.179  0.00  0.00    +0.000 A 
ATOM      8  H   UNL     1      43.349   8.170  10.609  0.00  0.00    +0.000 HD
ENDROOT
BRANCH   1  10
ATOM      9  N   UNL     1      48.177  10.738  14.144  0.00  0.00    +0.000 N 
ATOM     10  C   UNL     1      48.336   9.509  13.561  0.00  0.00    +0.000 C 
ATOM     11  O   UNL     1      49.421   8.944  13.563  0.00  0.00    +0.000 OA
ATOM     12  H   UNL     1      48.983  11.111  14.632  0.00  0.00    +0.000 HD
ATOM     13  H   UNL     1      47.273  11.112  14.388  0.00  0.00    +0.000 HD
ENDBRANCH   1  10
BRANCH   5  14
ATOM     14  C   UNL     1      42.906   6.383  11.592  0.00  0.00    +0.000 C 
BRANCH  14  15
ATOM     15  C   UNL     1      43.276   4.983  11.170  0.00  0.00    +0.000 A 
ATOM     16  C   UNL     1      42.830   3.897  11.910  0.00  0.00    +0.000 A 
ATOM     17  N   UNL     1      43.166   2.617  11.653  0.00  0.00    +0.000 NA
ATOM     18  C   UNL     1      43.995   2.402  10.601  0.00  0.00    +0.000 A 
ATOM     19  C   UNL     1      44.537   3.397   9.785  0.00  0.00    +0.000 A 
ATOM     20  C   UNL     1      44.159   4.711  10.110  0.00  0.00    +0.000 A 
BRANCH  19  21
ATOM     21  C   UNL     1      45.445   3.092   8.659  0.00  0.00    +0.000 A 
ATOM     22  C   UNL     1      45.991   1.814   8.463  0.00  0.00    +0.000 A 
ATOM     23  C   UNL     1      46.847   1.557   7.392  0.00  0.00    +0.000 A 
ATOM     24  C   UNL     1      47.152   2.594   6.530  0.00  0.00    +0.000 A 
ATOM     25  N   UNL     1      46.661   3.841   6.669  0.00  0.00    +0.000 NA
ATOM     26  C   UNL     1      45.825   4.054   7.718  0.00  0.00    +0.000 A 
ENDBRANCH  19  21
ENDBRANCH  14  15
ENDBRANCH   5  14
TORSDOF 4
ENDMDL
MODEL 9
REMARK VINA RESULT:    -7.135      3.441      7.469
REMARK INTER + INTRA:          -9.430
REMARK INTER:                  -8.852
REMARK INTRA:                  -0.578
REMARK UNBOUND:                -0.627
REMARK  Name = 
REMARK  4 active torsions:
REMARK  status: ('A' for Active; 'I' for Inactive)
REMARK    1  A    between atoms: C_2  and  C_4
REMARK    2  A    between atoms: N_8  and  C_9
REMARK    3  A    between atoms: C_9  and  C_10
REMARK    4  A    between atoms: C_14  and  C_15
REMARK                            x       y       z     vdW  Elec       q    Type
REMARK                         _______ _______ _______ _____ _____    ______ ____
ROOT
ATOM      1  C   UNL     1      48.512   4.759  16.466  0.00  0.00    +0.000 A 
ATOM      2  C   UNL     1      47.398   4.001  16.124  0.00  0.00    +0.000 A 
ATOM      3  C   UNL     1      46.662   4.346  14.990  0.00  0.00    +0.000 A 
ATOM      4  C   UNL     1      47.030   5.456  14.234  0.00  0.00    +0.000 A 
ATOM      5  N   UNL     1      46.414   5.798  13.045  0.00  0.00    +0.000 N 
ATOM      6  N   UNL     1      48.092   6.212  14.571  0.00  0.00    +0.000 NA
ATOM      7  C   UNL     1      48.806   5.859  15.675  0.00  0.00    +0.000 A 
ATOM      8  H   UNL     1      46.803   6.694  12.753  0.00  0.00    +0.000 HD
ENDROOT
BRANCH   1  10
ATOM      9  N   UNL     1      48.750   4.129  18.801  0.00  0.00    +0.000 N 
ATOM     10  C   UNL     1      49.372   4.442  17.622  0.00  0.00    +0.000 C 
ATOM     11  O   UNL     1      50.591   4.424  17.525  0.00  0.00    +0.000 OA
ATOM     12  H   UNL     1      49.350   3.816  19.555  0.00  0.00    +0.000 HD
ATOM     13  H   UNL     1      47.773   3.885  18.853  0.00  0.00    +0.000 HD
ENDBRANCH   1  10
BRANCH   5  14
ATOM     14  C   UNL     1      44.970   5.707  12.914  0.00  0.00    +0.000 C 
BRANCH  14  15
ATOM     15  C   UNL     1      44.579   4.615  11.950  0.00  0.00    +0.000 A 
ATOM     16  C   UNL     1      43.548   3.744  12.275  0.00  0.00    +0.000 A 
ATOM     17  N   UNL     1      43.174   2.697  11.512  0.00  0.00    +0.000 NA
ATOM     18  C   UNL     1      43.867   2.500  10.362  0.00  0.00    +0.000 A 
ATOM     19  C   UNL     1      44.938   3.282   9.922  0.00  0.00    +0.000 A 
ATOM     20  C   UNL     1      45.287   4.351  10.765  0.00  0.00    +0.000 A 
BRANCH  19  21
ATOM     21  C   UNL     1      45.656   3.004   8.661  0.00  0.00    +0.000 A 
ATOM     22  C   UNL     1      46.135   1.724   8.338  0.00  0.00    +0.000 A 
ATOM     23  C   UNL     1      46.812   1.493   7.140  0.00  0.00    +0.000 A 
ATOM     24  C   UNL     1      47.005   2.557   6.278  0.00  0.00    +0.000 A 
ATOM     25  N   UNL     1      46.570   3.806   6.534  0.00  0.00    +0.000 NA
ATOM     26  C   UNL     1      45.910   3.993   7.706  0.00  0.00    +0.000 A 
ENDBRANCH  19  21
ENDBRANCH  14  15
ENDBRANCH   5  14
TORSDOF 4
ENDMDL
