MODEL 1
REMARK VINA RESULT:    -9.197      0.000      0.000
REMARK INTER + INTRA:         -12.767
REMARK INTER:                 -11.886
REMARK INTRA:                  -0.881
REMARK UNBOUND:                -0.881
REMARK  Name = 
REMARK  5 active torsions:
REMARK  status: ('A' for Active; 'I' for Inactive)
REMARK    1  A    between atoms: C_2  and  C_4
REMARK    2  A    between atoms: C_7  and  N_8
REMARK    3  A    between atoms: N_8  and  C_9
REMARK    4  A    between atoms: C_9  and  C_10
REMARK    5  A    between atoms: C_14  and  C_15
REMARK                            x       y       z     vdW  Elec       q    Type
REMARK                         _______ _______ _______ _____ _____    ______ ____
ROOT
ATOM      1  C   UNL     1      43.925   4.731  11.481  0.00  0.00    +0.000 C 
ENDROOT
BRANCH   1   2
ATOM      2  C   UNL     1      45.235   5.251  12.020  0.00  0.00    +0.000 A 
ATOM      3  C   UNL     1      45.864   6.346  11.417  0.00  0.00    +0.000 A 
ATOM      4  C   UNL     1      47.006   6.897  11.990  0.00  0.00    +0.000 A 
ATOM      5  C   UNL     1      47.530   6.358  13.168  0.00  0.00    +0.000 A 
ATOM      6  C   UNL     1      46.943   5.242  13.791  0.00  0.00    +0.000 A 
ATOM      7  C   UNL     1      45.800   4.690  13.181  0.00  0.00    +0.000 A 
BRANCH   6   8
ATOM      8  C   UNL     1      47.480   4.722  15.067  0.00  0.00    +0.000 A 
ATOM      9  C   UNL     1      48.026   5.548  16.059  0.00  0.00    +0.000 A 
ATOM     10  C   UNL     1      48.560   4.974  17.214  0.00  0.00    +0.000 A 
ATOM     11  C   UNL     1      48.539   3.597  17.349  0.00  0.00    +0.000 A 
ATOM     12  F   UNL     1      49.053   3.015  18.438  0.00  0.00    +0.000 F 
ATOM     13  C   UNL     1      47.976   2.841  16.341  0.00  0.00    +0.000 A 
ATOM     14  N   UNL     1      47.446   3.371  15.212  0.00  0.00    +0.000 NA
ENDBRANCH   6   8
ENDBRANCH   1   2
BRANCH   1  15
ATOM     15  N   UNL     1      43.869   4.821  10.033  0.00  0.00    +0.000 N 
ATOM     16  H   UNL     1      42.935   4.972   9.657  0.00  0.00    +0.000 HD
BRANCH  15  20
ATOM     17  C   UNL     1      46.366   2.230   7.805  0.00  0.00    +0.000 A 
ATOM     18  C   UNL     1      45.470   1.696   8.730  0.00  0.00    +0.000 A 
ATOM     19  C   UNL     1      44.626   2.541   9.458  0.00  0.00    +0.000 A 
ATOM     20  C   UNL     1      44.630   3.931   9.265  0.00  0.00    +0.000 A 
ATOM     21  C   UNL     1      45.552   4.452   8.346  0.00  0.00    +0.000 A 
ATOM     22  C   UNL     1      46.416   3.615   7.625  0.00  0.00    +0.000 A 
BRANCH  17  24
ATOM     23  N   UNL     1      48.450   1.953   6.574  0.00  0.00    +0.000 N 
ATOM     24  C   UNL     1      47.304   1.368   7.041  0.00  0.00    +0.000 C 
ATOM     25  O   UNL     1      47.085   0.178   6.859  0.00  0.00    +0.000 OA
ATOM     26  H   UNL     1      49.124   1.335   6.140  0.00  0.00    +0.000 HD
ATOM     27  H   UNL     1      48.780   2.846   6.909  0.00  0.00    +0.000 HD
ENDBRANCH  17  24
ENDBRANCH  15  20
ENDBRANCH   1  15
TORSDOF 5
ENDMDL
MODEL 2
REMARK VINA RESULT:    -8.693      2.996      4.269
REMARK INTER + INTRA:         -12.115
REMARK INTER:                 -11.099
REMARK INTRA:                  -1.016
REMARK UNBOUND:                -0.881
REMARK  Name = 
REMARK  5 active torsions:
REMARK  status: ('A' for Active; 'I' for Inactive)
REMARK    1  A    between atoms: C_2  and  C_4
REMARK    2  A    between atoms: C_7  and  N_8
REMARK    3  A    between atoms: N_8  and  C_9
REMARK    4  A    between atoms: C_9  and  C_10
REMARK    5  A    between atoms: C_14  and  C_15
REMARK                            x       y       z     vdW  Elec       q    Type
REMARK                         _______ _______ _______ _____ _____    ______ ____
ROOT
ATOM      1  C   UNL     1      43.501   4.665  11.256  0.00  0.00    +0.000 C 
ENDROOT
BRANCH   1   2
ATOM      2  C   UNL     1      44.763   4.992  12.014  0.00  0.00    +0.000 A 
ATOM      3  C   UNL     1      45.371   4.028  12.826  0.00  0.00    +0.000 A 
ATOM      4  C   UNL     1      46.599   4.294  13.425  0.00  0.00    +0.000 A 
ATOM      5  C   UNL     1      47.227   5.524  13.219  0.00  0.00    +0.000 A 
ATOM      6  C   UNL     1      46.638   6.530  12.432  0.00  0.00    +0.000 A 
ATOM      7  C   UNL     1      45.386   6.244  11.853  0.00  0.00    +0.000 A 
BRANCH   6   8
ATOM      8  C   UNL     1      47.346   7.804  12.181  0.00  0.00    +0.000 A 
ATOM      9  C   UNL     1      46.712   9.053  12.226  0.00  0.00    +0.000 A 
ATOM     10  C   UNL     1      47.440  10.204  11.924  0.00  0.00    +0.000 A 
ATOM     11  C   UNL     1      48.776  10.083  11.585  0.00  0.00    +0.000 A 
ATOM     12  F   UNL     1      49.499  11.166  11.279  0.00  0.00    +0.000 F 
ATOM     13  C   UNL     1      49.344   8.825  11.570  0.00  0.00    +0.000 A 
ATOM     14  N   UNL     1      48.663   7.690  11.863  0.00  0.00    +0.000 NA
ENDBRANCH   6   8
ENDBRANCH   1   2
BRANCH   1  15
ATOM     15  N   UNL     1      43.684   4.811   9.823  0.00  0.00    +0.000 N 
ATOM     16  H   UNL     1      42.817   4.885   9.293  0.00  0.00    +0.000 HD
BRANCH  15  20
ATOM     17  C   UNL     1      46.434   2.343   7.759  0.00  0.00    +0.000 A 
ATOM     18  C   UNL     1      46.455   3.722   7.551  0.00  0.00    +0.000 A 
ATOM     19  C   UNL     1      45.564   4.549   8.242  0.00  0.00    +0.000 A 
ATOM     20  C   UNL     1      44.653   4.034   9.176  0.00  0.00    +0.000 A 
ATOM     21  C   UNL     1      44.631   2.643   9.356  0.00  0.00    +0.000 A 
ATOM     22  C   UNL     1      45.507   1.803   8.655  0.00  0.00    +0.000 A 
BRANCH  17  24
ATOM     23  N   UNL     1      48.474   1.973   6.481  0.00  0.00    +0.000 N 
ATOM     24  C   UNL     1      47.338   1.429   7.016  0.00  0.00    +0.000 C 
ATOM     25  O   UNL     1      47.101   0.233   6.908  0.00  0.00    +0.000 OA
ATOM     26  H   UNL     1      49.128   1.324   6.061  0.00  0.00    +0.000 HD
ATOM     27  H   UNL     1      48.823   2.880   6.754  0.00  0.00    +0.000 HD
ENDBRANCH  17  24
ENDBRANCH  15  20
ENDBRANCH   1  15
TORSDOF 5
ENDMDL
MODEL 3
REMARK VINA RESULT:    -8.400      3.038      4.195
REMARK INTER + INTRA:         -11.736
REMARK INTER:                 -10.802
REMARK INTRA:                  -0.933
REMARK UNBOUND:                -0.881
REMARK  Name = 
REMARK  5 active torsions:
REMARK  status: ('A' for Active; 'I' for Inactive)
REMARK    1  A    between atoms: C_2  and  C_4
REMARK    2  A    between atoms: C_7  and  N_8
REMARK    3  A    between atoms: N_8  and  C_9
REMARK    4  A    between atoms: C_9  and  C_10
REMARK    5  A    between atoms: C_14  and  C_15
REMARK                            x       y       z     vdW  Elec       q    Type
REMARK                         _______ _______ _______ _____ _____    ______ ____
ROOT
ATOM      1  C   UNL     1      43.855   5.254  10.953  0.00  0.00    +0.000 C 
ENDROOT
BRANCH   1   2
ATOM      2  C   UNL     1      45.045   5.451  11.859  0.00  0.00    +0.000 A 
ATOM      3  C   UNL     1      45.288   4.561  12.911  0.00  0.00    +0.000 A 
ATOM      4  C   UNL     1      46.451   4.675  13.668  0.00  0.00    +0.000 A 
ATOM      5  C   UNL     1      47.378   5.680  13.380  0.00  0.00    +0.000 A 
ATOM      6  C   UNL     1      47.159   6.611  12.349  0.00  0.00    +0.000 A 
ATOM      7  C   UNL     1      45.966   6.486  11.611  0.00  0.00    +0.000 A 
BRANCH   6   8
ATOM      8  C   UNL     1      48.180   7.631  12.024  0.00  0.00    +0.000 A 
ATOM      9  C   UNL     1      49.541   7.332  11.882  0.00  0.00    +0.000 A 
ATOM     10  C   UNL     1      50.448   8.362  11.628  0.00  0.00    +0.000 A 
ATOM     11  C   UNL     1      49.977   9.659  11.525  0.00  0.00    +0.000 A 
ATOM     12  F   UNL     1      50.822  10.670  11.293  0.00  0.00    +0.000 F 
ATOM     13  C   UNL     1      48.622   9.885  11.663  0.00  0.00    +0.000 A 
ATOM     14  N   UNL     1      47.719   8.905  11.905  0.00  0.00    +0.000 NA
ENDBRANCH   6   8
ENDBRANCH   1   2
BRANCH   1  15
ATOM     15  N   UNL     1      43.753   3.879  10.496  0.00  0.00    +0.000 N 
ATOM     16  H   UNL     1      43.639   3.195  11.243  0.00  0.00    +0.000 HD
BRANCH  15  20
ATOM     17  C   UNL     1      46.488   2.675   7.500  0.00  0.00    +0.000 A 
ATOM     18  C   UNL     1      45.951   1.722   8.365  0.00  0.00    +0.000 A 
ATOM     19  C   UNL     1      45.031   2.106   9.346  0.00  0.00    +0.000 A 
ATOM     20  C   UNL     1      44.600   3.435   9.474  0.00  0.00    +0.000 A 
ATOM     21  C   UNL     1      45.168   4.383   8.610  0.00  0.00    +0.000 A 
ATOM     22  C   UNL     1      46.105   4.012   7.635  0.00  0.00    +0.000 A 
BRANCH  17  24
ATOM     23  N   UNL     1      47.469   3.015   5.296  0.00  0.00    +0.000 N 
ATOM     24  C   UNL     1      47.496   2.313   6.471  0.00  0.00    +0.000 C 
ATOM     25  O   UNL     1      48.337   1.446   6.667  0.00  0.00    +0.000 OA
ATOM     26  H   UNL     1      48.219   2.825   4.643  0.00  0.00    +0.000 HD
ATOM     27  H   UNL     1      46.966   3.884   5.194  0.00  0.00    +0.000 HD
ENDBRANCH  17  24
ENDBRANCH  15  20
ENDBRANCH   1  15
TORSDOF 5
ENDMDL
MODEL 4
REMARK VINA RESULT:    -7.957      4.485      7.529
REMARK INTER + INTRA:         -11.164
REMARK INTER:                 -10.241
REMARK INTRA:                  -0.923
REMARK UNBOUND:                -0.881
REMARK  Name = 
REMARK  5 active torsions:
REMARK  status: ('A' for Active; 'I' for Inactive)
REMARK    1  A    between atoms: C_2  and  C_4
REMARK    2  A    between atoms: C_7  and  N_8
REMARK    3  A    between atoms: N_8  and  C_9
REMARK    4  A    between atoms: C_9  and  C_10
REMARK    5  A    between atoms: C_14  and  C_15
REMARK                            x       y       z     vdW  Elec       q    Type
REMARK                         _______ _______ _______ _____ _____    ______ ____
ROOT
ATOM      1  C   UNL     1      43.800   6.633  11.437  0.00  0.00    +0.000 C 
ENDROOT
BRANCH   1   2
ATOM      2  C   UNL     1      43.974   5.166  11.132  0.00  0.00    +0.000 A 
ATOM      3  C   UNL     1      43.242   4.205  11.839  0.00  0.00    +0.000 A 
ATOM      4  C   UNL     1      43.314   2.864  11.472  0.00  0.00    +0.000 A 
ATOM      5  C   UNL     1      44.118   2.473  10.398  0.00  0.00    +0.000 A 
ATOM      6  C   UNL     1      44.889   3.404   9.678  0.00  0.00    +0.000 A 
ATOM      7  C   UNL     1      44.815   4.751  10.082  0.00  0.00    +0.000 A 
BRANCH   6   8
ATOM      8  C   UNL     1      45.689   2.977   8.510  0.00  0.00    +0.000 A 
ATOM      9  C   UNL     1      46.135   1.661   8.328  0.00  0.00    +0.000 A 
ATOM     10  C   UNL     1      46.931   1.352   7.225  0.00  0.00    +0.000 A 
ATOM     11  C   UNL     1      47.263   2.358   6.335  0.00  0.00    +0.000 A 
ATOM     12  F   UNL     1      48.034   2.096   5.273  0.00  0.00    +0.000 F 
ATOM     13  C   UNL     1      46.782   3.631   6.565  0.00  0.00    +0.000 A 
ATOM     14  N   UNL     1      46.004   3.960   7.624  0.00  0.00    +0.000 NA
ENDBRANCH   6   8
ENDBRANCH   1   2
BRANCH   1  15
ATOM     15  N   UNL     1      44.501   7.014  12.650  0.00  0.00    +0.000 N 
ATOM     16  H   UNL     1      43.953   7.588  13.289  0.00  0.00    +0.000 HD
BRANCH  15  20
ATOM     17  C   UNL     1      48.572   8.081  12.208  0.00  0.00    +0.000 A 
ATOM     18  C   UNL     1      47.586   9.061  12.089  0.00  0.00    +0.000 A 
ATOM     19  C   UNL     1      46.239   8.723  12.252  0.00  0.00    +0.000 A 
ATOM     20  C   UNL     1      45.839   7.415  12.567  0.00  0.00    +0.000 A 
ATOM     21  C   UNL     1      46.842   6.440  12.661  0.00  0.00    +0.000 A 
ATOM     22  C   UNL     1      48.195   6.764  12.481  0.00  0.00    +0.000 A 
BRANCH  17  24
ATOM     23  N   UNL     1      50.799   7.398  11.494  0.00  0.00    +0.000 N 
ATOM     24  C   UNL     1      50.009   8.394  12.004  0.00  0.00    +0.000 C 
ATOM     25  O   UNL     1      50.471   9.500  12.249  0.00  0.00    +0.000 OA
ATOM     26  H   UNL     1      51.753   7.653  11.270  0.00  0.00    +0.000 HD
ATOM     27  H   UNL     1      50.417   6.573  11.055  0.00  0.00    +0.000 HD
ENDBRANCH  17  24
ENDBRANCH  15  20
ENDBRANCH   1  15
TORSDOF 5
ENDMDL
MODEL 5
REMARK VINA RESULT:    -7.950      2.710      3.358
REMARK INTER + INTRA:         -11.154
REMARK INTER:                 -10.322
REMARK INTRA:                  -0.833
REMARK UNBOUND:                -0.881
REMARK  Name = 
REMARK  5 active torsions:
REMARK  status: ('A' for Active; 'I' for Inactive)
REMARK    1  A    between atoms: C_2  and  C_4
REMARK    2  A    between atoms: C_7  and  N_8
REMARK    3  A    between atoms: N_8  and  C_9
REMARK    4  A    between atoms: C_9  and  C_10
REMARK    5  A    between atoms: C_14  and  C_15
REMARK                            x       y       z     vdW  Elec       q    Type
REMARK                         _______ _______ _______ _____ _____    ______ ____
ROOT
ATOM      1  C   UNL     1      44.122   3.714  11.745  0.00  0.00    +0.000 C 
ENDROOT
BRANCH   1   2
ATOM      2  C   UNL     1      44.568   5.154  11.695  0.00  0.00    +0.000 A 
ATOM      3  C   UNL     1      43.648   6.171  11.416  0.00  0.00    +0.000 A 
ATOM      4  C   UNL     1      44.038   7.505  11.491  0.00  0.00    +0.000 A 
ATOM      5  C   UNL     1      45.349   7.833  11.844  0.00  0.00    +0.000 A 
ATOM      6  C   UNL     1      46.311   6.841  12.107  0.00  0.00    +0.000 A 
ATOM      7  C   UNL     1      45.897   5.499  12.004  0.00  0.00    +0.000 A 
BRANCH   6   8
ATOM      8  C   UNL     1      47.678   7.211  12.533  0.00  0.00    +0.000 A 
ATOM      9  C   UNL     1      48.692   7.560  11.632  0.00  0.00    +0.000 A 
ATOM     10  C   UNL     1      49.971   7.844  12.112  0.00  0.00    +0.000 A 
ATOM     11  C   UNL     1      50.207   7.772  13.474  0.00  0.00    +0.000 A 
ATOM     12  F   UNL     1      51.424   8.028  13.966  0.00  0.00    +0.000 F 
ATOM     13  C   UNL     1      49.162   7.434  14.310  0.00  0.00    +0.000 A 
ATOM     14  N   UNL     1      47.909   7.158  13.872  0.00  0.00    +0.000 NA
ENDBRANCH   6   8
ENDBRANCH   1   2
BRANCH   1  15
ATOM     15  N   UNL     1      43.743   3.225  10.431  0.00  0.00    +0.000 N 
ATOM     16  H   UNL     1      43.072   2.459  10.445  0.00  0.00    +0.000 HD
BRANCH  15  20
ATOM     17  C   UNL     1      46.579   2.603   7.353  0.00  0.00    +0.000 A 
ATOM     18  C   UNL     1      46.076   3.884   7.577  0.00  0.00    +0.000 A 
ATOM     19  C   UNL     1      45.153   4.105   8.604  0.00  0.00    +0.000 A 
ATOM     20  C   UNL     1      44.730   3.069   9.451  0.00  0.00    +0.000 A 
ATOM     21  C   UNL     1      45.230   1.784   9.197  0.00  0.00    +0.000 A 
ATOM     22  C   UNL     1      46.141   1.548   8.158  0.00  0.00    +0.000 A 
BRANCH  17  24
ATOM     23  N   UNL     1      47.435   3.102   5.127  0.00  0.00    +0.000 N 
ATOM     24  C   UNL     1      47.531   2.322   6.248  0.00  0.00    +0.000 C 
ATOM     25  O   UNL     1      48.388   1.453   6.339  0.00  0.00    +0.000 OA
ATOM     26  H   UNL     1      48.150   2.965   4.423  0.00  0.00    +0.000 HD
ATOM     27  H   UNL     1      46.922   3.971   5.112  0.00  0.00    +0.000 HD
ENDBRANCH  17  24
ENDBRANCH  15  20
ENDBRANCH   1  15
TORSDOF 5
ENDMDL
MODEL 6
REMARK VINA RESULT:    -7.488      4.528      7.629
REMARK INTER + INTRA:         -10.558
REMARK INTER:                  -9.950
REMARK INTRA:                  -0.608
REMARK UNBOUND:                -0.881
REMARK  Name = 
REMARK  5 active torsions:
REMARK  status: ('A' for Active; 'I' for Inactive)
REMARK    1  A    between atoms: C_2  and  C_4
REMARK    2  A    between atoms: C_7  and  N_8
REMARK    3  A    between atoms: N_8  and  C_9
REMARK    4  A    between atoms: C_9  and  C_10
REMARK    5  A    between atoms: C_14  and  C_15
REMARK                            x       y       z     vdW  Elec       q    Type
REMARK                         _______ _______ _______ _____ _____    ______ ____
ROOT
ATOM      1  C   UNL     1      43.431   6.348  11.490  0.00  0.00    +0.000 C 
ENDROOT
BRANCH   1   2
ATOM      2  C   UNL     1      43.741   4.904  11.183  0.00  0.00    +0.000 A 
ATOM      3  C   UNL     1      43.093   3.878  11.880  0.00  0.00    +0.000 A 
ATOM      4  C   UNL     1      43.290   2.551  11.510  0.00  0.00    +0.000 A 
ATOM      5  C   UNL     1      44.136   2.239  10.443  0.00  0.00    +0.000 A 
ATOM      6  C   UNL     1      44.827   3.238   9.734  0.00  0.00    +0.000 A 
ATOM      7  C   UNL     1      44.626   4.572  10.141  0.00  0.00    +0.000 A 
BRANCH   6   8
ATOM      8  C   UNL     1      45.674   2.891   8.572  0.00  0.00    +0.000 A 
ATOM      9  C   UNL     1      45.975   3.797   7.547  0.00  0.00    +0.000 A 
ATOM     10  C   UNL     1      46.737   3.375   6.458  0.00  0.00    +0.000 A 
ATOM     11  C   UNL     1      47.178   2.064   6.417  0.00  0.00    +0.000 A 
ATOM     12  F   UNL     1      47.902   1.624   5.381  0.00  0.00    +0.000 F 
ATOM     13  C   UNL     1      46.857   1.224   7.464  0.00  0.00    +0.000 A 
ATOM     14  N   UNL     1      46.123   1.608   8.537  0.00  0.00    +0.000 NA
ENDBRANCH   6   8
ENDBRANCH   1   2
BRANCH   1  15
ATOM     15  N   UNL     1      44.443   7.239  10.952  0.00  0.00    +0.000 N 
ATOM     16  H   UNL     1      44.614   7.128   9.954  0.00  0.00    +0.000 HD
BRANCH  15  20
ATOM     17  C   UNL     1      47.868   7.843  13.363  0.00  0.00    +0.000 A 
ATOM     18  C   UNL     1      47.904   6.894  12.342  0.00  0.00    +0.000 A 
ATOM     19  C   UNL     1      46.784   6.699  11.526  0.00  0.00    +0.000 A 
ATOM     20  C   UNL     1      45.616   7.461  11.684  0.00  0.00    +0.000 A 
ATOM     21  C   UNL     1      45.591   8.395  12.729  0.00  0.00    +0.000 A 
ATOM     22  C   UNL     1      46.701   8.584  13.565  0.00  0.00    +0.000 A 
BRANCH  17  24
ATOM     23  N   UNL     1      50.207   7.460  13.925  0.00  0.00    +0.000 N 
ATOM     24  C   UNL     1      49.023   8.051  14.273  0.00  0.00    +0.000 C 
ATOM     25  O   UNL     1      48.937   8.746  15.277  0.00  0.00    +0.000 OA
ATOM     26  H   UNL     1      51.009   7.687  14.501  0.00  0.00    +0.000 HD
ATOM     27  H   UNL     1      50.382   7.096  13.000  0.00  0.00    +0.000 HD
ENDBRANCH  17  24
ENDBRANCH  15  20
ENDBRANCH   1  15
TORSDOF 5
ENDMDL
MODEL 7
REMARK VINA RESULT:    -7.415      3.908      7.948
REMARK INTER + INTRA:         -10.463
REMARK INTER:                  -9.749
REMARK INTRA:                  -0.714
REMARK UNBOUND:                -0.881
REMARK  Name = 
REMARK  5 active torsions:
REMARK  status: ('A' for Active; 'I' for Inactive)
REMARK    1  A    between atoms: C_2  and  C_4
REMARK    2  A    between atoms: C_7  and  N_8
REMARK    3  A    between atoms: N_8  and  C_9
REMARK    4  A    between atoms: C_9  and  C_10
REMARK    5  A    between atoms: C_14  and  C_15
REMARK                            x       y       z     vdW  Elec       q    Type
REMARK                         _______ _______ _______ _____ _____    ______ ____
ROOT
ATOM      1  C   UNL     1      45.915   7.215  12.535  0.00  0.00    +0.000 C 
ENDROOT
BRANCH   1   2
ATOM      2  C   UNL     1      45.085   6.171  11.831  0.00  0.00    +0.000 A 
ATOM      3  C   UNL     1      43.706   6.091  12.061  0.00  0.00    +0.000 A 
ATOM      4  C   UNL     1      42.925   5.209  11.319  0.00  0.00    +0.000 A 
ATOM      5  C   UNL     1      43.515   4.400  10.345  0.00  0.00    +0.000 A 
ATOM      6  C   UNL     1      44.901   4.431  10.101  0.00  0.00    +0.000 A 
ATOM      7  C   UNL     1      45.671   5.317  10.879  0.00  0.00    +0.000 A 
BRANCH   6   8
ATOM      8  C   UNL     1      45.496   3.608   9.027  0.00  0.00    +0.000 A 
ATOM      9  C   UNL     1      45.553   2.209   9.078  0.00  0.00    +0.000 A 
ATOM     10  C   UNL     1      46.180   1.508   8.047  0.00  0.00    +0.000 A 
ATOM     11  C   UNL     1      46.734   2.216   6.995  0.00  0.00    +0.000 A 
ATOM     12  F   UNL     1      47.351   1.575   5.997  0.00  0.00    +0.000 F 
ATOM     13  C   UNL     1      46.633   3.593   6.998  0.00  0.00    +0.000 A 
ATOM     14  N   UNL     1      46.026   4.299   7.983  0.00  0.00    +0.000 NA
ENDBRANCH   6   8
ENDBRANCH   1   2
BRANCH   1  15
ATOM     15  N   UNL     1      47.245   6.721  12.845  0.00  0.00    +0.000 N 
ATOM     16  H   UNL     1      47.703   6.234  12.077  0.00  0.00    +0.000 HD
BRANCH  15  20
ATOM     17  C   UNL     1      48.036   4.710  16.484  0.00  0.00    +0.000 A 
ATOM     18  C   UNL     1      48.648   5.936  16.228  0.00  0.00    +0.000 A 
ATOM     19  C   UNL     1      48.380   6.619  15.037  0.00  0.00    +0.000 A 
ATOM     20  C   UNL     1      47.476   6.118  14.088  0.00  0.00    +0.000 A 
ATOM     21  C   UNL     1      46.886   4.874  14.353  0.00  0.00    +0.000 A 
ATOM     22  C   UNL     1      47.163   4.172  15.534  0.00  0.00    +0.000 A 
BRANCH  17  24
ATOM     23  N   UNL     1      47.429   2.965  18.072  0.00  0.00    +0.000 N 
ATOM     24  C   UNL     1      48.325   3.938  17.719  0.00  0.00    +0.000 C 
ATOM     25  O   UNL     1      49.335   4.134  18.382  0.00  0.00    +0.000 OA
ATOM     26  H   UNL     1      47.686   2.383  18.860  0.00  0.00    +0.000 HD
ATOM     27  H   UNL     1      46.732   2.611  17.434  0.00  0.00    +0.000 HD
ENDBRANCH  17  24
ENDBRANCH  15  20
ENDBRANCH   1  15
TORSDOF 5
ENDMDL
MODEL 8
REMARK VINA RESULT:    -6.897      4.193      7.687
REMARK INTER + INTRA:          -9.794
REMARK INTER:                  -8.947
REMARK INTRA:                  -0.847
REMARK UNBOUND:                -0.881
REMARK  Name = 
REMARK  5 active torsions:
REMARK  status: ('A' for Active; 'I' for Inactive)
REMARK    1  A    between atoms: C_2  and  C_4
REMARK    2  A    between atoms: C_7  and  N_8
REMARK    3  A    between atoms: N_8  and  C_9
REMARK    4  A    between atoms: C_9  and  C_10
REMARK    5  A    between atoms: C_14  and  C_15
REMARK                            x       y       z     vdW  Elec       q    Type
REMARK                         _______ _______ _______ _____ _____    ______ ____
ROOT
ATOM      1  C   UNL     1      45.658   4.729  13.746  0.00  0.00    +0.000 C 
ENDROOT
BRANCH   1   2
ATOM      2  C   UNL     1      44.910   4.586  12.444  0.00  0.00    +0.000 A 
ATOM      3  C   UNL     1      43.652   5.178  12.282  0.00  0.00    +0.000 A 
ATOM      4  C   UNL     1      43.020   5.146  11.042  0.00  0.00    +0.000 A 
ATOM      5  C   UNL     1      43.639   4.523   9.956  0.00  0.00    +0.000 A 
ATOM      6  C   UNL     1      44.891   3.893  10.083  0.00  0.00    +0.000 A 
ATOM      7  C   UNL     1      45.500   3.921  11.353  0.00  0.00    +0.000 A 
BRANCH   6   8
ATOM      8  C   UNL     1      45.554   3.288   8.907  0.00  0.00    +0.000 A 
ATOM      9  C   UNL     1      45.737   1.907   8.760  0.00  0.00    +0.000 A 
ATOM     10  C   UNL     1      46.420   1.419   7.645  0.00  0.00    +0.000 A 
ATOM     11  C   UNL     1      46.903   2.317   6.710  0.00  0.00    +0.000 A 
ATOM     12  F   UNL     1      47.572   1.884   5.636  0.00  0.00    +0.000 F 
ATOM     13  C   UNL     1      46.679   3.665   6.908  0.00  0.00    +0.000 A 
ATOM     14  N   UNL     1      46.015   4.166   7.978  0.00  0.00    +0.000 NA
ENDBRANCH   6   8
ENDBRANCH   1   2
BRANCH   1  15
ATOM     15  N   UNL     1      47.033   5.144  13.530  0.00  0.00    +0.000 N 
ATOM     16  H   UNL     1      47.698   4.761  14.199  0.00  0.00    +0.000 HD
BRANCH  15  20
ATOM     17  C   UNL     1      47.873   9.107  12.304  0.00  0.00    +0.000 A 
ATOM     18  C   UNL     1      46.620   8.801  12.835  0.00  0.00    +0.000 A 
ATOM     19  C   UNL     1      46.338   7.499  13.261  0.00  0.00    +0.000 A 
ATOM     20  C   UNL     1      47.299   6.478  13.199  0.00  0.00    +0.000 A 
ATOM     21  C   UNL     1      48.546   6.799  12.643  0.00  0.00    +0.000 A 
ATOM     22  C   UNL     1      48.833   8.097  12.195  0.00  0.00    +0.000 A 
BRANCH  17  24
ATOM     23  N   UNL     1      47.518  11.516  12.366  0.00  0.00    +0.000 N 
ATOM     24  C   UNL     1      48.197  10.468  11.806  0.00  0.00    +0.000 C 
ATOM     25  O   UNL     1      49.055  10.656  10.953  0.00  0.00    +0.000 OA
ATOM     26  H   UNL     1      47.815  12.443  12.088  0.00  0.00    +0.000 HD
ATOM     27  H   UNL     1      46.997  11.428  13.226  0.00  0.00    +0.000 HD
ENDBRANCH  17  24
ENDBRANCH  15  20
ENDBRANCH   1  15
TORSDOF 5
ENDMDL
MODEL 9
REMARK VINA RESULT:    -6.499      4.243      7.931
REMARK INTER + INTRA:          -9.279
REMARK INTER:                  -8.408
REMARK INTRA:                  -0.872
REMARK UNBOUND:                -0.881
REMARK  Name = 
REMARK  5 active torsions:
REMARK  status: ('A' for Active; 'I' for Inactive)
REMARK    1  A    between atoms: C_2  and  C_4
REMARK    2  A    between atoms: C_7  and  N_8
REMARK    3  A    between atoms: N_8  and  C_9
REMARK    4  A    between atoms: C_9  and  C_10
REMARK    5  A    between atoms: C_14  and  C_15
REMARK                            x       y       z     vdW  Elec       q    Type
REMARK                         _______ _______ _______ _____ _____    ______ ____
ROOT
ATOM      1  C   UNL     1      49.005   7.014  16.403  0.00  0.00    +0.000 C 
ENDROOT
BRANCH   1   2
ATOM      2  C   UNL     1      48.775   7.082  14.914  0.00  0.00    +0.000 A 
ATOM      3  C   UNL     1      49.679   7.761  14.089  0.00  0.00    +0.000 A 
ATOM      4  C   UNL     1      49.530   7.718  12.705  0.00  0.00    +0.000 A 
ATOM      5  C   UNL     1      48.476   6.999  12.137  0.00  0.00    +0.000 A 
ATOM      6  C   UNL     1      47.530   6.325  12.931  0.00  0.00    +0.000 A 
ATOM      7  C   UNL     1      47.692   6.400  14.328  0.00  0.00    +0.000 A 
BRANCH   6   8
ATOM      8  C   UNL     1      46.455   5.523  12.308  0.00  0.00    +0.000 A 
ATOM      9  C   UNL     1      45.783   5.920  11.144  0.00  0.00    +0.000 A 
ATOM     10  C   UNL     1      44.743   5.132  10.648  0.00  0.00    +0.000 A 
ATOM     11  C   UNL     1      44.399   3.974  11.324  0.00  0.00    +0.000 A 
ATOM     12  F   UNL     1      43.400   3.203  10.881  0.00  0.00    +0.000 F 
ATOM     13  C   UNL     1      45.109   3.633  12.458  0.00  0.00    +0.000 A 
ATOM     14  N   UNL     1      46.126   4.376  12.959  0.00  0.00    +0.000 NA
ENDBRANCH   6   8
ENDBRANCH   1   2
BRANCH   1  15
ATOM     15  N   UNL     1      48.514   5.768  16.964  0.00  0.00    +0.000 N 
ATOM     16  H   UNL     1      47.922   5.880  17.785  0.00  0.00    +0.000 HD
BRANCH  15  20
ATOM     17  C   UNL     1      51.190   2.532  17.492  0.00  0.00    +0.000 A 
ATOM     18  C   UNL     1      49.847   2.277  17.215  0.00  0.00    +0.000 A 
ATOM     19  C   UNL     1      48.958   3.338  17.020  0.00  0.00    +0.000 A 
ATOM     20  C   UNL     1      49.383   4.675  17.064  0.00  0.00    +0.000 A 
ATOM     21  C   UNL     1      50.732   4.912  17.364  0.00  0.00    +0.000 A 
ATOM     22  C   UNL     1      51.628   3.856  17.581  0.00  0.00    +0.000 A 
BRANCH  17  24
ATOM     23  N   UNL     1      51.642   0.226  18.133  0.00  0.00    +0.000 N 
ATOM     24  C   UNL     1      52.157   1.433  17.743  0.00  0.00    +0.000 C 
ATOM     25  O   UNL     1      53.361   1.581  17.580  0.00  0.00    +0.000 OA
ATOM     26  H   UNL     1      52.301  -0.539  18.208  0.00  0.00    +0.000 HD
ATOM     27  H   UNL     1      50.664  -0.004  18.039  0.00  0.00    +0.000 HD
ENDBRANCH  17  24
ENDBRANCH  15  20
ENDBRANCH   1  15
TORSDOF 5
ENDMDL
