MODEL 1
REMARK VINA RESULT:    -9.528      0.000      0.000
REMARK INTER + INTRA:         -13.664
REMARK INTER:                 -12.870
REMARK INTRA:                  -0.794
REMARK UNBOUND:                -0.794
REMARK  Name = 
REMARK  6 active torsions:
REMARK  status: ('A' for Active; 'I' for Inactive)
REMARK    1  A    between atoms: C_2  and  C_4
REMARK    2  A    between atoms: N_8  and  C_9
REMARK    3  A    between atoms: C_9  and  C_10
REMARK    4  A    between atoms: C_10  and  C_13
REMARK    5  A    between atoms: C_17  and  N_18
REMARK    6  A    between atoms: N_18  and  C_19
REMARK                            x       y       z     vdW  Elec       q    Type
REMARK                         _______ _______ _______ _____ _____    ______ ____
ROOT
ATOM      1  C   UNL     1      43.494   5.552  12.131  0.00  0.00    +0.000 C 
ATOM      2  F   UNL     1      43.142   6.736  11.541  0.00  0.00    +0.000 F 
ATOM      3  F   UNL     1      42.632   5.408  13.181  0.00  0.00    +0.000 F 
ENDROOT
BRANCH   1   4
ATOM      4  C   UNL     1      44.941   5.581  12.590  0.00  0.00    +0.000 A 
ATOM      5  C   UNL     1      45.809   6.559  12.090  0.00  0.00    +0.000 A 
ATOM      6  C   UNL     1      47.117   6.640  12.576  0.00  0.00    +0.000 A 
ATOM      7  C   UNL     1      47.552   5.760  13.566  0.00  0.00    +0.000 A 
ATOM      8  C   UNL     1      46.721   4.756  14.070  0.00  0.00    +0.000 A 
ATOM      9  C   UNL     1      45.414   4.667  13.557  0.00  0.00    +0.000 A 
BRANCH   8  10
ATOM     10  N   UNL     1      47.108   3.859  15.100  0.00  0.00    +0.000 N 
ATOM     11  H   UNL     1      46.767   2.915  14.902  0.00  0.00    +0.000 HD
BRANCH  10  12
ATOM     12  C   UNL     1      47.180   4.171  16.507  0.00  0.00    +0.000 C 
ATOM     13  C   UNL     1      48.563   4.639  16.993  0.00  0.00    +0.000 C 
ATOM     14  O   UNL     1      48.606   3.597  18.002  0.00  0.00    +0.000 OA
ATOM     15  C   UNL     1      47.393   3.006  17.475  0.00  0.00    +0.000 C 
ENDBRANCH  10  12
ENDBRANCH   8  10
ENDBRANCH   1   4
BRANCH   1  16
ATOM     16  C   UNL     1      43.235   4.413  11.118  0.00  0.00    +0.000 C 
BRANCH  16  21
ATOM     17  C   UNL     1      46.471   2.469   7.684  0.00  0.00    +0.000 A 
ATOM     18  C   UNL     1      45.675   1.828   8.623  0.00  0.00    +0.000 A 
ATOM     19  C   UNL     1      44.766   2.581   9.361  0.00  0.00    +0.000 A 
ATOM     20  C   UNL     1      44.661   3.954   9.147  0.00  0.00    +0.000 A 
ATOM     21  N   UNL     1      43.700   4.725   9.762  0.00  0.00    +0.000 N 
ATOM     22  N   UNL     1      45.450   4.589   8.261  0.00  0.00    +0.000 NA
ATOM     23  C   UNL     1      46.345   3.845   7.557  0.00  0.00    +0.000 A 
ATOM     24  H   UNL     1      43.766   5.708   9.496  0.00  0.00    +0.000 HD
BRANCH  17  26
ATOM     25  N   UNL     1      48.524   2.421   6.398  0.00  0.00    +0.000 N 
ATOM     26  C   UNL     1      47.434   1.738   6.842  0.00  0.00    +0.000 C 
ATOM     27  O   UNL     1      47.268   0.549   6.576  0.00  0.00    +0.000 OA
ATOM     28  H   UNL     1      49.231   1.878   5.915  0.00  0.00    +0.000 HD
ATOM     29  H   UNL     1      48.813   3.302   6.810  0.00  0.00    +0.000 HD
ENDBRANCH  17  26
ENDBRANCH  16  21
ENDBRANCH   1  16
TORSDOF 6
ENDMDL
MODEL 2
REMARK VINA RESULT:    -8.627      2.619      3.695
REMARK INTER + INTRA:         -12.448
REMARK INTER:                 -11.637
REMARK INTRA:                  -0.811
REMARK UNBOUND:                -0.794
REMARK  Name = 
REMARK  6 active torsions:
REMARK  status: ('A' for Active; 'I' for Inactive)
REMARK    1  A    between atoms: C_2  and  C_4
REMARK    2  A    between atoms: N_8  and  C_9
REMARK    3  A    between atoms: C_9  and  C_10
REMARK    4  A    between atoms: C_10  and  C_13
REMARK    5  A    between atoms: C_17  and  N_18
REMARK    6  A    between atoms: N_18  and  C_19
REMARK                            x       y       z     vdW  Elec       q    Type
REMARK                         _______ _______ _______ _____ _____    ______ ____
ROOT
ATOM      1  C   UNL     1      43.340   5.519  12.179  0.00  0.00    +0.000 C 
ATOM      2  F   UNL     1      42.820   6.649  11.605  0.00  0.00    +0.000 F 
ATOM      3  F   UNL     1      42.524   5.253  13.243  0.00  0.00    +0.000 F 
ENDROOT
BRANCH   1   4
ATOM      4  C   UNL     1      44.778   5.741  12.614  0.00  0.00    +0.000 A 
ATOM      5  C   UNL     1      45.452   4.737  13.319  0.00  0.00    +0.000 A 
ATOM      6  C   UNL     1      46.800   4.905  13.645  0.00  0.00    +0.000 A 
ATOM      7  C   UNL     1      47.477   6.062  13.257  0.00  0.00    +0.000 A 
ATOM      8  C   UNL     1      46.829   7.094  12.574  0.00  0.00    +0.000 A 
ATOM      9  C   UNL     1      45.465   6.926  12.272  0.00  0.00    +0.000 A 
BRANCH   8  10
ATOM     10  N   UNL     1      47.482   8.273  12.130  0.00  0.00    +0.000 N 
ATOM     11  H   UNL     1      48.424   8.057  11.794  0.00  0.00    +0.000 HD
BRANCH  10  12
ATOM     12  C   UNL     1      47.360   9.581  12.728  0.00  0.00    +0.000 C 
ATOM     13  C   UNL     1      46.777  10.661  11.801  0.00  0.00    +0.000 C 
ATOM     14  O   UNL     1      47.932  11.516  12.002  0.00  0.00    +0.000 OA
ATOM     15  C   UNL     1      48.607  10.467  12.739  0.00  0.00    +0.000 C 
ENDBRANCH  10  12
ENDBRANCH   8  10
ENDBRANCH   1   4
BRANCH   1  16
ATOM     16  C   UNL     1      43.219   4.362  11.160  0.00  0.00    +0.000 C 
BRANCH  16  21
ATOM     17  C   UNL     1      46.484   2.508   7.706  0.00  0.00    +0.000 A 
ATOM     18  C   UNL     1      45.672   1.843   8.613  0.00  0.00    +0.000 A 
ATOM     19  C   UNL     1      44.759   2.578   9.364  0.00  0.00    +0.000 A 
ATOM     20  C   UNL     1      44.667   3.958   9.194  0.00  0.00    +0.000 A 
ATOM     21  N   UNL     1      43.703   4.714   9.821  0.00  0.00    +0.000 N 
ATOM     22  N   UNL     1      45.471   4.615   8.338  0.00  0.00    +0.000 NA
ATOM     23  C   UNL     1      46.369   3.888   7.621  0.00  0.00    +0.000 A 
ATOM     24  H   UNL     1      43.779   5.705   9.589  0.00  0.00    +0.000 HD
BRANCH  17  26
ATOM     25  N   UNL     1      48.524   2.503   6.397  0.00  0.00    +0.000 N 
ATOM     26  C   UNL     1      47.452   1.798   6.851  0.00  0.00    +0.000 C 
ATOM     27  O   UNL     1      47.308   0.605   6.586  0.00  0.00    +0.000 OA
ATOM     28  H   UNL     1      49.236   1.976   5.906  0.00  0.00    +0.000 HD
ATOM     29  H   UNL     1      48.800   3.389   6.808  0.00  0.00    +0.000 HD
ENDBRANCH  17  26
ENDBRANCH  16  21
ENDBRANCH   1  16
TORSDOF 6
ENDMDL
MODEL 3
REMARK VINA RESULT:    -8.550      1.475      1.773
REMARK INTER + INTRA:         -12.343
REMARK INTER:                 -11.666
REMARK INTRA:                  -0.676
REMARK UNBOUND:                -0.794
REMARK  Name = 
REMARK  6 active torsions:
REMARK  status: ('A' for Active; 'I' for Inactive)
REMARK    1  A    between atoms: C_2  and  C_4
REMARK    2  A    between atoms: N_8  and  C_9
REMARK    3  A    between atoms: C_9  and  C_10
REMARK    4  A    between atoms: C_10  and  C_13
REMARK    5  A    between atoms: C_17  and  N_18
REMARK    6  A    between atoms: N_18  and  C_19
REMARK                            x       y       z     vdW  Elec       q    Type
REMARK                         _______ _______ _______ _____ _____    ______ ____
ROOT
ATOM      1  C   UNL     1      43.123   5.446  12.103  0.00  0.00    +0.000 C 
ATOM      2  F   UNL     1      42.097   6.234  11.656  0.00  0.00    +0.000 F 
ATOM      3  F   UNL     1      42.695   4.951  13.303  0.00  0.00    +0.000 F 
ENDROOT
BRANCH   1   4
ATOM      4  C   UNL     1      44.403   6.250  12.251  0.00  0.00    +0.000 A 
ATOM      5  C   UNL     1      44.499   7.516  11.660  0.00  0.00    +0.000 A 
ATOM      6  C   UNL     1      45.643   8.292  11.867  0.00  0.00    +0.000 A 
ATOM      7  C   UNL     1      46.679   7.814  12.670  0.00  0.00    +0.000 A 
ATOM      8  C   UNL     1      46.627   6.546  13.254  0.00  0.00    +0.000 A 
ATOM      9  C   UNL     1      45.482   5.762  13.020  0.00  0.00    +0.000 A 
BRANCH   8  10
ATOM     10  N   UNL     1      47.639   6.031  14.103  0.00  0.00    +0.000 N 
ATOM     11  H   UNL     1      47.444   5.057  14.347  0.00  0.00    +0.000 HD
BRANCH  10  12
ATOM     12  C   UNL     1      48.326   6.765  15.139  0.00  0.00    +0.000 C 
ATOM     13  C   UNL     1      49.808   7.057  14.848  0.00  0.00    +0.000 C 
ATOM     14  O   UNL     1      50.218   6.422  16.086  0.00  0.00    +0.000 OA
ATOM     15  C   UNL     1      48.865   5.967  16.327  0.00  0.00    +0.000 C 
ENDBRANCH  10  12
ENDBRANCH   8  10
ENDBRANCH   1   4
BRANCH   1  16
ATOM     16  C   UNL     1      43.294   4.269  11.115  0.00  0.00    +0.000 C 
BRANCH  16  21
ATOM     17  C   UNL     1      46.613   2.681   7.580  0.00  0.00    +0.000 A 
ATOM     18  C   UNL     1      45.837   1.950   8.468  0.00  0.00    +0.000 A 
ATOM     19  C   UNL     1      44.898   2.617   9.249  0.00  0.00    +0.000 A 
ATOM     20  C   UNL     1      44.744   3.997   9.127  0.00  0.00    +0.000 A 
ATOM     21  N   UNL     1      43.752   4.688   9.786  0.00  0.00    +0.000 N 
ATOM     22  N   UNL     1      45.512   4.718   8.290  0.00  0.00    +0.000 NA
ATOM     23  C   UNL     1      46.436   4.056   7.544  0.00  0.00    +0.000 A 
ATOM     24  H   UNL     1      43.783   5.689   9.587  0.00  0.00    +0.000 HD
BRANCH  17  26
ATOM     25  N   UNL     1      48.052   2.766   5.632  0.00  0.00    +0.000 N 
ATOM     26  C   UNL     1      47.605   2.045   6.696  0.00  0.00    +0.000 C 
ATOM     27  O   UNL     1      48.033   0.915   6.932  0.00  0.00    +0.000 OA
ATOM     28  H   UNL     1      48.813   2.361   5.099  0.00  0.00    +0.000 HD
ATOM     29  H   UNL     1      47.920   3.770   5.567  0.00  0.00    +0.000 HD
ENDBRANCH  17  26
ENDBRANCH  16  21
ENDBRANCH   1  16
TORSDOF 6
ENDMDL
MODEL 4
REMARK VINA RESULT:    -8.314      3.046      4.346
REMARK INTER + INTRA:         -12.025
REMARK INTER:                 -11.292
REMARK INTRA:                  -0.733
REMARK UNBOUND:                -0.794
REMARK  Name = 
REMARK  6 active torsions:
REMARK  status: ('A' for Active; 'I' for Inactive)
REMARK    1  A    between atoms: C_2  and  C_4
REMARK    2  A    between atoms: N_8  and  C_9
REMARK    3  A    between atoms: C_9  and  C_10
REMARK    4  A    between atoms: C_10  and  C_13
REMARK    5  A    between atoms: C_17  and  N_18
REMARK    6  A    between atoms: N_18  and  C_19
REMARK                            x       y       z     vdW  Elec       q    Type
REMARK                         _______ _______ _______ _____ _____    ______ ____
ROOT
ATOM      1  C   UNL     1      43.359   4.569  12.528  0.00  0.00    +0.000 C 
ATOM      2  F   UNL     1      42.261   5.365  12.722  0.00  0.00    +0.000 F 
ATOM      3  F   UNL     1      43.201   3.528  13.399  0.00  0.00    +0.000 F 
ENDROOT
BRANCH   1   4
ATOM      4  C   UNL     1      44.641   5.336  12.795  0.00  0.00    +0.000 A 
ATOM      5  C   UNL     1      45.718   4.693  13.417  0.00  0.00    +0.000 A 
ATOM      6  C   UNL     1      46.928   5.372  13.585  0.00  0.00    +0.000 A 
ATOM      7  C   UNL     1      47.069   6.680  13.122  0.00  0.00    +0.000 A 
ATOM      8  C   UNL     1      46.007   7.360  12.519  0.00  0.00    +0.000 A 
ATOM      9  C   UNL     1      44.786   6.677  12.376  0.00  0.00    +0.000 A 
BRANCH   8  10
ATOM     10  N   UNL     1      46.112   8.678  12.003  0.00  0.00    +0.000 N 
ATOM     11  H   UNL     1      47.069   9.026  12.097  0.00  0.00    +0.000 HD
BRANCH  10  12
ATOM     12  C   UNL     1      45.104   9.707  12.105  0.00  0.00    +0.000 C 
ATOM     13  C   UNL     1      44.170   9.816  10.888  0.00  0.00    +0.000 C 
ATOM     14  O   UNL     1      44.495  11.219  10.714  0.00  0.00    +0.000 OA
ATOM     15  C   UNL     1      45.516  11.133  11.737  0.00  0.00    +0.000 C 
ENDBRANCH  10  12
ENDBRANCH   8  10
ENDBRANCH   1   4
BRANCH   1  16
ATOM     16  C   UNL     1      43.306   4.020  11.084  0.00  0.00    +0.000 C 
BRANCH  16  21
ATOM     17  C   UNL     1      46.589   2.599   7.446  0.00  0.00    +0.000 A 
ATOM     18  C   UNL     1      46.213   3.868   7.861  0.00  0.00    +0.000 A 
ATOM     19  C   UNL     1      45.393   3.994   8.979  0.00  0.00    +0.000 A 
ATOM     20  C   UNL     1      44.968   2.858   9.665  0.00  0.00    +0.000 A 
ATOM     21  N   UNL     1      44.257   2.930  10.842  0.00  0.00    +0.000 N 
ATOM     22  N   UNL     1      45.304   1.622   9.252  0.00  0.00    +0.000 NA
ATOM     23  C   UNL     1      46.094   1.511   8.150  0.00  0.00    +0.000 A 
ATOM     24  H   UNL     1      44.026   2.007  11.209  0.00  0.00    +0.000 HD
BRANCH  17  26
ATOM     25  N   UNL     1      47.312   3.189   5.209  0.00  0.00    +0.000 N 
ATOM     26  C   UNL     1      47.481   2.383   6.293  0.00  0.00    +0.000 C 
ATOM     27  O   UNL     1      48.362   1.525   6.324  0.00  0.00    +0.000 OA
ATOM     28  H   UNL     1      48.002   3.104   4.472  0.00  0.00    +0.000 HD
ATOM     29  H   UNL     1      46.785   4.055   5.258  0.00  0.00    +0.000 HD
ENDBRANCH  17  26
ENDBRANCH  16  21
ENDBRANCH   1  16
TORSDOF 6
ENDMDL
MODEL 5
REMARK VINA RESULT:    -8.185      2.255      2.791
REMARK INTER + INTRA:         -11.851
REMARK INTER:                 -11.085
REMARK INTRA:                  -0.766
REMARK UNBOUND:                -0.794
REMARK  Name = 
REMARK  6 active torsions:
REMARK  status: ('A' for Active; 'I' for Inactive)
REMARK    1  A    between atoms: C_2  and  C_4
REMARK    2  A    between atoms: N_8  and  C_9
REMARK    3  A    between atoms: C_9  and  C_10
REMARK    4  A    between atoms: C_10  and  C_13
REMARK    5  A    between atoms: C_17  and  N_18
REMARK    6  A    between atoms: N_18  and  C_19
REMARK                            x       y       z     vdW  Elec       q    Type
REMARK                         _______ _______ _______ _____ _____    ______ ____
ROOT
ATOM      1  C   UNL     1      44.376   4.814  12.278  0.00  0.00    +0.000 C 
ATOM      2  F   UNL     1      43.646   4.819  13.437  0.00  0.00    +0.000 F 
ATOM      3  F   UNL     1      45.173   3.707  12.365  0.00  0.00    +0.000 F 
ENDROOT
BRANCH   1   4
ATOM      4  C   UNL     1      45.193   6.087  12.143  0.00  0.00    +0.000 A 
ATOM      5  C   UNL     1      44.542   7.324  12.063  0.00  0.00    +0.000 A 
ATOM      6  C   UNL     1      45.294   8.501  12.024  0.00  0.00    +0.000 A 
ATOM      7  C   UNL     1      46.687   8.446  12.081  0.00  0.00    +0.000 A 
ATOM      8  C   UNL     1      47.369   7.228  12.135  0.00  0.00    +0.000 A 
ATOM      9  C   UNL     1      46.604   6.048  12.149  0.00  0.00    +0.000 A 
BRANCH   8  10
ATOM     10  N   UNL     1      48.781   7.123  12.227  0.00  0.00    +0.000 N 
ATOM     11  H   UNL     1      49.122   6.348  11.653  0.00  0.00    +0.000 HD
BRANCH  10  12
ATOM     12  C   UNL     1      49.570   7.363  13.411  0.00  0.00    +0.000 C 
ATOM     13  C   UNL     1      48.860   7.035  14.736  0.00  0.00    +0.000 C 
ATOM     14  O   UNL     1      49.089   8.377  15.238  0.00  0.00    +0.000 OA
ATOM     15  C   UNL     1      49.608   8.793  13.952  0.00  0.00    +0.000 C 
ENDBRANCH  10  12
ENDBRANCH   8  10
ENDBRANCH   1   4
BRANCH   1  16
ATOM     16  C   UNL     1      43.398   4.629  11.094  0.00  0.00    +0.000 C 
BRANCH  16  21
ATOM     17  C   UNL     1      46.539   2.523   7.669  0.00  0.00    +0.000 A 
ATOM     18  C   UNL     1      45.604   1.930   8.506  0.00  0.00    +0.000 A 
ATOM     19  C   UNL     1      44.765   2.744   9.262  0.00  0.00    +0.000 A 
ATOM     20  C   UNL     1      44.866   4.130   9.165  0.00  0.00    +0.000 A 
ATOM     21  N   UNL     1      43.985   4.979   9.797  0.00  0.00    +0.000 N 
ATOM     22  N   UNL     1      45.789   4.714   8.378  0.00  0.00    +0.000 NA
ATOM     23  C   UNL     1      46.613   3.908   7.657  0.00  0.00    +0.000 A 
ATOM     24  H   UNL     1      44.203   5.960   9.622  0.00  0.00    +0.000 HD
BRANCH  17  26
ATOM     25  N   UNL     1      48.515   2.369   6.275  0.00  0.00    +0.000 N 
ATOM     26  C   UNL     1      47.441   1.731   6.814  0.00  0.00    +0.000 C 
ATOM     27  O   UNL     1      47.242   0.532   6.622  0.00  0.00    +0.000 OA
ATOM     28  H   UNL     1      49.185   1.789   5.783  0.00  0.00    +0.000 HD
ATOM     29  H   UNL     1      48.841   3.265   6.623  0.00  0.00    +0.000 HD
ENDBRANCH  17  26
ENDBRANCH  16  21
ENDBRANCH   1  16
TORSDOF 6
ENDMDL
MODEL 6
REMARK VINA RESULT:    -8.051      3.568      5.204
REMARK INTER + INTRA:         -11.670
REMARK INTER:                 -11.498
REMARK INTRA:                  -0.172
REMARK UNBOUND:                -0.794
REMARK  Name = 
REMARK  6 active torsions:
REMARK  status: ('A' for Active; 'I' for Inactive)
REMARK    1  A    between atoms: C_2  and  C_4
REMARK    2  A    between atoms: N_8  and  C_9
REMARK    3  A    between atoms: C_9  and  C_10
REMARK    4  A    between atoms: C_10  and  C_13
REMARK    5  A    between atoms: C_17  and  N_18
REMARK    6  A    between atoms: N_18  and  C_19
REMARK                            x       y       z     vdW  Elec       q    Type
REMARK                         _______ _______ _______ _____ _____    ______ ____
ROOT
ATOM      1  C   UNL     1      44.529   5.384  12.162  0.00  0.00    +0.000 C 
ATOM      2  F   UNL     1      44.057   5.027  13.397  0.00  0.00    +0.000 F 
ATOM      3  F   UNL     1      45.720   4.726  12.034  0.00  0.00    +0.000 F 
ENDROOT
BRANCH   1   4
ATOM      4  C   UNL     1      44.701   6.888  12.058  0.00  0.00    +0.000 A 
ATOM      5  C   UNL     1      45.674   7.530  12.833  0.00  0.00    +0.000 A 
ATOM      6  C   UNL     1      45.892   8.902  12.675  0.00  0.00    +0.000 A 
ATOM      7  C   UNL     1      45.155   9.626  11.738  0.00  0.00    +0.000 A 
ATOM      8  C   UNL     1      44.159   9.022  10.966  0.00  0.00    +0.000 A 
ATOM      9  C   UNL     1      43.930   7.646  11.149  0.00  0.00    +0.000 A 
BRANCH   8  10
ATOM     10  N   UNL     1      43.407   9.709   9.979  0.00  0.00    +0.000 N 
ATOM     11  H   UNL     1      44.005   9.982   9.195  0.00  0.00    +0.000 HD
BRANCH  10  12
ATOM     12  C   UNL     1      42.323  10.628  10.232  0.00  0.00    +0.000 C 
ATOM     13  C   UNL     1      42.498  11.501  11.487  0.00  0.00    +0.000 C 
ATOM     14  O   UNL     1      41.229  11.049  12.026  0.00  0.00    +0.000 OA
ATOM     15  C   UNL     1      41.093  10.081  10.958  0.00  0.00    +0.000 C 
ENDBRANCH  10  12
ENDBRANCH   8  10
ENDBRANCH   1   4
BRANCH   1  16
ATOM     16  C   UNL     1      43.547   4.842  11.097  0.00  0.00    +0.000 C 
BRANCH  16  21
ATOM     17  C   UNL     1      46.422   2.392   7.667  0.00  0.00    +0.000 A 
ATOM     18  C   UNL     1      45.576   1.888   8.645  0.00  0.00    +0.000 A 
ATOM     19  C   UNL     1      44.789   2.774   9.375  0.00  0.00    +0.000 A 
ATOM     20  C   UNL     1      44.852   4.142   9.114  0.00  0.00    +0.000 A 
ATOM     21  N   UNL     1      44.011   5.047   9.721  0.00  0.00    +0.000 N 
ATOM     22  N   UNL     1      45.690   4.642   8.188  0.00  0.00    +0.000 NA
ATOM     23  C   UNL     1      46.466   3.767   7.492  0.00  0.00    +0.000 A 
ATOM     24  H   UNL     1      44.193   6.005   9.419  0.00  0.00    +0.000 HD
BRANCH  17  26
ATOM     25  N   UNL     1      48.301   2.095   6.165  0.00  0.00    +0.000 N 
ATOM     26  C   UNL     1      47.263   1.518   6.830  0.00  0.00    +0.000 C 
ATOM     27  O   UNL     1      47.048   0.309   6.762  0.00  0.00    +0.000 OA
ATOM     28  H   UNL     1      48.934   1.467   5.685  0.00  0.00    +0.000 HD
ATOM     29  H   UNL     1      48.651   3.016   6.407  0.00  0.00    +0.000 HD
ENDBRANCH  17  26
ENDBRANCH  16  21
ENDBRANCH   1  16
TORSDOF 6
ENDMDL
MODEL 7
REMARK VINA RESULT:    -7.977      1.893      2.503
REMARK INTER + INTRA:         -11.569
REMARK INTER:                 -10.675
REMARK INTRA:                  -0.894
REMARK UNBOUND:                -0.794
REMARK  Name = 
REMARK  6 active torsions:
REMARK  status: ('A' for Active; 'I' for Inactive)
REMARK    1  A    between atoms: C_2  and  C_4
REMARK    2  A    between atoms: N_8  and  C_9
REMARK    3  A    between atoms: C_9  and  C_10
REMARK    4  A    between atoms: C_10  and  C_13
REMARK    5  A    between atoms: C_17  and  N_18
REMARK    6  A    between atoms: N_18  and  C_19
REMARK                            x       y       z     vdW  Elec       q    Type
REMARK                         _______ _______ _______ _____ _____    ______ ____
ROOT
ATOM      1  C   UNL     1      44.186   5.839  11.642  0.00  0.00    +0.000 C 
ATOM      2  F   UNL     1      44.773   6.754  10.809  0.00  0.00    +0.000 F 
ATOM      3  F   UNL     1      43.262   6.549  12.355  0.00  0.00    +0.000 F 
ENDROOT
BRANCH   1   4
ATOM      4  C   UNL     1      45.215   5.185  12.546  0.00  0.00    +0.000 A 
ATOM      5  C   UNL     1      45.375   3.794  12.523  0.00  0.00    +0.000 A 
ATOM      6  C   UNL     1      46.380   3.200  13.291  0.00  0.00    +0.000 A 
ATOM      7  C   UNL     1      47.230   3.988  14.066  0.00  0.00    +0.000 A 
ATOM      8  C   UNL     1      47.082   5.377  14.132  0.00  0.00    +0.000 A 
ATOM      9  C   UNL     1      46.053   5.964  13.374  0.00  0.00    +0.000 A 
BRANCH   8  10
ATOM     10  N   UNL     1      47.942   6.223  14.879  0.00  0.00    +0.000 N 
ATOM     11  H   UNL     1      47.418   6.717  15.605  0.00  0.00    +0.000 HD
BRANCH  10  12
ATOM     12  C   UNL     1      49.056   6.973  14.350  0.00  0.00    +0.000 C 
ATOM     13  C   UNL     1      49.914   7.686  15.410  0.00  0.00    +0.000 C 
ATOM     14  O   UNL     1      49.725   8.968  14.757  0.00  0.00    +0.000 OA
ATOM     15  C   UNL     1      48.772   8.386  13.837  0.00  0.00    +0.000 C 
ENDBRANCH  10  12
ENDBRANCH   8  10
ENDBRANCH   1   4
BRANCH   1  16
ATOM     16  C   UNL     1      43.444   4.800  10.768  0.00  0.00    +0.000 C 
BRANCH  16  21
ATOM     17  C   UNL     1      46.449   2.146   7.611  0.00  0.00    +0.000 A 
ATOM     18  C   UNL     1      45.690   1.718   8.691  0.00  0.00    +0.000 A 
ATOM     19  C   UNL     1      44.839   2.624   9.317  0.00  0.00    +0.000 A 
ATOM     20  C   UNL     1      44.753   3.935   8.853  0.00  0.00    +0.000 A 
ATOM     21  N   UNL     1      43.843   4.837   9.357  0.00  0.00    +0.000 N 
ATOM     22  N   UNL     1      45.507   4.367   7.825  0.00  0.00    +0.000 NA
ATOM     23  C   UNL     1      46.346   3.477   7.232  0.00  0.00    +0.000 A 
ATOM     24  H   UNL     1      43.916   5.750   8.908  0.00  0.00    +0.000 HD
BRANCH  17  26
ATOM     25  N   UNL     1      48.448   1.788   6.289  0.00  0.00    +0.000 N 
ATOM     26  C   UNL     1      47.349   1.241   6.876  0.00  0.00    +0.000 C 
ATOM     27  O   UNL     1      47.126   0.032   6.822  0.00  0.00    +0.000 OA
ATOM     28  H   UNL     1      49.114   1.140   5.884  0.00  0.00    +0.000 HD
ATOM     29  H   UNL     1      48.787   2.712   6.536  0.00  0.00    +0.000 HD
ENDBRANCH  17  26
ENDBRANCH  16  21
ENDBRANCH   1  16
TORSDOF 6
ENDMDL
MODEL 8
REMARK VINA RESULT:    -7.499      1.798      8.048
REMARK INTER + INTRA:         -10.924
REMARK INTER:                 -10.420
REMARK INTRA:                  -0.504
REMARK UNBOUND:                -0.794
REMARK  Name = 
REMARK  6 active torsions:
REMARK  status: ('A' for Active; 'I' for Inactive)
REMARK    1  A    between atoms: C_2  and  C_4
REMARK    2  A    between atoms: N_8  and  C_9
REMARK    3  A    between atoms: C_9  and  C_10
REMARK    4  A    between atoms: C_10  and  C_13
REMARK    5  A    between atoms: C_17  and  N_18
REMARK    6  A    between atoms: N_18  and  C_19
REMARK                            x       y       z     vdW  Elec       q    Type
REMARK                         _______ _______ _______ _____ _____    ______ ____
ROOT
ATOM      1  C   UNL     1      45.727   6.168  11.392  0.00  0.00    +0.000 C 
ATOM      2  F   UNL     1      44.795   7.157  11.231  0.00  0.00    +0.000 F 
ATOM      3  F   UNL     1      46.905   6.718  10.970  0.00  0.00    +0.000 F 
ENDROOT
BRANCH   1   4
ATOM      4  C   UNL     1      45.360   4.936  10.585  0.00  0.00    +0.000 A 
ATOM      5  C   UNL     1      44.504   3.974  11.136  0.00  0.00    +0.000 A 
ATOM      6  C   UNL     1      44.097   2.884  10.363  0.00  0.00    +0.000 A 
ATOM      7  C   UNL     1      44.529   2.760   9.043  0.00  0.00    +0.000 A 
ATOM      8  C   UNL     1      45.403   3.687   8.468  0.00  0.00    +0.000 A 
ATOM      9  C   UNL     1      45.826   4.768   9.262  0.00  0.00    +0.000 A 
BRANCH   8  10
ATOM     10  N   UNL     1      45.843   3.621   7.121  0.00  0.00    +0.000 N 
ATOM     11  H   UNL     1      45.270   4.225   6.526  0.00  0.00    +0.000 HD
BRANCH  10  12
ATOM     12  C   UNL     1      46.338   2.442   6.452  0.00  0.00    +0.000 C 
ATOM     13  C   UNL     1      47.274   1.564   7.302  0.00  0.00    +0.000 C 
ATOM     14  O   UNL     1      48.321   1.641   6.300  0.00  0.00    +0.000 OA
ATOM     15  C   UNL     1      47.556   2.609   5.542  0.00  0.00    +0.000 C 
ENDBRANCH  10  12
ENDBRANCH   8  10
ENDBRANCH   1   4
BRANCH   1  16
ATOM     16  C   UNL     1      45.840   5.853  12.902  0.00  0.00    +0.000 C 
BRANCH  16  21
ATOM     17  C   UNL     1      48.526   4.386  16.985  0.00  0.00    +0.000 A 
ATOM     18  C   UNL     1      47.523   3.724  16.292  0.00  0.00    +0.000 A 
ATOM     19  C   UNL     1      47.035   4.285  15.115  0.00  0.00    +0.000 A 
ATOM     20  C   UNL     1      47.558   5.489  14.646  0.00  0.00    +0.000 A 
ATOM     21  N   UNL     1      47.197   6.025  13.431  0.00  0.00    +0.000 N 
ATOM     22  N   UNL     1      48.511   6.152  15.327  0.00  0.00    +0.000 NA
ATOM     23  C   UNL     1      48.968   5.602  16.483  0.00  0.00    +0.000 A 
ATOM     24  H   UNL     1      47.672   6.909  13.244  0.00  0.00    +0.000 HD
BRANCH  17  26
ATOM     25  N   UNL     1      48.292   3.172  19.069  0.00  0.00    +0.000 N 
ATOM     26  C   UNL     1      49.117   3.842  18.220  0.00  0.00    +0.000 C 
ATOM     27  O   UNL     1      50.319   3.966  18.456  0.00  0.00    +0.000 OA
ATOM     28  H   UNL     1      48.731   2.710  19.856  0.00  0.00    +0.000 HD
ATOM     29  H   UNL     1      47.379   2.835  18.780  0.00  0.00    +0.000 HD
ENDBRANCH  17  26
ENDBRANCH  16  21
ENDBRANCH   1  16
TORSDOF 6
ENDMDL
MODEL 9
REMARK VINA RESULT:    -7.319      2.128      8.170
REMARK INTER + INTRA:         -10.680
REMARK INTER:                 -10.060
REMARK INTRA:                  -0.620
REMARK UNBOUND:                -0.794
REMARK  Name = 
REMARK  6 active torsions:
REMARK  status: ('A' for Active; 'I' for Inactive)
REMARK    1  A    between atoms: C_2  and  C_4
REMARK    2  A    between atoms: N_8  and  C_9
REMARK    3  A    between atoms: C_9  and  C_10
REMARK    4  A    between atoms: C_10  and  C_13
REMARK    5  A    between atoms: C_17  and  N_18
REMARK    6  A    between atoms: N_18  and  C_19
REMARK                            x       y       z     vdW  Elec       q    Type
REMARK                         _______ _______ _______ _____ _____    ______ ____
ROOT
ATOM      1  C   UNL     1      46.337   6.461  12.494  0.00  0.00    +0.000 C 
ATOM      2  F   UNL     1      45.915   7.594  13.137  0.00  0.00    +0.000 F 
ATOM      3  F   UNL     1      46.974   6.908  11.370  0.00  0.00    +0.000 F 
ENDROOT
BRANCH   1   4
ATOM      4  C   UNL     1      45.166   5.557  12.156  0.00  0.00    +0.000 A 
ATOM      5  C   UNL     1      43.861   5.975  12.444  0.00  0.00    +0.000 A 
ATOM      6  C   UNL     1      42.778   5.181  12.056  0.00  0.00    +0.000 A 
ATOM      7  C   UNL     1      42.994   3.986  11.370  0.00  0.00    +0.000 A 
ATOM      8  C   UNL     1      44.283   3.527  11.088  0.00  0.00    +0.000 A 
ATOM      9  C   UNL     1      45.368   4.320  11.505  0.00  0.00    +0.000 A 
BRANCH   8  10
ATOM     10  N   UNL     1      44.552   2.336  10.366  0.00  0.00    +0.000 N 
ATOM     11  H   UNL     1      45.249   1.768  10.854  0.00  0.00    +0.000 HD
BRANCH  10  12
ATOM     12  C   UNL     1      44.603   2.214   8.928  0.00  0.00    +0.000 C 
ATOM     13  C   UNL     1      45.958   1.748   8.369  0.00  0.00    +0.000 C 
ATOM     14  O   UNL     1      46.050   2.914   7.510  0.00  0.00    +0.000 OA
ATOM     15  C   UNL     1      44.871   3.487   8.124  0.00  0.00    +0.000 C 
ENDBRANCH  10  12
ENDBRANCH   8  10
ENDBRANCH   1   4
BRANCH   1  16
ATOM     16  C   UNL     1      47.371   5.751  13.399  0.00  0.00    +0.000 C 
BRANCH  16  21
ATOM     17  C   UNL     1      48.699   4.585  18.185  0.00  0.00    +0.000 A 
ATOM     18  C   UNL     1      49.059   5.670  17.398  0.00  0.00    +0.000 A 
ATOM     19  C   UNL     1      48.449   5.834  16.158  0.00  0.00    +0.000 A 
ATOM     20  C   UNL     1      47.488   4.921  15.728  0.00  0.00    +0.000 A 
ATOM     21  N   UNL     1      46.769   5.100  14.567  0.00  0.00    +0.000 N 
ATOM     22  N   UNL     1      47.154   3.850  16.471  0.00  0.00    +0.000 NA
ATOM     23  C   UNL     1      47.769   3.692  17.674  0.00  0.00    +0.000 A 
ATOM     24  H   UNL     1      46.110   4.338  14.401  0.00  0.00    +0.000 HD
BRANCH  17  26
ATOM     25  N   UNL     1      48.546   3.624  20.405  0.00  0.00    +0.000 N 
ATOM     26  C   UNL     1      49.276   4.360  19.523  0.00  0.00    +0.000 C 
ATOM     27  O   UNL     1      50.388   4.797  19.815  0.00  0.00    +0.000 OA
ATOM     28  H   UNL     1      49.001   3.385  21.278  0.00  0.00    +0.000 HD
ATOM     29  H   UNL     1      47.768   3.044  20.110  0.00  0.00    +0.000 HD
ENDBRANCH  17  26
ENDBRANCH  16  21
ENDBRANCH   1  16
TORSDOF 6
ENDMDL
