MODEL 1
REMARK VINA RESULT:    -9.183      0.000      0.000
REMARK INTER + INTRA:         -11.930
REMARK INTER:                 -11.331
REMARK INTRA:                  -0.599
REMARK UNBOUND:                -0.599
REMARK  Name = 
REMARK  4 active torsions:
REMARK  status: ('A' for Active; 'I' for Inactive)
REMARK    1  A    between atoms: C_2  and  C_4
REMARK    2  A    between atoms: N_8  and  C_9
REMARK    3  A    between atoms: C_9  and  C_10
REMARK    4  A    between atoms: C_14  and  C_15
REMARK                            x       y       z     vdW  Elec       q    Type
REMARK                         _______ _______ _______ _____ _____    ______ ____
ROOT
ATOM      1  C   UNL     1      46.394   2.300   7.695  0.00  0.00    +0.000 A 
ATOM      2  C   UNL     1      45.619   1.786   8.727  0.00  0.00    +0.000 A 
ATOM      3  C   UNL     1      44.747   2.632   9.411  0.00  0.00    +0.000 A 
ATOM      4  C   UNL     1      44.679   3.979   9.071  0.00  0.00    +0.000 A 
ATOM      5  N   UNL     1      43.764   4.848   9.630  0.00  0.00    +0.000 N 
ATOM      6  N   UNL     1      45.443   4.496   8.088  0.00  0.00    +0.000 NA
ATOM      7  C   UNL     1      46.286   3.656   7.426  0.00  0.00    +0.000 A 
ATOM      8  H   UNL     1      43.971   5.787   9.296  0.00  0.00    +0.000 HD
ENDROOT
BRANCH   1  10
ATOM      9  N   UNL     1      48.447   2.059   6.423  0.00  0.00    +0.000 N 
ATOM     10  C   UNL     1      47.311   1.461   6.900  0.00  0.00    +0.000 C 
ATOM     11  O   UNL     1      47.083   0.278   6.705  0.00  0.00    +0.000 OA
ATOM     12  H   UNL     1      49.116   1.452   5.964  0.00  0.00    +0.000 HD
ATOM     13  H   UNL     1      48.785   2.944   6.773  0.00  0.00    +0.000 HD
ENDBRANCH   1  10
BRANCH   5  14
ATOM     14  C   UNL     1      43.421   4.766  11.038  0.00  0.00    +0.000 C 
BRANCH  14  15
ATOM     15  C   UNL     1      44.631   5.017  11.900  0.00  0.00    +0.000 A 
ATOM     16  C   UNL     1      44.869   4.231  13.019  0.00  0.00    +0.000 A 
ATOM     17  N   UNL     1      45.877   4.446  13.889  0.00  0.00    +0.000 NA
ATOM     18  C   UNL     1      46.687   5.504  13.638  0.00  0.00    +0.000 A 
ATOM     19  C   UNL     1      46.550   6.388  12.566  0.00  0.00    +0.000 A 
ATOM     20  C   UNL     1      45.482   6.116  11.699  0.00  0.00    +0.000 A 
BRANCH  19  21
ATOM     21  C   UNL     1      47.446   7.543  12.363  0.00  0.00    +0.000 A 
ATOM     22  C   UNL     1      48.786   7.393  11.974  0.00  0.00    +0.000 A 
ATOM     23  C   UNL     1      49.599   8.508  11.772  0.00  0.00    +0.000 A 
ATOM     24  C   UNL     1      49.055   9.762  11.972  0.00  0.00    +0.000 A 
ATOM     25  N   UNL     1      47.779   9.967  12.348  0.00  0.00    +0.000 NA
ATOM     26  C   UNL     1      47.013   8.862  12.530  0.00  0.00    +0.000 A 
ENDBRANCH  19  21
ENDBRANCH  14  15
ENDBRANCH   5  14
TORSDOF 4
ENDMDL
MODEL 2
REMARK VINA RESULT:    -9.011      1.684      3.368
REMARK INTER + INTRA:         -11.717
REMARK INTER:                 -10.984
REMARK INTRA:                  -0.732
REMARK UNBOUND:                -0.599
REMARK  Name = 
REMARK  4 active torsions:
REMARK  status: ('A' for Active; 'I' for Inactive)
REMARK    1  A    between atoms: C_2  and  C_4
REMARK    2  A    between atoms: N_8  and  C_9
REMARK    3  A    between atoms: C_9  and  C_10
REMARK    4  A    between atoms: C_14  and  C_15
REMARK                            x       y       z     vdW  Elec       q    Type
REMARK                         _______ _______ _______ _____ _____    ______ ____
ROOT
ATOM      1  C   UNL     1      46.370   2.273   7.737  0.00  0.00    +0.000 A 
ATOM      2  C   UNL     1      45.579   1.814   8.783  0.00  0.00    +0.000 A 
ATOM      3  C   UNL     1      44.725   2.704   9.433  0.00  0.00    +0.000 A 
ATOM      4  C   UNL     1      44.691   4.040   9.046  0.00  0.00    +0.000 A 
ATOM      5  N   UNL     1      43.796   4.950   9.570  0.00  0.00    +0.000 N 
ATOM      6  N   UNL     1      45.471   4.504   8.048  0.00  0.00    +0.000 NA
ATOM      7  C   UNL     1      46.295   3.620   7.420  0.00  0.00    +0.000 A 
ATOM      8  H   UNL     1      44.026   5.872   9.203  0.00  0.00    +0.000 HD
ENDROOT
BRANCH   1  10
ATOM      9  N   UNL     1      48.351   1.964   6.369  0.00  0.00    +0.000 N 
ATOM     10  C   UNL     1      47.268   1.385   6.975  0.00  0.00    +0.000 C 
ATOM     11  O   UNL     1      47.075   0.181   6.918  0.00  0.00    +0.000 OA
ATOM     12  H   UNL     1      49.013   1.334   5.933  0.00  0.00    +0.000 HD
ATOM     13  H   UNL     1      48.675   2.891   6.604  0.00  0.00    +0.000 HD
ENDBRANCH   1  10
BRANCH   5  14
ATOM     14  C   UNL     1      43.446   4.925  10.979  0.00  0.00    +0.000 C 
BRANCH  14  15
ATOM     15  C   UNL     1      44.522   5.575  11.809  0.00  0.00    +0.000 A 
ATOM     16  C   UNL     1      44.950   6.863  11.516  0.00  0.00    +0.000 A 
ATOM     17  N   UNL     1      45.966   7.482  12.152  0.00  0.00    +0.000 NA
ATOM     18  C   UNL     1      46.595   6.780  13.127  0.00  0.00    +0.000 A 
ATOM     19  C   UNL     1      46.285   5.474  13.508  0.00  0.00    +0.000 A 
ATOM     20  C   UNL     1      45.223   4.882  12.808  0.00  0.00    +0.000 A 
BRANCH  19  21
ATOM     21  C   UNL     1      47.029   4.749  14.557  0.00  0.00    +0.000 A 
ATOM     22  C   UNL     1      47.550   5.395  15.688  0.00  0.00    +0.000 A 
ATOM     23  C   UNL     1      48.231   4.676  16.671  0.00  0.00    +0.000 A 
ATOM     24  C   UNL     1      48.385   3.313  16.498  0.00  0.00    +0.000 A 
ATOM     25  N   UNL     1      47.910   2.641  15.432  0.00  0.00    +0.000 NA
ATOM     26  C   UNL     1      47.247   3.369  14.499  0.00  0.00    +0.000 A 
ENDBRANCH  19  21
ENDBRANCH  14  15
ENDBRANCH   5  14
TORSDOF 4
ENDMDL
MODEL 3
REMARK VINA RESULT:    -8.252      2.904      6.741
REMARK INTER + INTRA:         -10.781
REMARK INTER:                  -9.986
REMARK INTRA:                  -0.795
REMARK UNBOUND:                -0.599
REMARK  Name = 
REMARK  4 active torsions:
REMARK  status: ('A' for Active; 'I' for Inactive)
REMARK    1  A    between atoms: C_2  and  C_4
REMARK    2  A    between atoms: N_8  and  C_9
REMARK    3  A    between atoms: C_9  and  C_10
REMARK    4  A    between atoms: C_14  and  C_15
REMARK                            x       y       z     vdW  Elec       q    Type
REMARK                         _______ _______ _______ _____ _____    ______ ____
ROOT
ATOM      1  C   UNL     1      48.316   7.042  13.006  0.00  0.00    +0.000 A 
ATOM      2  C   UNL     1      47.674   7.569  11.891  0.00  0.00    +0.000 A 
ATOM      3  C   UNL     1      46.323   7.290  11.688  0.00  0.00    +0.000 A 
ATOM      4  C   UNL     1      45.642   6.473  12.585  0.00  0.00    +0.000 A 
ATOM      5  N   UNL     1      44.283   6.244  12.505  0.00  0.00    +0.000 N 
ATOM      6  N   UNL     1      46.258   5.936  13.657  0.00  0.00    +0.000 NA
ATOM      7  C   UNL     1      47.576   6.223  13.844  0.00  0.00    +0.000 A 
ATOM      8  H   UNL     1      44.035   5.548  13.206  0.00  0.00    +0.000 HD
ENDROOT
BRANCH   1  10
ATOM      9  N   UNL     1      50.572   7.510  12.246  0.00  0.00    +0.000 N 
ATOM     10  C   UNL     1      49.731   7.323  13.310  0.00  0.00    +0.000 C 
ATOM     11  O   UNL     1      50.128   7.419  14.461  0.00  0.00    +0.000 OA
ATOM     12  H   UNL     1      51.518   7.799  12.465  0.00  0.00    +0.000 HD
ATOM     13  H   UNL     1      50.237   7.689  11.311  0.00  0.00    +0.000 HD
ENDBRANCH   1  10
BRANCH   5  14
ATOM     14  C   UNL     1      43.629   6.074  11.221  0.00  0.00    +0.000 C 
BRANCH  14  15
ATOM     15  C   UNL     1      43.801   4.665  10.715  0.00  0.00    +0.000 A 
ATOM     16  C   UNL     1      43.206   3.604  11.383  0.00  0.00    +0.000 A 
ATOM     17  N   UNL     1      43.383   2.309  11.048  0.00  0.00    +0.000 NA
ATOM     18  C   UNL     1      44.201   2.055   9.997  0.00  0.00    +0.000 A 
ATOM     19  C   UNL     1      44.879   3.021   9.252  0.00  0.00    +0.000 A 
ATOM     20  C   UNL     1      44.659   4.348   9.650  0.00  0.00    +0.000 A 
BRANCH  19  21
ATOM     21  C   UNL     1      45.783   2.680   8.137  0.00  0.00    +0.000 A 
ATOM     22  C   UNL     1      46.085   3.589   7.111  0.00  0.00    +0.000 A 
ATOM     23  C   UNL     1      46.960   3.240   6.083  0.00  0.00    +0.000 A 
ATOM     24  C   UNL     1      47.516   1.975   6.095  0.00  0.00    +0.000 A 
ATOM     25  N   UNL     1      47.260   1.061   7.049  0.00  0.00    +0.000 NA
ATOM     26  C   UNL     1      46.411   1.435   8.039  0.00  0.00    +0.000 A 
ENDBRANCH  19  21
ENDBRANCH  14  15
ENDBRANCH   5  14
TORSDOF 4
ENDMDL
MODEL 4
REMARK VINA RESULT:    -8.008      3.188      7.208
REMARK INTER + INTRA:         -10.479
REMARK INTER:                  -9.987
REMARK INTRA:                  -0.493
REMARK UNBOUND:                -0.599
REMARK  Name = 
REMARK  4 active torsions:
REMARK  status: ('A' for Active; 'I' for Inactive)
REMARK    1  A    between atoms: C_2  and  C_4
REMARK    2  A    between atoms: N_8  and  C_9
REMARK    3  A    between atoms: C_9  and  C_10
REMARK    4  A    between atoms: C_14  and  C_15
REMARK                            x       y       z     vdW  Elec       q    Type
REMARK                         _______ _______ _______ _____ _____    ______ ____
ROOT
ATOM      1  C   UNL     1      47.889   5.398  15.378  0.00  0.00    +0.000 A 
ATOM      2  C   UNL     1      46.851   4.623  14.873  0.00  0.00    +0.000 A 
ATOM      3  C   UNL     1      46.241   4.998  13.677  0.00  0.00    +0.000 A 
ATOM      4  C   UNL     1      46.657   6.150  13.018  0.00  0.00    +0.000 A 
ATOM      5  N   UNL     1      46.173   6.520  11.779  0.00  0.00    +0.000 N 
ATOM      6  N   UNL     1      47.646   6.923  13.508  0.00  0.00    +0.000 NA
ATOM      7  C   UNL     1      48.236   6.540  14.674  0.00  0.00    +0.000 A 
ATOM      8  H   UNL     1      46.554   7.436  11.549  0.00  0.00    +0.000 HD
ENDROOT
BRANCH   1  10
ATOM      9  N   UNL     1      47.854   4.649  17.686  0.00  0.00    +0.000 N 
ATOM     10  C   UNL     1      48.610   5.046  16.616  0.00  0.00    +0.000 C 
ATOM     11  O   UNL     1      49.829   5.074  16.672  0.00  0.00    +0.000 OA
ATOM     12  H   UNL     1      48.361   4.316  18.497  0.00  0.00    +0.000 HD
ATOM     13  H   UNL     1      46.886   4.375  17.598  0.00  0.00    +0.000 HD
ENDBRANCH   1  10
BRANCH   5  14
ATOM     14  C   UNL     1      44.773   6.342  11.441  0.00  0.00    +0.000 C 
BRANCH  14  15
ATOM     15  C   UNL     1      44.542   4.995  10.808  0.00  0.00    +0.000 A 
ATOM     16  C   UNL     1      43.645   4.100  11.374  0.00  0.00    +0.000 A 
ATOM     17  N   UNL     1      43.447   2.844  10.921  0.00  0.00    +0.000 NA
ATOM     18  C   UNL     1      44.186   2.456   9.852  0.00  0.00    +0.000 A 
ATOM     19  C   UNL     1      45.137   3.243   9.201  0.00  0.00    +0.000 A 
ATOM     20  C   UNL     1      45.301   4.535   9.720  0.00  0.00    +0.000 A 
BRANCH  19  21
ATOM     21  C   UNL     1      45.935   2.752   8.061  0.00  0.00    +0.000 A 
ATOM     22  C   UNL     1      46.244   3.562   6.958  0.00  0.00    +0.000 A 
ATOM     23  C   UNL     1      47.017   3.071   5.906  0.00  0.00    +0.000 A 
ATOM     24  C   UNL     1      47.464   1.766   5.974  0.00  0.00    +0.000 A 
ATOM     25  N   UNL     1      47.197   0.941   7.004  0.00  0.00    +0.000 NA
ATOM     26  C   UNL     1      46.448   1.452   8.013  0.00  0.00    +0.000 A 
ENDBRANCH  19  21
ENDBRANCH  14  15
ENDBRANCH   5  14
TORSDOF 4
ENDMDL
MODEL 5
REMARK VINA RESULT:    -7.956      1.862      2.497
REMARK INTER + INTRA:         -10.415
REMARK INTER:                  -9.826
REMARK INTRA:                  -0.589
REMARK UNBOUND:                -0.599
REMARK  Name = 
REMARK  4 active torsions:
REMARK  status: ('A' for Active; 'I' for Inactive)
REMARK    1  A    between atoms: C_2  and  C_4
REMARK    2  A    between atoms: N_8  and  C_9
REMARK    3  A    between atoms: C_9  and  C_10
REMARK    4  A    between atoms: C_14  and  C_15
REMARK                            x       y       z     vdW  Elec       q    Type
REMARK                         _______ _______ _______ _____ _____    ______ ____
ROOT
ATOM      1  C   UNL     1      46.206   2.043   8.006  0.00  0.00    +0.000 A 
ATOM      2  C   UNL     1      45.443   1.752   9.131  0.00  0.00    +0.000 A 
ATOM      3  C   UNL     1      44.644   2.749   9.688  0.00  0.00    +0.000 A 
ATOM      4  C   UNL     1      44.636   4.023   9.132  0.00  0.00    +0.000 A 
ATOM      5  N   UNL     1      43.791   5.025   9.564  0.00  0.00    +0.000 N 
ATOM      6  N   UNL     1      45.390   4.326   8.056  0.00  0.00    +0.000 NA
ATOM      7  C   UNL     1      46.161   3.340   7.519  0.00  0.00    +0.000 A 
ATOM      8  H   UNL     1      44.035   5.883   9.073  0.00  0.00    +0.000 HD
ENDROOT
BRANCH   1  10
ATOM      9  N   UNL     1      46.778  -0.282   7.611  0.00  0.00    +0.000 N 
ATOM     10  C   UNL     1      47.046   1.032   7.336  0.00  0.00    +0.000 C 
ATOM     11  O   UNL     1      47.918   1.353   6.544  0.00  0.00    +0.000 OA
ATOM     12  H   UNL     1      47.293  -0.968   7.073  0.00  0.00    +0.000 HD
ATOM     13  H   UNL     1      45.920  -0.583   8.049  0.00  0.00    +0.000 HD
ENDBRANCH   1  10
BRANCH   5  14
ATOM     14  C   UNL     1      43.496   5.195  10.975  0.00  0.00    +0.000 C 
BRANCH  14  15
ATOM     15  C   UNL     1      44.161   6.434  11.515  0.00  0.00    +0.000 A 
ATOM     16  C   UNL     1      43.739   7.691  11.103  0.00  0.00    +0.000 A 
ATOM     17  N   UNL     1      44.336   8.844  11.469  0.00  0.00    +0.000 NA
ATOM     18  C   UNL     1      45.416   8.741  12.283  0.00  0.00    +0.000 A 
ATOM     19  C   UNL     1      45.960   7.545  12.753  0.00  0.00    +0.000 A 
ATOM     20  C   UNL     1      45.299   6.381  12.336  0.00  0.00    +0.000 A 
BRANCH  19  21
ATOM     21  C   UNL     1      47.160   7.496  13.613  0.00  0.00    +0.000 A 
ATOM     22  C   UNL     1      47.721   8.649  14.183  0.00  0.00    +0.000 A 
ATOM     23  C   UNL     1      48.843   8.563  15.007  0.00  0.00    +0.000 A 
ATOM     24  C   UNL     1      49.392   7.317  15.241  0.00  0.00    +0.000 A 
ATOM     25  N   UNL     1      48.900   6.178  14.718  0.00  0.00    +0.000 NA
ATOM     26  C   UNL     1      47.804   6.296  13.928  0.00  0.00    +0.000 A 
ENDBRANCH  19  21
ENDBRANCH  14  15
ENDBRANCH   5  14
TORSDOF 4
ENDMDL
MODEL 6
REMARK VINA RESULT:    -7.922      1.759      2.372
REMARK INTER + INTRA:         -10.374
REMARK INTER:                 -10.151
REMARK INTRA:                  -0.222
REMARK UNBOUND:                -0.599
REMARK  Name = 
REMARK  4 active torsions:
REMARK  status: ('A' for Active; 'I' for Inactive)
REMARK    1  A    between atoms: C_2  and  C_4
REMARK    2  A    between atoms: N_8  and  C_9
REMARK    3  A    between atoms: C_9  and  C_10
REMARK    4  A    between atoms: C_14  and  C_15
REMARK                            x       y       z     vdW  Elec       q    Type
REMARK                         _______ _______ _______ _____ _____    ______ ____
ROOT
ATOM      1  C   UNL     1      46.645   2.486   7.182  0.00  0.00    +0.000 A 
ATOM      2  C   UNL     1      46.114   3.706   7.586  0.00  0.00    +0.000 A 
ATOM      3  C   UNL     1      45.374   3.769   8.765  0.00  0.00    +0.000 A 
ATOM      4  C   UNL     1      45.154   2.614   9.509  0.00  0.00    +0.000 A 
ATOM      5  N   UNL     1      44.525   2.623  10.737  0.00  0.00    +0.000 N 
ATOM      6  N   UNL     1      45.642   1.421   9.116  0.00  0.00    +0.000 NA
ATOM      7  C   UNL     1      46.368   1.376   7.965  0.00  0.00    +0.000 A 
ATOM      8  H   UNL     1      44.399   1.658  11.038  0.00  0.00    +0.000 HD
ENDROOT
BRANCH   1  10
ATOM      9  N   UNL     1      47.275   3.263   4.971  0.00  0.00    +0.000 N 
ATOM     10  C   UNL     1      47.471   2.345   5.969  0.00  0.00    +0.000 C 
ATOM     11  O   UNL     1      48.316   1.470   5.872  0.00  0.00    +0.000 OA
ATOM     12  H   UNL     1      47.914   3.217   4.186  0.00  0.00    +0.000 HD
ATOM     13  H   UNL     1      46.780   4.130   5.118  0.00  0.00    +0.000 HD
ENDBRANCH   1  10
BRANCH   5  14
ATOM     14  C   UNL     1      43.388   3.491  10.988  0.00  0.00    +0.000 C 
BRANCH  14  15
ATOM     15  C   UNL     1      43.844   4.882  11.339  0.00  0.00    +0.000 A 
ATOM     16  C   UNL     1      43.032   5.975  11.066  0.00  0.00    +0.000 A 
ATOM     17  N   UNL     1      43.402   7.257  11.268  0.00  0.00    +0.000 NA
ATOM     18  C   UNL     1      44.648   7.464  11.760  0.00  0.00    +0.000 A 
ATOM     19  C   UNL     1      45.574   6.463  12.057  0.00  0.00    +0.000 A 
ATOM     20  C   UNL     1      45.135   5.152  11.822  0.00  0.00    +0.000 A 
BRANCH  19  21
ATOM     21  C   UNL     1      46.931   6.753  12.561  0.00  0.00    +0.000 A 
ATOM     22  C   UNL     1      47.759   7.720  11.970  0.00  0.00    +0.000 A 
ATOM     23  C   UNL     1      49.028   7.983  12.486  0.00  0.00    +0.000 A 
ATOM     24  C   UNL     1      49.452   7.263  13.586  0.00  0.00    +0.000 A 
ATOM     25  N   UNL     1      48.703   6.322  14.191  0.00  0.00    +0.000 NA
ATOM     26  C   UNL     1      47.471   6.096  13.670  0.00  0.00    +0.000 A 
ENDBRANCH  19  21
ENDBRANCH  14  15
ENDBRANCH   5  14
TORSDOF 4
ENDMDL
MODEL 7
REMARK VINA RESULT:    -7.908      2.863      6.666
REMARK INTER + INTRA:         -10.357
REMARK INTER:                  -9.603
REMARK INTRA:                  -0.754
REMARK UNBOUND:                -0.599
REMARK  Name = 
REMARK  4 active torsions:
REMARK  status: ('A' for Active; 'I' for Inactive)
REMARK    1  A    between atoms: C_2  and  C_4
REMARK    2  A    between atoms: N_8  and  C_9
REMARK    3  A    between atoms: C_9  and  C_10
REMARK    4  A    between atoms: C_14  and  C_15
REMARK                            x       y       z     vdW  Elec       q    Type
REMARK                         _______ _______ _______ _____ _____    ______ ____
ROOT
ATOM      1  C   UNL     1      48.692   7.370  12.783  0.00  0.00    +0.000 A 
ATOM      2  C   UNL     1      47.910   7.933  11.782  0.00  0.00    +0.000 A 
ATOM      3  C   UNL     1      46.549   7.634  11.732  0.00  0.00    +0.000 A 
ATOM      4  C   UNL     1      45.996   6.762  12.664  0.00  0.00    +0.000 A 
ATOM      5  N   UNL     1      44.642   6.508  12.740  0.00  0.00    +0.000 N 
ATOM      6  N   UNL     1      46.748   6.190  13.626  0.00  0.00    +0.000 NA
ATOM      7  C   UNL     1      48.074   6.497  13.665  0.00  0.00    +0.000 A 
ATOM      8  H   UNL     1      44.493   5.774  13.431  0.00  0.00    +0.000 HD
ENDROOT
BRANCH   1  10
ATOM      9  N   UNL     1      50.901   7.572  11.799  0.00  0.00    +0.000 N 
ATOM     10  C   UNL     1      50.130   7.667  12.926  0.00  0.00    +0.000 C 
ATOM     11  O   UNL     1      50.605   8.017  13.995  0.00  0.00    +0.000 OA
ATOM     12  H   UNL     1      51.864   7.873  11.885  0.00  0.00    +0.000 HD
ATOM     13  H   UNL     1      50.506   7.538  10.870  0.00  0.00    +0.000 HD
ENDBRANCH   1  10
BRANCH   5  14
ATOM     14  C   UNL     1      43.837   6.382  11.538  0.00  0.00    +0.000 C 
BRANCH  14  15
ATOM     15  C   UNL     1      43.882   4.973  11.009  0.00  0.00    +0.000 A 
ATOM     16  C   UNL     1      43.182   3.961  11.653  0.00  0.00    +0.000 A 
ATOM     17  N   UNL     1      43.240   2.661  11.296  0.00  0.00    +0.000 NA
ATOM     18  C   UNL     1      44.042   2.349  10.249  0.00  0.00    +0.000 A 
ATOM     19  C   UNL     1      44.817   3.259   9.528  0.00  0.00    +0.000 A 
ATOM     20  C   UNL     1      44.718   4.594   9.947  0.00  0.00    +0.000 A 
BRANCH  19  21
ATOM     21  C   UNL     1      45.697   2.853   8.415  0.00  0.00    +0.000 A 
ATOM     22  C   UNL     1      46.203   1.550   8.296  0.00  0.00    +0.000 A 
ATOM     23  C   UNL     1      47.017   1.195   7.220  0.00  0.00    +0.000 A 
ATOM     24  C   UNL     1      47.318   2.161   6.279  0.00  0.00    +0.000 A 
ATOM     25  N   UNL     1      46.865   3.427   6.343  0.00  0.00    +0.000 NA
ATOM     26  C   UNL     1      46.071   3.737   7.398  0.00  0.00    +0.000 A 
ENDBRANCH  19  21
ENDBRANCH  14  15
ENDBRANCH   5  14
TORSDOF 4
ENDMDL
MODEL 8
REMARK VINA RESULT:    -7.685      2.349      3.017
REMARK INTER + INTRA:         -10.081
REMARK INTER:                  -9.606
REMARK INTRA:                  -0.475
REMARK UNBOUND:                -0.599
REMARK  Name = 
REMARK  4 active torsions:
REMARK  status: ('A' for Active; 'I' for Inactive)
REMARK    1  A    between atoms: C_2  and  C_4
REMARK    2  A    between atoms: N_8  and  C_9
REMARK    3  A    between atoms: C_9  and  C_10
REMARK    4  A    between atoms: C_14  and  C_15
REMARK                            x       y       z     vdW  Elec       q    Type
REMARK                         _______ _______ _______ _____ _____    ______ ____
ROOT
ATOM      1  C   UNL     1      46.677   2.504   7.221  0.00  0.00    +0.000 A 
ATOM      2  C   UNL     1      46.410   3.772   7.722  0.00  0.00    +0.000 A 
ATOM      3  C   UNL     1      45.657   3.900   8.889  0.00  0.00    +0.000 A 
ATOM      4  C   UNL     1      45.163   2.764   9.522  0.00  0.00    +0.000 A 
ATOM      5  N   UNL     1      44.505   2.809  10.734  0.00  0.00    +0.000 N 
ATOM      6  N   UNL     1      45.394   1.529   9.034  0.00  0.00    +0.000 NA
ATOM      7  C   UNL     1      46.136   1.421   7.897  0.00  0.00    +0.000 A 
ATOM      8  H   UNL     1      44.161   1.874  10.945  0.00  0.00    +0.000 HD
ENDROOT
BRANCH   1  10
ATOM      9  N   UNL     1      47.271   3.113   4.949  0.00  0.00    +0.000 N 
ATOM     10  C   UNL     1      47.498   2.286   6.016  0.00  0.00    +0.000 C 
ATOM     11  O   UNL     1      48.366   1.427   5.983  0.00  0.00    +0.000 OA
ATOM     12  H   UNL     1      47.904   3.020   4.164  0.00  0.00    +0.000 HD
ATOM     13  H   UNL     1      46.754   3.976   5.029  0.00  0.00    +0.000 HD
ENDBRANCH   1  10
BRANCH   5  14
ATOM     14  C   UNL     1      43.576   3.882  11.039  0.00  0.00    +0.000 C 
BRANCH  14  15
ATOM     15  C   UNL     1      44.301   5.073  11.608  0.00  0.00    +0.000 A 
ATOM     16  C   UNL     1      45.245   4.904  12.611  0.00  0.00    +0.000 A 
ATOM     17  N   UNL     1      45.874   5.923  13.233  0.00  0.00    +0.000 NA
ATOM     18  C   UNL     1      45.540   7.178  12.842  0.00  0.00    +0.000 A 
ATOM     19  C   UNL     1      44.595   7.492  11.864  0.00  0.00    +0.000 A 
ATOM     20  C   UNL     1      43.972   6.392  11.257  0.00  0.00    +0.000 A 
BRANCH  19  21
ATOM     21  C   UNL     1      44.251   8.882  11.504  0.00  0.00    +0.000 A 
ATOM     22  C   UNL     1      43.218   9.189  10.605  0.00  0.00    +0.000 A 
ATOM     23  C   UNL     1      42.907  10.514  10.302  0.00  0.00    +0.000 A 
ATOM     24  C   UNL     1      43.645  11.516  10.903  0.00  0.00    +0.000 A 
ATOM     25  N   UNL     1      44.648  11.281  11.769  0.00  0.00    +0.000 NA
ATOM     26  C   UNL     1      44.921   9.982  12.047  0.00  0.00    +0.000 A 
ENDBRANCH  19  21
ENDBRANCH  14  15
ENDBRANCH   5  14
TORSDOF 4
ENDMDL
MODEL 9
REMARK VINA RESULT:    -7.513      3.019      7.324
REMARK INTER + INTRA:          -9.868
REMARK INTER:                  -9.309
REMARK INTRA:                  -0.559
REMARK UNBOUND:                -0.599
REMARK  Name = 
REMARK  4 active torsions:
REMARK  status: ('A' for Active; 'I' for Inactive)
REMARK    1  A    between atoms: C_2  and  C_4
REMARK    2  A    between atoms: N_8  and  C_9
REMARK    3  A    between atoms: C_9  and  C_10
REMARK    4  A    between atoms: C_14  and  C_15
REMARK                            x       y       z     vdW  Elec       q    Type
REMARK                         _______ _______ _______ _____ _____    ______ ____
ROOT
ATOM      1  C   UNL     1      47.698   9.226  12.882  0.00  0.00    +0.000 A 
ATOM      2  C   UNL     1      46.545   9.556  12.180  0.00  0.00    +0.000 A 
ATOM      3  C   UNL     1      45.538   8.602  12.036  0.00  0.00    +0.000 A 
ATOM      4  C   UNL     1      45.707   7.330  12.573  0.00  0.00    +0.000 A 
ATOM      5  N   UNL     1      44.712   6.374  12.562  0.00  0.00    +0.000 N 
ATOM      6  N   UNL     1      46.830   6.989  13.235  0.00  0.00    +0.000 NA
ATOM      7  C   UNL     1      47.802   7.933  13.372  0.00  0.00    +0.000 A 
ATOM      8  H   UNL     1      45.100   5.505  12.923  0.00  0.00    +0.000 HD
ENDROOT
BRANCH   1  10
ATOM      9  N   UNL     1      48.437  11.434  13.564  0.00  0.00    +0.000 N 
ATOM     10  C   UNL     1      48.789  10.191  13.111  0.00  0.00    +0.000 C 
ATOM     11  O   UNL     1      49.958   9.884  12.935  0.00  0.00    +0.000 OA
ATOM     12  H   UNL     1      49.199  12.055  13.811  0.00  0.00    +0.000 HD
ATOM     13  H   UNL     1      47.528  11.634  13.955  0.00  0.00    +0.000 HD
ENDBRANCH   1  10
BRANCH   5  14
ATOM     14  C   UNL     1      43.839   6.219  11.412  0.00  0.00    +0.000 C 
BRANCH  14  15
ATOM     15  C   UNL     1      43.901   4.811  10.879  0.00  0.00    +0.000 A 
ATOM     16  C   UNL     1      43.216   3.789  11.521  0.00  0.00    +0.000 A 
ATOM     17  N   UNL     1      43.290   2.491  11.161  0.00  0.00    +0.000 NA
ATOM     18  C   UNL     1      44.095   2.192  10.112  0.00  0.00    +0.000 A 
ATOM     19  C   UNL     1      44.857   3.114   9.392  0.00  0.00    +0.000 A 
ATOM     20  C   UNL     1      44.741   4.446   9.815  0.00  0.00    +0.000 A 
BRANCH  19  21
ATOM     21  C   UNL     1      45.741   2.723   8.277  0.00  0.00    +0.000 A 
ATOM     22  C   UNL     1      46.146   3.630   7.287  0.00  0.00    +0.000 A 
ATOM     23  C   UNL     1      46.999   3.231   6.258  0.00  0.00    +0.000 A 
ATOM     24  C   UNL     1      47.429   1.918   6.234  0.00  0.00    +0.000 A 
ATOM     25  N   UNL     1      47.071   1.003   7.154  0.00  0.00    +0.000 NA
ATOM     26  C   UNL     1      46.246   1.426   8.145  0.00  0.00    +0.000 A 
ENDBRANCH  19  21
ENDBRANCH  14  15
ENDBRANCH   5  14
TORSDOF 4
ENDMDL
