MODEL 1
REMARK VINA RESULT:    -9.595      0.000      0.000
REMARK INTER + INTRA:         -14.238
REMARK INTER:                 -13.241
REMARK INTRA:                  -0.996
REMARK UNBOUND:                -0.996
REMARK  Name = 
REMARK  7 active torsions:
REMARK  status: ('A' for Active; 'I' for Inactive)
REMARK    1  A    between atoms: C_2  and  O_3
REMARK    2  A    between atoms: C_2  and  C_4
REMARK    3  A    between atoms: C_7  and  N_8
REMARK    4  A    between atoms: N_8  and  C_9
REMARK    5  A    between atoms: C_9  and  C_10
REMARK    6  A    between atoms: C_10  and  C_13
REMARK    7  A    between atoms: C_17  and  C_18
REMARK                            x       y       z     vdW  Elec       q    Type
REMARK                         _______ _______ _______ _____ _____    ______ ____
ROOT
ATOM      1  C   UNL     1      43.577   5.668  12.154  0.00  0.00    +0.000 C 
ATOM      2  F   UNL     1      43.198   6.835  11.556  0.00  0.00    +0.000 F 
ATOM      3  F   UNL     1      42.750   5.541  13.242  0.00  0.00    +0.000 F 
ENDROOT
BRANCH   1   4
ATOM      4  C   UNL     1      45.040   5.674  12.554  0.00  0.00    +0.000 A 
ATOM      5  C   UNL     1      45.952   6.475  11.853  0.00  0.00    +0.000 A 
ATOM      6  C   UNL     1      47.293   6.500  12.219  0.00  0.00    +0.000 A 
ATOM      7  C   UNL     1      47.732   5.748  13.310  0.00  0.00    +0.000 A 
ATOM      8  C   UNL     1      46.844   4.966  14.074  0.00  0.00    +0.000 A 
ATOM      9  C   UNL     1      45.499   4.917  13.651  0.00  0.00    +0.000 A 
BRANCH   8  10
ATOM     10  C   UNL     1      47.300   4.263  15.293  0.00  0.00    +0.000 A 
ATOM     11  C   UNL     1      47.167   4.829  16.565  0.00  0.00    +0.000 A 
ATOM     12  C   UNL     1      47.591   4.122  17.686  0.00  0.00    +0.000 A 
ATOM     13  C   UNL     1      48.138   2.861  17.521  0.00  0.00    +0.000 A 
ATOM     14  C   UNL     1      48.231   2.357  16.231  0.00  0.00    +0.000 A 
ATOM     15  N   UNL     1      47.819   3.019  15.124  0.00  0.00    +0.000 NA
ENDBRANCH   8  10
ENDBRANCH   1   4
BRANCH   1  16
ATOM     16  C   UNL     1      43.274   4.483  11.196  0.00  0.00    +0.000 C 
BRANCH  16  17
ATOM     17  N   UNL     1      43.752   4.720   9.819  0.00  0.00    +0.000 N 
ATOM     18  H   UNL     1      43.072   5.197   9.228  0.00  0.00    +0.000 HD
BRANCH  17  22
ATOM     19  C   UNL     1      46.331   2.006   7.885  0.00  0.00    +0.000 A 
ATOM     20  C   UNL     1      45.367   1.523   8.771  0.00  0.00    +0.000 A 
ATOM     21  C   UNL     1      44.491   2.409   9.408  0.00  0.00    +0.000 A 
ATOM     22  C   UNL     1      44.529   3.784   9.145  0.00  0.00    +0.000 A 
ATOM     23  C   UNL     1      45.502   4.248   8.246  0.00  0.00    +0.000 A 
ATOM     24  C   UNL     1      46.391   3.375   7.609  0.00  0.00    +0.000 A 
BRANCH  19  26
ATOM     25  O   UNL     1      48.054   1.350   6.385  0.00  0.00    +0.000 OA
ATOM     26  C   UNL     1      47.254   1.035   7.250  0.00  0.00    +0.000 C 
BRANCH  26  27
ATOM     27  O   UNL     1      47.088  -0.230   7.686  0.00  0.00    +0.000 OA
ATOM     28  H   UNL     1      46.187  -0.440   7.992  0.00  0.00    +0.000 HD
ENDBRANCH  26  27
ENDBRANCH  19  26
ENDBRANCH  17  22
ENDBRANCH  16  17
ENDBRANCH   1  16
TORSDOF 7
ENDMDL
MODEL 2
REMARK VINA RESULT:    -9.373      0.530      1.082
REMARK INTER + INTRA:         -13.931
REMARK INTER:                 -12.930
REMARK INTRA:                  -1.001
REMARK UNBOUND:                -0.996
REMARK  Name = 
REMARK  7 active torsions:
REMARK  status: ('A' for Active; 'I' for Inactive)
REMARK    1  A    between atoms: C_2  and  O_3
REMARK    2  A    between atoms: C_2  and  C_4
REMARK    3  A    between atoms: C_7  and  N_8
REMARK    4  A    between atoms: N_8  and  C_9
REMARK    5  A    between atoms: C_9  and  C_10
REMARK    6  A    between atoms: C_10  and  C_13
REMARK    7  A    between atoms: C_17  and  C_18
REMARK                            x       y       z     vdW  Elec       q    Type
REMARK                         _______ _______ _______ _____ _____    ______ ____
ROOT
ATOM      1  C   UNL     1      43.565   5.713  12.023  0.00  0.00    +0.000 C 
ATOM      2  F   UNL     1      43.055   6.824  11.416  0.00  0.00    +0.000 F 
ATOM      3  F   UNL     1      42.806   5.545  13.154  0.00  0.00    +0.000 F 
ENDROOT
BRANCH   1   4
ATOM      4  C   UNL     1      45.040   5.861  12.347  0.00  0.00    +0.000 A 
ATOM      5  C   UNL     1      45.846   6.699  11.566  0.00  0.00    +0.000 A 
ATOM      6  C   UNL     1      47.195   6.853  11.862  0.00  0.00    +0.000 A 
ATOM      7  C   UNL     1      47.747   6.195  12.962  0.00  0.00    +0.000 A 
ATOM      8  C   UNL     1      46.966   5.380  13.804  0.00  0.00    +0.000 A 
ATOM      9  C   UNL     1      45.612   5.199  13.453  0.00  0.00    +0.000 A 
BRANCH   8  10
ATOM     10  C   UNL     1      47.537   4.778  15.030  0.00  0.00    +0.000 A 
ATOM     11  C   UNL     1      48.156   5.556  16.013  0.00  0.00    +0.000 A 
ATOM     12  C   UNL     1      48.660   4.949  17.160  0.00  0.00    +0.000 A 
ATOM     13  C   UNL     1      48.537   3.578  17.307  0.00  0.00    +0.000 A 
ATOM     14  C   UNL     1      47.903   2.870  16.295  0.00  0.00    +0.000 A 
ATOM     15  N   UNL     1      47.396   3.436  15.174  0.00  0.00    +0.000 NA
ENDBRANCH   8  10
ENDBRANCH   1   4
BRANCH   1  16
ATOM     16  C   UNL     1      43.323   4.479  11.110  0.00  0.00    +0.000 C 
BRANCH  16  17
ATOM     17  N   UNL     1      43.789   4.688   9.725  0.00  0.00    +0.000 N 
ATOM     18  H   UNL     1      43.058   5.012   9.093  0.00  0.00    +0.000 HD
BRANCH  17  22
ATOM     19  C   UNL     1      46.377   1.971   7.808  0.00  0.00    +0.000 A 
ATOM     20  C   UNL     1      46.484   3.333   7.527  0.00  0.00    +0.000 A 
ATOM     21  C   UNL     1      45.644   4.251   8.169  0.00  0.00    +0.000 A 
ATOM     22  C   UNL     1      44.713   3.836   9.130  0.00  0.00    +0.000 A 
ATOM     23  C   UNL     1      44.627   2.462   9.401  0.00  0.00    +0.000 A 
ATOM     24  C   UNL     1      45.454   1.532   8.760  0.00  0.00    +0.000 A 
BRANCH  19  26
ATOM     25  O   UNL     1      48.094   1.400   6.266  0.00  0.00    +0.000 OA
ATOM     26  C   UNL     1      47.270   1.032   7.087  0.00  0.00    +0.000 C 
BRANCH  26  27
ATOM     27  O   UNL     1      47.049  -0.263   7.390  0.00  0.00    +0.000 OA
ATOM     28  H   UNL     1      46.121  -0.481   7.590  0.00  0.00    +0.000 HD
ENDBRANCH  26  27
ENDBRANCH  19  26
ENDBRANCH  17  22
ENDBRANCH  16  17
ENDBRANCH   1  16
TORSDOF 7
ENDMDL
MODEL 3
REMARK VINA RESULT:    -9.178      2.108      3.792
REMARK INTER + INTRA:         -13.662
REMARK INTER:                 -12.546
REMARK INTRA:                  -1.116
REMARK UNBOUND:                -0.996
REMARK  Name = 
REMARK  7 active torsions:
REMARK  status: ('A' for Active; 'I' for Inactive)
REMARK    1  A    between atoms: C_2  and  O_3
REMARK    2  A    between atoms: C_2  and  C_4
REMARK    3  A    between atoms: C_7  and  N_8
REMARK    4  A    between atoms: N_8  and  C_9
REMARK    5  A    between atoms: C_9  and  C_10
REMARK    6  A    between atoms: C_10  and  C_13
REMARK    7  A    between atoms: C_17  and  C_18
REMARK                            x       y       z     vdW  Elec       q    Type
REMARK                         _______ _______ _______ _____ _____    ______ ____
ROOT
ATOM      1  C   UNL     1      43.304   5.508  12.172  0.00  0.00    +0.000 C 
ATOM      2  F   UNL     1      42.811   6.688  11.695  0.00  0.00    +0.000 F 
ATOM      3  F   UNL     1      42.498   5.191  13.237  0.00  0.00    +0.000 F 
ENDROOT
BRANCH   1   4
ATOM      4  C   UNL     1      44.761   5.615  12.578  0.00  0.00    +0.000 A 
ATOM      5  C   UNL     1      45.392   4.533  13.207  0.00  0.00    +0.000 A 
ATOM      6  C   UNL     1      46.732   4.614  13.570  0.00  0.00    +0.000 A 
ATOM      7  C   UNL     1      47.463   5.767  13.282  0.00  0.00    +0.000 A 
ATOM      8  C   UNL     1      46.885   6.861  12.610  0.00  0.00    +0.000 A 
ATOM      9  C   UNL     1      45.513   6.774  12.297  0.00  0.00    +0.000 A 
BRANCH   8  10
ATOM     10  C   UNL     1      47.699   8.030  12.211  0.00  0.00    +0.000 A 
ATOM     11  C   UNL     1      49.036   7.900  11.821  0.00  0.00    +0.000 A 
ATOM     12  C   UNL     1      49.757   9.025  11.434  0.00  0.00    +0.000 A 
ATOM     13  C   UNL     1      49.134  10.261  11.439  0.00  0.00    +0.000 A 
ATOM     14  C   UNL     1      47.803  10.315  11.829  0.00  0.00    +0.000 A 
ATOM     15  N   UNL     1      47.075   9.236  12.202  0.00  0.00    +0.000 NA
ENDBRANCH   8  10
ENDBRANCH   1   4
BRANCH   1  16
ATOM     16  C   UNL     1      43.111   4.404  11.096  0.00  0.00    +0.000 C 
BRANCH  16  17
ATOM     17  N   UNL     1      43.769   4.729   9.815  0.00  0.00    +0.000 N 
ATOM     18  H   UNL     1      43.204   5.318   9.203  0.00  0.00    +0.000 HD
BRANCH  17  22
ATOM     19  C   UNL     1      46.359   2.031   7.872  0.00  0.00    +0.000 A 
ATOM     20  C   UNL     1      45.401   1.542   8.761  0.00  0.00    +0.000 A 
ATOM     21  C   UNL     1      44.521   2.423   9.401  0.00  0.00    +0.000 A 
ATOM     22  C   UNL     1      44.550   3.798   9.138  0.00  0.00    +0.000 A 
ATOM     23  C   UNL     1      45.517   4.268   8.236  0.00  0.00    +0.000 A 
ATOM     24  C   UNL     1      46.409   3.400   7.596  0.00  0.00    +0.000 A 
BRANCH  19  26
ATOM     25  O   UNL     1      48.096   1.390   6.382  0.00  0.00    +0.000 OA
ATOM     26  C   UNL     1      47.286   1.065   7.235  0.00  0.00    +0.000 C 
BRANCH  26  27
ATOM     27  O   UNL     1      47.112  -0.204   7.652  0.00  0.00    +0.000 OA
ATOM     28  H   UNL     1      46.295  -0.358   8.160  0.00  0.00    +0.000 HD
ENDBRANCH  26  27
ENDBRANCH  19  26
ENDBRANCH  17  22
ENDBRANCH  16  17
ENDBRANCH   1  16
TORSDOF 7
ENDMDL
MODEL 4
REMARK VINA RESULT:    -8.807      2.286      4.209
REMARK INTER + INTRA:         -13.150
REMARK INTER:                 -12.361
REMARK INTRA:                  -0.788
REMARK UNBOUND:                -0.996
REMARK  Name = 
REMARK  7 active torsions:
REMARK  status: ('A' for Active; 'I' for Inactive)
REMARK    1  A    between atoms: C_2  and  O_3
REMARK    2  A    between atoms: C_2  and  C_4
REMARK    3  A    between atoms: C_7  and  N_8
REMARK    4  A    between atoms: N_8  and  C_9
REMARK    5  A    between atoms: C_9  and  C_10
REMARK    6  A    between atoms: C_10  and  C_13
REMARK    7  A    between atoms: C_17  and  C_18
REMARK                            x       y       z     vdW  Elec       q    Type
REMARK                         _______ _______ _______ _____ _____    ______ ____
ROOT
ATOM      1  C   UNL     1      43.551   4.482  12.452  0.00  0.00    +0.000 C 
ATOM      2  F   UNL     1      42.543   4.795  13.318  0.00  0.00    +0.000 F 
ATOM      3  F   UNL     1      43.757   3.136  12.618  0.00  0.00    +0.000 F 
ENDROOT
BRANCH   1   4
ATOM      4  C   UNL     1      44.809   5.285  12.720  0.00  0.00    +0.000 A 
ATOM      5  C   UNL     1      45.959   4.642  13.198  0.00  0.00    +0.000 A 
ATOM      6  C   UNL     1      47.122   5.366  13.434  0.00  0.00    +0.000 A 
ATOM      7  C   UNL     1      47.159   6.734  13.165  0.00  0.00    +0.000 A 
ATOM      8  C   UNL     1      46.043   7.414  12.639  0.00  0.00    +0.000 A 
ATOM      9  C   UNL     1      44.860   6.669  12.457  0.00  0.00    +0.000 A 
BRANCH   8  10
ATOM     10  C   UNL     1      46.130   8.841  12.254  0.00  0.00    +0.000 A 
ATOM     11  C   UNL     1      44.987   9.625  12.071  0.00  0.00    +0.000 A 
ATOM     12  C   UNL     1      45.116  10.968  11.730  0.00  0.00    +0.000 A 
ATOM     13  C   UNL     1      46.383  11.507  11.580  0.00  0.00    +0.000 A 
ATOM     14  C   UNL     1      47.472  10.673  11.786  0.00  0.00    +0.000 A 
ATOM     15  N   UNL     1      47.376   9.366  12.126  0.00  0.00    +0.000 NA
ENDBRANCH   8  10
ENDBRANCH   1   4
BRANCH   1  16
ATOM     16  C   UNL     1      43.056   4.703  10.995  0.00  0.00    +0.000 C 
BRANCH  16  17
ATOM     17  N   UNL     1      44.152   5.016  10.057  0.00  0.00    +0.000 N 
ATOM     18  H   UNL     1      44.010   5.882   9.538  0.00  0.00    +0.000 HD
BRANCH  17  22
ATOM     19  C   UNL     1      46.349   2.106   7.945  0.00  0.00    +0.000 A 
ATOM     20  C   UNL     1      45.416   1.701   8.900  0.00  0.00    +0.000 A 
ATOM     21  C   UNL     1      44.665   2.654   9.598  0.00  0.00    +0.000 A 
ATOM     22  C   UNL     1      44.798   4.022   9.330  0.00  0.00    +0.000 A 
ATOM     23  C   UNL     1      45.737   4.407   8.361  0.00  0.00    +0.000 A 
ATOM     24  C   UNL     1      46.502   3.466   7.663  0.00  0.00    +0.000 A 
BRANCH  19  26
ATOM     25  O   UNL     1      47.866   1.309   6.298  0.00  0.00    +0.000 OA
ATOM     26  C   UNL     1      47.140   1.063   7.247  0.00  0.00    +0.000 C 
BRANCH  26  27
ATOM     27  O   UNL     1      46.940  -0.178   7.730  0.00  0.00    +0.000 OA
ATOM     28  H   UNL     1      46.784  -0.859   7.050  0.00  0.00    +0.000 HD
ENDBRANCH  26  27
ENDBRANCH  19  26
ENDBRANCH  17  22
ENDBRANCH  16  17
ENDBRANCH   1  16
TORSDOF 7
ENDMDL
MODEL 5
REMARK VINA RESULT:    -8.414      1.738      2.862
REMARK INTER + INTRA:         -12.608
REMARK INTER:                 -11.326
REMARK INTRA:                  -1.282
REMARK UNBOUND:                -0.996
REMARK  Name = 
REMARK  7 active torsions:
REMARK  status: ('A' for Active; 'I' for Inactive)
REMARK    1  A    between atoms: C_2  and  O_3
REMARK    2  A    between atoms: C_2  and  C_4
REMARK    3  A    between atoms: C_7  and  N_8
REMARK    4  A    between atoms: N_8  and  C_9
REMARK    5  A    between atoms: C_9  and  C_10
REMARK    6  A    between atoms: C_10  and  C_13
REMARK    7  A    between atoms: C_17  and  C_18
REMARK                            x       y       z     vdW  Elec       q    Type
REMARK                         _______ _______ _______ _____ _____    ______ ____
ROOT
ATOM      1  C   UNL     1      44.371   6.124  11.428  0.00  0.00    +0.000 C 
ATOM      2  F   UNL     1      44.895   6.846  10.395  0.00  0.00    +0.000 F 
ATOM      3  F   UNL     1      43.579   7.010  12.115  0.00  0.00    +0.000 F 
ENDROOT
BRANCH   1   4
ATOM      4  C   UNL     1      45.445   5.521  12.312  0.00  0.00    +0.000 A 
ATOM      5  C   UNL     1      45.416   4.152  12.612  0.00  0.00    +0.000 A 
ATOM      6  C   UNL     1      46.403   3.586  13.410  0.00  0.00    +0.000 A 
ATOM      7  C   UNL     1      47.448   4.376  13.893  0.00  0.00    +0.000 A 
ATOM      8  C   UNL     1      47.545   5.745  13.579  0.00  0.00    +0.000 A 
ATOM      9  C   UNL     1      46.504   6.307  12.811  0.00  0.00    +0.000 A 
BRANCH   8  10
ATOM     10  C   UNL     1      48.715   6.545  14.004  0.00  0.00    +0.000 A 
ATOM     11  C   UNL     1      49.353   7.438  13.136  0.00  0.00    +0.000 A 
ATOM     12  C   UNL     1      50.436   8.185  13.585  0.00  0.00    +0.000 A 
ATOM     13  C   UNL     1      50.865   8.033  14.893  0.00  0.00    +0.000 A 
ATOM     14  C   UNL     1      50.180   7.137  15.701  0.00  0.00    +0.000 A 
ATOM     15  N   UNL     1      49.118   6.403  15.293  0.00  0.00    +0.000 NA
ENDBRANCH   8  10
ENDBRANCH   1   4
BRANCH   1  16
ATOM     16  C   UNL     1      43.444   5.016  10.855  0.00  0.00    +0.000 C 
BRANCH  16  17
ATOM     17  N   UNL     1      43.650   4.783   9.412  0.00  0.00    +0.000 N 
ATOM     18  H   UNL     1      42.786   4.781   8.871  0.00  0.00    +0.000 HD
BRANCH  17  22
ATOM     19  C   UNL     1      46.355   1.938   7.879  0.00  0.00    +0.000 A 
ATOM     20  C   UNL     1      46.505   3.281   7.534  0.00  0.00    +0.000 A 
ATOM     21  C   UNL     1      45.626   4.242   8.049  0.00  0.00    +0.000 A 
ATOM     22  C   UNL     1      44.610   3.891   8.947  0.00  0.00    +0.000 A 
ATOM     23  C   UNL     1      44.481   2.535   9.285  0.00  0.00    +0.000 A 
ATOM     24  C   UNL     1      45.347   1.563   8.771  0.00  0.00    +0.000 A 
BRANCH  19  26
ATOM     25  O   UNL     1      48.167   1.260   6.499  0.00  0.00    +0.000 OA
ATOM     26  C   UNL     1      47.293   0.951   7.292  0.00  0.00    +0.000 C 
BRANCH  26  27
ATOM     27  O   UNL     1      47.055  -0.317   7.681  0.00  0.00    +0.000 OA
ATOM     28  H   UNL     1      46.127  -0.602   7.594  0.00  0.00    +0.000 HD
ENDBRANCH  26  27
ENDBRANCH  19  26
ENDBRANCH  17  22
ENDBRANCH  16  17
ENDBRANCH   1  16
TORSDOF 7
ENDMDL
MODEL 6
REMARK VINA RESULT:    -8.408      1.617      1.880
REMARK INTER + INTRA:         -12.599
REMARK INTER:                 -11.700
REMARK INTRA:                  -0.899
REMARK UNBOUND:                -0.996
REMARK  Name = 
REMARK  7 active torsions:
REMARK  status: ('A' for Active; 'I' for Inactive)
REMARK    1  A    between atoms: C_2  and  O_3
REMARK    2  A    between atoms: C_2  and  C_4
REMARK    3  A    between atoms: C_7  and  N_8
REMARK    4  A    between atoms: N_8  and  C_9
REMARK    5  A    between atoms: C_9  and  C_10
REMARK    6  A    between atoms: C_10  and  C_13
REMARK    7  A    between atoms: C_17  and  C_18
REMARK                            x       y       z     vdW  Elec       q    Type
REMARK                         _______ _______ _______ _____ _____    ______ ____
ROOT
ATOM      1  C   UNL     1      45.089   5.532  12.215  0.00  0.00    +0.000 C 
ATOM      2  F   UNL     1      44.098   5.961  13.050  0.00  0.00    +0.000 F 
ATOM      3  F   UNL     1      45.048   4.163  12.289  0.00  0.00    +0.000 F 
ENDROOT
BRANCH   1   4
ATOM      4  C   UNL     1      46.449   6.080  12.607  0.00  0.00    +0.000 A 
ATOM      5  C   UNL     1      47.172   6.867  11.700  0.00  0.00    +0.000 A 
ATOM      6  C   UNL     1      48.413   7.385  12.054  0.00  0.00    +0.000 A 
ATOM      7  C   UNL     1      48.930   7.148  13.328  0.00  0.00    +0.000 A 
ATOM      8  C   UNL     1      48.219   6.403  14.288  0.00  0.00    +0.000 A 
ATOM      9  C   UNL     1      46.987   5.845  13.888  0.00  0.00    +0.000 A 
BRANCH   8  10
ATOM     10  C   UNL     1      48.728   6.253  15.669  0.00  0.00    +0.000 A 
ATOM     11  C   UNL     1      49.196   7.346  16.405  0.00  0.00    +0.000 A 
ATOM     12  C   UNL     1      49.645   7.162  17.709  0.00  0.00    +0.000 A 
ATOM     13  C   UNL     1      49.618   5.891  18.259  0.00  0.00    +0.000 A 
ATOM     14  C   UNL     1      49.131   4.855  17.474  0.00  0.00    +0.000 A 
ATOM     15  N   UNL     1      48.681   5.007  16.207  0.00  0.00    +0.000 NA
ENDBRANCH   8  10
ENDBRANCH   1   4
BRANCH   1  16
ATOM     16  C   UNL     1      44.734   5.933  10.756  0.00  0.00    +0.000 C 
BRANCH  16  17
ATOM     17  N   UNL     1      44.016   4.869  10.027  0.00  0.00    +0.000 N 
ATOM     18  H   UNL     1      43.193   4.521  10.518  0.00  0.00    +0.000 HD
BRANCH  17  22
ATOM     19  C   UNL     1      46.309   2.019   7.934  0.00  0.00    +0.000 A 
ATOM     20  C   UNL     1      45.347   1.587   8.848  0.00  0.00    +0.000 A 
ATOM     21  C   UNL     1      44.564   2.520   9.538  0.00  0.00    +0.000 A 
ATOM     22  C   UNL     1      44.695   3.895   9.302  0.00  0.00    +0.000 A 
ATOM     23  C   UNL     1      45.664   4.307   8.375  0.00  0.00    +0.000 A 
ATOM     24  C   UNL     1      46.460   3.385   7.684  0.00  0.00    +0.000 A 
BRANCH  19  26
ATOM     25  O   UNL     1      47.907   1.271   6.341  0.00  0.00    +0.000 OA
ATOM     26  C   UNL     1      47.132   0.997   7.243  0.00  0.00    +0.000 C 
BRANCH  26  27
ATOM     27  O   UNL     1      46.903  -0.259   7.672  0.00  0.00    +0.000 OA
ATOM     28  H   UNL     1      46.024  -0.401   8.068  0.00  0.00    +0.000 HD
ENDBRANCH  26  27
ENDBRANCH  19  26
ENDBRANCH  17  22
ENDBRANCH  16  17
ENDBRANCH   1  16
TORSDOF 7
ENDMDL
MODEL 7
REMARK VINA RESULT:    -8.346      2.942      5.558
REMARK INTER + INTRA:         -12.514
REMARK INTER:                 -11.785
REMARK INTRA:                  -0.729
REMARK UNBOUND:                -0.996
REMARK  Name = 
REMARK  7 active torsions:
REMARK  status: ('A' for Active; 'I' for Inactive)
REMARK    1  A    between atoms: C_2  and  O_3
REMARK    2  A    between atoms: C_2  and  C_4
REMARK    3  A    between atoms: C_7  and  N_8
REMARK    4  A    between atoms: N_8  and  C_9
REMARK    5  A    between atoms: C_9  and  C_10
REMARK    6  A    between atoms: C_10  and  C_13
REMARK    7  A    between atoms: C_17  and  C_18
REMARK                            x       y       z     vdW  Elec       q    Type
REMARK                         _______ _______ _______ _____ _____    ______ ____
ROOT
ATOM      1  C   UNL     1      44.496   4.942  12.208  0.00  0.00    +0.000 C 
ATOM      2  F   UNL     1      44.051   4.551  13.438  0.00  0.00    +0.000 F 
ATOM      3  F   UNL     1      45.565   4.124  11.941  0.00  0.00    +0.000 F 
ENDROOT
BRANCH   1   4
ATOM      4  C   UNL     1      44.883   6.408  12.176  0.00  0.00    +0.000 A 
ATOM      5  C   UNL     1      46.085   6.826  12.761  0.00  0.00    +0.000 A 
ATOM      6  C   UNL     1      46.457   8.165  12.725  0.00  0.00    +0.000 A 
ATOM      7  C   UNL     1      45.645   9.097  12.077  0.00  0.00    +0.000 A 
ATOM      8  C   UNL     1      44.451   8.716  11.434  0.00  0.00    +0.000 A 
ATOM      9  C   UNL     1      44.071   7.361  11.528  0.00  0.00    +0.000 A 
BRANCH   8  10
ATOM     10  C   UNL     1      43.658   9.693  10.655  0.00  0.00    +0.000 A 
ATOM     11  C   UNL     1      44.261  10.610   9.789  0.00  0.00    +0.000 A 
ATOM     12  C   UNL     1      43.473  11.496   9.061  0.00  0.00    +0.000 A 
ATOM     13  C   UNL     1      42.097  11.451   9.206  0.00  0.00    +0.000 A 
ATOM     14  C   UNL     1      41.566  10.509  10.076  0.00  0.00    +0.000 A 
ATOM     15  N   UNL     1      42.308   9.631  10.790  0.00  0.00    +0.000 NA
ENDBRANCH   8  10
ENDBRANCH   1   4
BRANCH   1  16
ATOM     16  C   UNL     1      43.399   4.638  11.151  0.00  0.00    +0.000 C 
BRANCH  16  17
ATOM     17  N   UNL     1      43.869   4.826   9.764  0.00  0.00    +0.000 N 
ATOM     18  H   UNL     1      43.202   5.318   9.170  0.00  0.00    +0.000 HD
BRANCH  17  22
ATOM     19  C   UNL     1      46.307   1.957   7.871  0.00  0.00    +0.000 A 
ATOM     20  C   UNL     1      45.291   1.534   8.729  0.00  0.00    +0.000 A 
ATOM     21  C   UNL     1      44.461   2.473   9.352  0.00  0.00    +0.000 A 
ATOM     22  C   UNL     1      44.598   3.844   9.101  0.00  0.00    +0.000 A 
ATOM     23  C   UNL     1      45.622   4.247   8.230  0.00  0.00    +0.000 A 
ATOM     24  C   UNL     1      46.465   3.320   7.608  0.00  0.00    +0.000 A 
BRANCH  19  26
ATOM     25  O   UNL     1      48.017   1.195   6.406  0.00  0.00    +0.000 OA
ATOM     26  C   UNL     1      47.178   0.929   7.251  0.00  0.00    +0.000 C 
BRANCH  26  27
ATOM     27  O   UNL     1      46.918  -0.324   7.674  0.00  0.00    +0.000 OA
ATOM     28  H   UNL     1      46.312  -0.380   8.434  0.00  0.00    +0.000 HD
ENDBRANCH  26  27
ENDBRANCH  19  26
ENDBRANCH  17  22
ENDBRANCH  16  17
ENDBRANCH   1  16
TORSDOF 7
ENDMDL
MODEL 8
REMARK VINA RESULT:    -8.203      2.729      3.448
REMARK INTER + INTRA:         -12.317
REMARK INTER:                 -11.466
REMARK INTRA:                  -0.851
REMARK UNBOUND:                -0.996
REMARK  Name = 
REMARK  7 active torsions:
REMARK  status: ('A' for Active; 'I' for Inactive)
REMARK    1  A    between atoms: C_2  and  O_3
REMARK    2  A    between atoms: C_2  and  C_4
REMARK    3  A    between atoms: C_7  and  N_8
REMARK    4  A    between atoms: N_8  and  C_9
REMARK    5  A    between atoms: C_9  and  C_10
REMARK    6  A    between atoms: C_10  and  C_13
REMARK    7  A    between atoms: C_17  and  C_18
REMARK                            x       y       z     vdW  Elec       q    Type
REMARK                         _______ _______ _______ _____ _____    ______ ____
ROOT
ATOM      1  C   UNL     1      44.516   4.637  12.318  0.00  0.00    +0.000 C 
ATOM      2  F   UNL     1      44.023   4.452  13.577  0.00  0.00    +0.000 F 
ATOM      3  F   UNL     1      45.438   3.635  12.147  0.00  0.00    +0.000 F 
ENDROOT
BRANCH   1   4
ATOM      4  C   UNL     1      45.133   6.010  12.138  0.00  0.00    +0.000 A 
ATOM      5  C   UNL     1      44.316   7.108  11.835  0.00  0.00    +0.000 A 
ATOM      6  C   UNL     1      44.869   8.375  11.682  0.00  0.00    +0.000 A 
ATOM      7  C   UNL     1      46.241   8.563  11.859  0.00  0.00    +0.000 A 
ATOM      8  C   UNL     1      47.094   7.499  12.210  0.00  0.00    +0.000 A 
ATOM      9  C   UNL     1      46.517   6.216  12.309  0.00  0.00    +0.000 A 
BRANCH   8  10
ATOM     10  C   UNL     1      48.525   7.732  12.504  0.00  0.00    +0.000 A 
ATOM     11  C   UNL     1      49.436   8.083  11.502  0.00  0.00    +0.000 A 
ATOM     12  C   UNL     1      50.769   8.313  11.829  0.00  0.00    +0.000 A 
ATOM     13  C   UNL     1      51.171   8.193  13.148  0.00  0.00    +0.000 A 
ATOM     14  C   UNL     1      50.212   7.851  14.091  0.00  0.00    +0.000 A 
ATOM     15  N   UNL     1      48.908   7.629  13.803  0.00  0.00    +0.000 NA
ENDBRANCH   8  10
ENDBRANCH   1   4
BRANCH   1  16
ATOM     16  C   UNL     1      43.378   4.405  11.286  0.00  0.00    +0.000 C 
BRANCH  16  17
ATOM     17  N   UNL     1      43.792   4.691   9.899  0.00  0.00    +0.000 N 
ATOM     18  H   UNL     1      43.073   5.158   9.346  0.00  0.00    +0.000 HD
BRANCH  17  22
ATOM     19  C   UNL     1      46.383   2.112   7.803  0.00  0.00    +0.000 A 
ATOM     20  C   UNL     1      45.446   1.573   8.686  0.00  0.00    +0.000 A 
ATOM     21  C   UNL     1      44.566   2.415   9.376  0.00  0.00    +0.000 A 
ATOM     22  C   UNL     1      44.573   3.800   9.171  0.00  0.00    +0.000 A 
ATOM     23  C   UNL     1      45.519   4.320   8.274  0.00  0.00    +0.000 A 
ATOM     24  C   UNL     1      46.412   3.491   7.584  0.00  0.00    +0.000 A 
BRANCH  19  26
ATOM     25  O   UNL     1      48.301   1.569   6.509  0.00  0.00    +0.000 OA
ATOM     26  C   UNL     1      47.312   1.186   7.111  0.00  0.00    +0.000 C 
BRANCH  26  27
ATOM     27  O   UNL     1      46.930  -0.105   7.171  0.00  0.00    +0.000 OA
ATOM     28  H   UNL     1      47.187  -0.642   6.400  0.00  0.00    +0.000 HD
ENDBRANCH  26  27
ENDBRANCH  19  26
ENDBRANCH  17  22
ENDBRANCH  16  17
ENDBRANCH   1  16
TORSDOF 7
ENDMDL
MODEL 9
REMARK VINA RESULT:    -8.083      3.471      7.291
REMARK INTER + INTRA:         -12.150
REMARK INTER:                 -11.030
REMARK INTRA:                  -1.120
REMARK UNBOUND:                -0.996
REMARK  Name = 
REMARK  7 active torsions:
REMARK  status: ('A' for Active; 'I' for Inactive)
REMARK    1  A    between atoms: C_2  and  O_3
REMARK    2  A    between atoms: C_2  and  C_4
REMARK    3  A    between atoms: C_7  and  N_8
REMARK    4  A    between atoms: N_8  and  C_9
REMARK    5  A    between atoms: C_9  and  C_10
REMARK    6  A    between atoms: C_10  and  C_13
REMARK    7  A    between atoms: C_17  and  C_18
REMARK                            x       y       z     vdW  Elec       q    Type
REMARK                         _______ _______ _______ _____ _____    ______ ____
ROOT
ATOM      1  C   UNL     1      45.746   7.698  11.999  0.00  0.00    +0.000 C 
ATOM      2  F   UNL     1      45.284   8.030  13.240  0.00  0.00    +0.000 F 
ATOM      3  F   UNL     1      45.569   8.827  11.240  0.00  0.00    +0.000 F 
ENDROOT
BRANCH   1   4
ATOM      4  C   UNL     1      45.018   6.503  11.415  0.00  0.00    +0.000 A 
ATOM      5  C   UNL     1      43.673   6.278  11.739  0.00  0.00    +0.000 A 
ATOM      6  C   UNL     1      42.991   5.194  11.198  0.00  0.00    +0.000 A 
ATOM      7  C   UNL     1      43.637   4.340  10.303  0.00  0.00    +0.000 A 
ATOM      8  C   UNL     1      44.973   4.553   9.911  0.00  0.00    +0.000 A 
ATOM      9  C   UNL     1      45.658   5.629  10.512  0.00  0.00    +0.000 A 
BRANCH   8  10
ATOM     10  C   UNL     1      45.610   3.707   8.878  0.00  0.00    +0.000 A 
ATOM     11  C   UNL     1      45.645   2.314   8.984  0.00  0.00    +0.000 A 
ATOM     12  C   UNL     1      46.237   1.557   7.978  0.00  0.00    +0.000 A 
ATOM     13  C   UNL     1      46.781   2.202   6.880  0.00  0.00    +0.000 A 
ATOM     14  C   UNL     1      46.702   3.587   6.835  0.00  0.00    +0.000 A 
ATOM     15  N   UNL     1      46.126   4.347   7.796  0.00  0.00    +0.000 NA
ENDBRANCH   8  10
ENDBRANCH   1   4
BRANCH   1  16
ATOM     16  C   UNL     1      47.274   7.425  12.082  0.00  0.00    +0.000 C 
BRANCH  16  17
ATOM     17  N   UNL     1      47.806   7.544  13.453  0.00  0.00    +0.000 N 
ATOM     18  H   UNL     1      48.618   8.157  13.525  0.00  0.00    +0.000 HD
BRANCH  17  22
ATOM     19  C   UNL     1      47.805   4.413  16.274  0.00  0.00    +0.000 A 
ATOM     20  C   UNL     1      47.085   4.267  15.087  0.00  0.00    +0.000 A 
ATOM     21  C   UNL     1      47.090   5.290  14.132  0.00  0.00    +0.000 A 
ATOM     22  C   UNL     1      47.841   6.457  14.320  0.00  0.00    +0.000 A 
ATOM     23  C   UNL     1      48.563   6.581  15.517  0.00  0.00    +0.000 A 
ATOM     24  C   UNL     1      48.560   5.570  16.485  0.00  0.00    +0.000 A 
BRANCH  19  26
ATOM     25  O   UNL     1      48.754   2.787  17.724  0.00  0.00    +0.000 OA
ATOM     26  C   UNL     1      47.753   3.315  17.268  0.00  0.00    +0.000 C 
BRANCH  26  27
ATOM     27  O   UNL     1      46.500   2.927  17.578  0.00  0.00    +0.000 OA
ATOM     28  H   UNL     1      46.445   2.246  18.274  0.00  0.00    +0.000 HD
ENDBRANCH  26  27
ENDBRANCH  19  26
ENDBRANCH  17  22
ENDBRANCH  16  17
ENDBRANCH   1  16
TORSDOF 7
ENDMDL
