MODEL 1
REMARK VINA RESULT:    -9.462      0.000      0.000
REMARK INTER + INTRA:         -12.289
REMARK INTER:                 -12.504
REMARK INTRA:                   0.215
REMARK UNBOUND:                 0.215
REMARK  Name = 
REMARK  6 active torsions:
REMARK  status: ('A' for Active; 'I' for Inactive)
REMARK    1  A    between atoms: C_2  and  C_4
REMARK    2  A    between atoms: C_7  and  N_8
REMARK    3  A    between atoms: N_8  and  C_9
REMARK    4  A    between atoms: C_9  and  C_10
REMARK    5  A    between atoms: C_12  and  C_13
REMARK    6  A    between atoms: C_17  and  O_18
REMARK                            x       y       z     vdW  Elec       q    Type
REMARK                         _______ _______ _______ _____ _____    ______ ____
ROOT
ATOM      1  C   UNL     1      43.964   4.838  11.431  0.00  0.00    +0.000 C 
ATOM      2  C   UNL     1      43.377   3.662  12.199  0.00  0.00    +0.000 C 
ATOM      3  C   UNL     1      42.687   4.983  12.242  0.00  0.00    +0.000 C 
ENDROOT
BRANCH   1   4
ATOM      4  C   UNL     1      45.233   5.518  11.955  0.00  0.00    +0.000 A 
ATOM      5  C   UNL     1      45.694   5.196  13.231  0.00  0.00    +0.000 A 
ATOM      6  C   UNL     1      46.956   5.595  13.682  0.00  0.00    +0.000 A 
ATOM      7  C   UNL     1      47.707   6.390  12.811  0.00  0.00    +0.000 A 
ATOM      8  C   UNL     1      47.171   6.730  11.578  0.00  0.00    +0.000 A 
ATOM      9  N   UNL     1      45.966   6.315  11.133  0.00  0.00    +0.000 NA
BRANCH   6  10
ATOM     10  C   UNL     1      47.464   5.143  14.989  0.00  0.00    +0.000 A 
ATOM     11  C   UNL     1      48.607   5.711  15.575  0.00  0.00    +0.000 A 
ATOM     12  N   UNL     1      49.142   5.348  16.766  0.00  0.00    +0.000 NA
ATOM     13  C   UNL     1      48.505   4.367  17.429  0.00  0.00    +0.000 A 
ATOM     14  C   UNL     1      47.365   3.738  16.956  0.00  0.00    +0.000 A 
ATOM     15  C   UNL     1      46.845   4.125  15.727  0.00  0.00    +0.000 A 
BRANCH  14  16
ATOM     16  O   UNL     1      46.726   2.751  17.639  0.00  0.00    +0.000 OA
ATOM     17  H   UNL     1      47.000   1.890  17.282  0.00  0.00    +0.000 HD
ENDBRANCH  14  16
ENDBRANCH   6  10
ENDBRANCH   1   4
BRANCH   1  18
ATOM     18  N   UNL     1      43.892   4.844   9.949  0.00  0.00    +0.000 N 
ATOM     19  H   UNL     1      42.967   4.911   9.545  0.00  0.00    +0.000 HD
BRANCH  18  23
ATOM     20  C   UNL     1      46.390   2.361   7.801  0.00  0.00    +0.000 A 
ATOM     21  C   UNL     1      46.399   3.729   7.585  0.00  0.00    +0.000 A 
ATOM     22  N   UNL     1      45.582   4.584   8.259  0.00  0.00    +0.000 NA
ATOM     23  C   UNL     1      44.764   4.037   9.190  0.00  0.00    +0.000 A 
ATOM     24  C   UNL     1      44.750   2.646   9.368  0.00  0.00    +0.000 A 
ATOM     25  N   UNL     1      45.551   1.773   8.695  0.00  0.00    +0.000 NA
BRANCH  20  27
ATOM     26  N   UNL     1      48.435   2.104   6.518  0.00  0.00    +0.000 N 
ATOM     27  C   UNL     1      47.328   1.491   7.039  0.00  0.00    +0.000 C 
ATOM     28  O   UNL     1      47.128   0.292   6.888  0.00  0.00    +0.000 OA
ATOM     29  H   UNL     1      49.121   1.544   6.030  0.00  0.00    +0.000 HD
ATOM     30  H   UNL     1      48.617   3.083   6.707  0.00  0.00    +0.000 HD
ENDBRANCH  20  27
ENDBRANCH  18  23
ENDBRANCH   1  18
TORSDOF 6
ENDMDL
MODEL 2
REMARK VINA RESULT:    -9.259      1.652      7.497
REMARK INTER + INTRA:         -12.021
REMARK INTER:                 -11.331
REMARK INTRA:                  -0.691
REMARK UNBOUND:                 0.215
REMARK  Name = 
REMARK  6 active torsions:
REMARK  status: ('A' for Active; 'I' for Inactive)
REMARK    1  A    between atoms: C_2  and  C_4
REMARK    2  A    between atoms: C_7  and  N_8
REMARK    3  A    between atoms: N_8  and  C_9
REMARK    4  A    between atoms: C_9  and  C_10
REMARK    5  A    between atoms: C_12  and  C_13
REMARK    6  A    between atoms: C_17  and  O_18
REMARK                            x       y       z     vdW  Elec       q    Type
REMARK                         _______ _______ _______ _____ _____    ______ ____
ROOT
ATOM      1  C   UNL     1      46.204   7.312  12.076  0.00  0.00    +0.000 C 
ATOM      2  C   UNL     1      46.273   8.790  11.717  0.00  0.00    +0.000 C 
ATOM      3  C   UNL     1      45.616   8.374  12.990  0.00  0.00    +0.000 C 
ENDROOT
BRANCH   1   4
ATOM      4  C   UNL     1      45.237   6.399  11.314  0.00  0.00    +0.000 A 
ATOM      5  C   UNL     1      45.746   5.543  10.338  0.00  0.00    +0.000 A 
ATOM      6  C   UNL     1      44.969   4.528   9.770  0.00  0.00    +0.000 A 
ATOM      7  C   UNL     1      43.636   4.457  10.185  0.00  0.00    +0.000 A 
ATOM      8  C   UNL     1      43.170   5.374  11.114  0.00  0.00    +0.000 A 
ATOM      9  N   UNL     1      43.932   6.332  11.684  0.00  0.00    +0.000 NA
BRANCH   6  10
ATOM     10  C   UNL     1      45.565   3.566   8.826  0.00  0.00    +0.000 A 
ATOM     11  C   UNL     1      45.563   2.184   9.080  0.00  0.00    +0.000 A 
ATOM     12  N   UNL     1      46.095   1.237   8.271  0.00  0.00    +0.000 NA
ATOM     13  C   UNL     1      46.659   1.677   7.132  0.00  0.00    +0.000 A 
ATOM     14  C   UNL     1      46.713   3.013   6.771  0.00  0.00    +0.000 A 
ATOM     15  C   UNL     1      46.167   3.962   7.625  0.00  0.00    +0.000 A 
BRANCH  14  16
ATOM     16  O   UNL     1      47.280   3.445   5.613  0.00  0.00    +0.000 OA
ATOM     17  H   UNL     1      47.391   4.409   5.655  0.00  0.00    +0.000 HD
ENDBRANCH  14  16
ENDBRANCH   6  10
ENDBRANCH   1   4
BRANCH   1  18
ATOM     18  N   UNL     1      47.445   6.607  12.482  0.00  0.00    +0.000 N 
ATOM     19  H   UNL     1      47.992   6.197  11.736  0.00  0.00    +0.000 HD
BRANCH  18  23
ATOM     20  C   UNL     1      47.442   4.275  15.885  0.00  0.00    +0.000 A 
ATOM     21  C   UNL     1      48.184   5.444  15.831  0.00  0.00    +0.000 A 
ATOM     22  N   UNL     1      48.226   6.236  14.725  0.00  0.00    +0.000 NA
ATOM     23  C   UNL     1      47.476   5.844  13.667  0.00  0.00    +0.000 A 
ATOM     24  C   UNL     1      46.760   4.641  13.734  0.00  0.00    +0.000 A 
ATOM     25  N   UNL     1      46.713   3.829  14.828  0.00  0.00    +0.000 NA
BRANCH  20  27
ATOM     26  N   UNL     1      48.581   3.480  17.877  0.00  0.00    +0.000 N 
ATOM     27  C   UNL     1      47.429   3.472  17.139  0.00  0.00    +0.000 C 
ATOM     28  O   UNL     1      46.442   2.840  17.497  0.00  0.00    +0.000 OA
ATOM     29  H   UNL     1      48.603   2.983  18.756  0.00  0.00    +0.000 HD
ATOM     30  H   UNL     1      49.365   4.059  17.598  0.00  0.00    +0.000 HD
ENDBRANCH  20  27
ENDBRANCH  18  23
ENDBRANCH   1  18
TORSDOF 6
ENDMDL
MODEL 3
REMARK VINA RESULT:    -9.169      2.706      3.950
REMARK INTER + INTRA:         -11.902
REMARK INTER:                 -11.634
REMARK INTRA:                  -0.269
REMARK UNBOUND:                 0.215
REMARK  Name = 
REMARK  6 active torsions:
REMARK  status: ('A' for Active; 'I' for Inactive)
REMARK    1  A    between atoms: C_2  and  C_4
REMARK    2  A    between atoms: C_7  and  N_8
REMARK    3  A    between atoms: N_8  and  C_9
REMARK    4  A    between atoms: C_9  and  C_10
REMARK    5  A    between atoms: C_12  and  C_13
REMARK    6  A    between atoms: C_17  and  O_18
REMARK                            x       y       z     vdW  Elec       q    Type
REMARK                         _______ _______ _______ _____ _____    ______ ____
ROOT
ATOM      1  C   UNL     1      43.945   4.771  11.347  0.00  0.00    +0.000 C 
ATOM      2  C   UNL     1      43.035   3.755  12.025  0.00  0.00    +0.000 C 
ATOM      3  C   UNL     1      42.715   5.209  12.125  0.00  0.00    +0.000 C 
ENDROOT
BRANCH   1   4
ATOM      4  C   UNL     1      45.323   5.064  11.950  0.00  0.00    +0.000 A 
ATOM      5  C   UNL     1      45.953   6.269  11.642  0.00  0.00    +0.000 A 
ATOM      6  C   UNL     1      47.091   6.703  12.328  0.00  0.00    +0.000 A 
ATOM      7  C   UNL     1      47.605   5.835  13.296  0.00  0.00    +0.000 A 
ATOM      8  C   UNL     1      46.971   4.622  13.517  0.00  0.00    +0.000 A 
ATOM      9  N   UNL     1      45.853   4.221  12.875  0.00  0.00    +0.000 NA
BRANCH   6  10
ATOM     10  C   UNL     1      47.667   8.033  12.061  0.00  0.00    +0.000 A 
ATOM     11  C   UNL     1      46.908   9.208  12.195  0.00  0.00    +0.000 A 
ATOM     12  N   UNL     1      47.358  10.464  11.961  0.00  0.00    +0.000 NA
ATOM     13  C   UNL     1      48.643  10.574  11.579  0.00  0.00    +0.000 A 
ATOM     14  C   UNL     1      49.489   9.489  11.422  0.00  0.00    +0.000 A 
ATOM     15  C   UNL     1      48.997   8.212  11.660  0.00  0.00    +0.000 A 
BRANCH  14  16
ATOM     16  O   UNL     1      50.789   9.613  11.041  0.00  0.00    +0.000 OA
ATOM     17  H   UNL     1      51.014  10.557  10.985  0.00  0.00    +0.000 HD
ENDBRANCH  14  16
ENDBRANCH   6  10
ENDBRANCH   1   4
BRANCH   1  18
ATOM     18  N   UNL     1      43.946   4.868   9.867  0.00  0.00    +0.000 N 
ATOM     19  H   UNL     1      43.046   5.003   9.426  0.00  0.00    +0.000 HD
BRANCH  18  23
ATOM     20  C   UNL     1      46.442   2.403   7.697  0.00  0.00    +0.000 A 
ATOM     21  C   UNL     1      46.443   3.771   7.483  0.00  0.00    +0.000 A 
ATOM     22  N   UNL     1      45.625   4.620   8.165  0.00  0.00    +0.000 NA
ATOM     23  C   UNL     1      44.817   4.068   9.100  0.00  0.00    +0.000 A 
ATOM     24  C   UNL     1      44.812   2.676   9.276  0.00  0.00    +0.000 A 
ATOM     25  N   UNL     1      45.613   1.809   8.597  0.00  0.00    +0.000 NA
BRANCH  20  27
ATOM     26  N   UNL     1      48.531   2.136   6.489  0.00  0.00    +0.000 N 
ATOM     27  C   UNL     1      47.380   1.539   6.927  0.00  0.00    +0.000 C 
ATOM     28  O   UNL     1      47.142   0.360   6.700  0.00  0.00    +0.000 OA
ATOM     29  H   UNL     1      49.216   1.577   5.999  0.00  0.00    +0.000 HD
ATOM     30  H   UNL     1      48.741   3.094   6.741  0.00  0.00    +0.000 HD
ENDBRANCH  20  27
ENDBRANCH  18  23
ENDBRANCH   1  18
TORSDOF 6
ENDMDL
MODEL 4
REMARK VINA RESULT:    -8.130      2.794      3.356
REMARK INTER + INTRA:         -10.529
REMARK INTER:                 -10.520
REMARK INTRA:                  -0.009
REMARK UNBOUND:                 0.215
REMARK  Name = 
REMARK  6 active torsions:
REMARK  status: ('A' for Active; 'I' for Inactive)
REMARK    1  A    between atoms: C_2  and  C_4
REMARK    2  A    between atoms: C_7  and  N_8
REMARK    3  A    between atoms: N_8  and  C_9
REMARK    4  A    between atoms: C_9  and  C_10
REMARK    5  A    between atoms: C_12  and  C_13
REMARK    6  A    between atoms: C_17  and  O_18
REMARK                            x       y       z     vdW  Elec       q    Type
REMARK                         _______ _______ _______ _____ _____    ______ ____
ROOT
ATOM      1  C   UNL     1      44.223   4.395  11.574  0.00  0.00    +0.000 C 
ATOM      2  C   UNL     1      44.850   3.282  12.402  0.00  0.00    +0.000 C 
ATOM      3  C   UNL     1      43.462   3.734  12.712  0.00  0.00    +0.000 C 
ENDROOT
BRANCH   1   4
ATOM      4  C   UNL     1      44.705   5.837  11.768  0.00  0.00    +0.000 A 
ATOM      5  C   UNL     1      46.011   6.060  12.202  0.00  0.00    +0.000 A 
ATOM      6  C   UNL     1      46.588   7.333  12.181  0.00  0.00    +0.000 A 
ATOM      7  C   UNL     1      45.766   8.383  11.762  0.00  0.00    +0.000 A 
ATOM      8  C   UNL     1      44.456   8.110  11.399  0.00  0.00    +0.000 A 
ATOM      9  N   UNL     1      43.913   6.875  11.391  0.00  0.00    +0.000 NA
BRANCH   6  10
ATOM     10  C   UNL     1      48.006   7.521  12.536  0.00  0.00    +0.000 A 
ATOM     11  C   UNL     1      48.523   7.085  13.767  0.00  0.00    +0.000 A 
ATOM     12  N   UNL     1      49.808   7.226  14.173  0.00  0.00    +0.000 NA
ATOM     13  C   UNL     1      50.642   7.827  13.306  0.00  0.00    +0.000 A 
ATOM     14  C   UNL     1      50.249   8.291  12.062  0.00  0.00    +0.000 A 
ATOM     15  C   UNL     1      48.923   8.140  11.677  0.00  0.00    +0.000 A 
BRANCH  14  16
ATOM     16  O   UNL     1      51.104   8.892  11.191  0.00  0.00    +0.000 OA
ATOM     17  H   UNL     1      50.591   9.289  10.468  0.00  0.00    +0.000 HD
ENDBRANCH  14  16
ENDBRANCH   6  10
ENDBRANCH   1   4
BRANCH   1  18
ATOM     18  N   UNL     1      43.825   4.118  10.172  0.00  0.00    +0.000 N 
ATOM     19  H   UNL     1      42.923   3.680  10.041  0.00  0.00    +0.000 HD
BRANCH  18  23
ATOM     20  C   UNL     1      46.608   2.731   7.461  0.00  0.00    +0.000 A 
ATOM     21  C   UNL     1      46.311   4.081   7.538  0.00  0.00    +0.000 A 
ATOM     22  N   UNL     1      45.389   4.581   8.406  0.00  0.00    +0.000 NA
ATOM     23  C   UNL     1      44.783   3.693   9.229  0.00  0.00    +0.000 A 
ATOM     24  C   UNL     1      45.078   2.327   9.111  0.00  0.00    +0.000 A 
ATOM     25  N   UNL     1      45.989   1.805   8.242  0.00  0.00    +0.000 NA
BRANCH  20  27
ATOM     26  N   UNL     1      47.820   3.023   5.378  0.00  0.00    +0.000 N 
ATOM     27  C   UNL     1      47.645   2.261   6.501  0.00  0.00    +0.000 C 
ATOM     28  O   UNL     1      48.309   1.251   6.701  0.00  0.00    +0.000 OA
ATOM     29  H   UNL     1      48.542   2.766   4.719  0.00  0.00    +0.000 HD
ATOM     30  H   UNL     1      47.307   3.889   5.260  0.00  0.00    +0.000 HD
ENDBRANCH  20  27
ENDBRANCH  18  23
ENDBRANCH   1  18
TORSDOF 6
ENDMDL
MODEL 5
REMARK VINA RESULT:    -8.109      1.807      7.668
REMARK INTER + INTRA:         -10.502
REMARK INTER:                  -9.817
REMARK INTRA:                  -0.685
REMARK UNBOUND:                 0.215
REMARK  Name = 
REMARK  6 active torsions:
REMARK  status: ('A' for Active; 'I' for Inactive)
REMARK    1  A    between atoms: C_2  and  C_4
REMARK    2  A    between atoms: C_7  and  N_8
REMARK    3  A    between atoms: N_8  and  C_9
REMARK    4  A    between atoms: C_9  and  C_10
REMARK    5  A    between atoms: C_12  and  C_13
REMARK    6  A    between atoms: C_17  and  O_18
REMARK                            x       y       z     vdW  Elec       q    Type
REMARK                         _______ _______ _______ _____ _____    ______ ____
ROOT
ATOM      1  C   UNL     1      47.601   7.824  12.588  0.00  0.00    +0.000 C 
ATOM      2  C   UNL     1      48.113   9.067  11.872  0.00  0.00    +0.000 C 
ATOM      3  C   UNL     1      47.501   9.200  13.226  0.00  0.00    +0.000 C 
ENDROOT
BRANCH   1   4
ATOM      4  C   UNL     1      46.310   7.156  12.103  0.00  0.00    +0.000 A 
ATOM      5  C   UNL     1      46.372   6.265  11.033  0.00  0.00    +0.000 A 
ATOM      6  C   UNL     1      45.289   5.451  10.688  0.00  0.00    +0.000 A 
ATOM      7  C   UNL     1      44.118   5.623  11.431  0.00  0.00    +0.000 A 
ATOM      8  C   UNL     1      44.096   6.569  12.444  0.00  0.00    +0.000 A 
ATOM      9  N   UNL     1      45.154   7.330  12.795  0.00  0.00    +0.000 NA
BRANCH   6  10
ATOM     10  C   UNL     1      45.421   4.436   9.627  0.00  0.00    +0.000 A 
ATOM     11  C   UNL     1      44.922   3.132   9.786  0.00  0.00    +0.000 A 
ATOM     12  N   UNL     1      45.009   2.141   8.866  0.00  0.00    +0.000 NA
ATOM     13  C   UNL     1      45.620   2.455   7.710  0.00  0.00    +0.000 A 
ATOM     14  C   UNL     1      46.143   3.708   7.437  0.00  0.00    +0.000 A 
ATOM     15  C   UNL     1      46.047   4.702   8.403  0.00  0.00    +0.000 A 
BRANCH  14  16
ATOM     16  O   UNL     1      46.753   4.016   6.261  0.00  0.00    +0.000 OA
ATOM     17  H   UNL     1      47.481   3.391   6.109  0.00  0.00    +0.000 HD
ENDBRANCH  14  16
ENDBRANCH   6  10
ENDBRANCH   1   4
BRANCH   1  18
ATOM     18  N   UNL     1      48.578   6.843  13.121  0.00  0.00    +0.000 N 
ATOM     19  H   UNL     1      49.151   6.365  12.439  0.00  0.00    +0.000 HD
BRANCH  18  23
ATOM     20  C   UNL     1      47.667   4.560  16.434  0.00  0.00    +0.000 A 
ATOM     21  C   UNL     1      47.252   4.169  15.172  0.00  0.00    +0.000 A 
ATOM     22  N   UNL     1      47.516   4.898  14.054  0.00  0.00    +0.000 NA
ATOM     23  C   UNL     1      48.242   6.029  14.222  0.00  0.00    +0.000 A 
ATOM     24  C   UNL     1      48.624   6.421  15.513  0.00  0.00    +0.000 A 
ATOM     25  N   UNL     1      48.360   5.711  16.646  0.00  0.00    +0.000 NA
BRANCH  20  27
ATOM     26  N   UNL     1      48.076   3.945  18.747  0.00  0.00    +0.000 N 
ATOM     27  C   UNL     1      47.358   3.698  17.609  0.00  0.00    +0.000 C 
ATOM     28  O   UNL     1      46.506   2.819  17.565  0.00  0.00    +0.000 OA
ATOM     29  H   UNL     1      47.870   3.413  19.581  0.00  0.00    +0.000 HD
ATOM     30  H   UNL     1      48.731   4.717  18.784  0.00  0.00    +0.000 HD
ENDBRANCH  20  27
ENDBRANCH  18  23
ENDBRANCH   1  18
TORSDOF 6
ENDMDL
MODEL 6
REMARK VINA RESULT:    -7.609      2.303      7.258
REMARK INTER + INTRA:          -9.841
REMARK INTER:                  -9.571
REMARK INTRA:                  -0.270
REMARK UNBOUND:                 0.215
REMARK  Name = 
REMARK  6 active torsions:
REMARK  status: ('A' for Active; 'I' for Inactive)
REMARK    1  A    between atoms: C_2  and  C_4
REMARK    2  A    between atoms: C_7  and  N_8
REMARK    3  A    between atoms: N_8  and  C_9
REMARK    4  A    between atoms: C_9  and  C_10
REMARK    5  A    between atoms: C_12  and  C_13
REMARK    6  A    between atoms: C_17  and  O_18
REMARK                            x       y       z     vdW  Elec       q    Type
REMARK                         _______ _______ _______ _____ _____    ______ ____
ROOT
ATOM      1  C   UNL     1      48.065   8.164  12.934  0.00  0.00    +0.000 C 
ATOM      2  C   UNL     1      48.912   9.404  12.680  0.00  0.00    +0.000 C 
ATOM      3  C   UNL     1      48.163   9.277  13.964  0.00  0.00    +0.000 C 
ENDROOT
BRANCH   1   4
ATOM      4  C   UNL     1      46.742   7.991  12.181  0.00  0.00    +0.000 A 
ATOM      5  C   UNL     1      46.439   6.749  11.625  0.00  0.00    +0.000 A 
ATOM      6  C   UNL     1      45.165   6.453  11.130  0.00  0.00    +0.000 A 
ATOM      7  C   UNL     1      44.228   7.490  11.161  0.00  0.00    +0.000 A 
ATOM      8  C   UNL     1      44.605   8.724  11.669  0.00  0.00    +0.000 A 
ATOM      9  N   UNL     1      45.826   8.995  12.176  0.00  0.00    +0.000 NA
BRANCH   6  10
ATOM     10  C   UNL     1      44.840   5.096  10.655  0.00  0.00    +0.000 A 
ATOM     11  C   UNL     1      45.318   4.609   9.427  0.00  0.00    +0.000 A 
ATOM     12  N   UNL     1      45.059   3.381   8.916  0.00  0.00    +0.000 NA
ATOM     13  C   UNL     1      44.287   2.575   9.666  0.00  0.00    +0.000 A 
ATOM     14  C   UNL     1      43.767   2.943  10.896  0.00  0.00    +0.000 A 
ATOM     15  C   UNL     1      44.041   4.211  11.390  0.00  0.00    +0.000 A 
BRANCH  14  16
ATOM     16  O   UNL     1      42.993   2.116  11.650  0.00  0.00    +0.000 OA
ATOM     17  H   UNL     1      43.330   1.208  11.570  0.00  0.00    +0.000 HD
ENDBRANCH  14  16
ENDBRANCH   6  10
ENDBRANCH   1   4
BRANCH   1  18
ATOM     18  N   UNL     1      48.739   6.868  13.194  0.00  0.00    +0.000 N 
ATOM     19  H   UNL     1      48.949   6.301  12.383  0.00  0.00    +0.000 HD
BRANCH  18  23
ATOM     20  C   UNL     1      47.632   4.548  16.421  0.00  0.00    +0.000 A 
ATOM     21  C   UNL     1      48.624   5.506  16.548  0.00  0.00    +0.000 A 
ATOM     22  N   UNL     1      49.032   6.283  15.507  0.00  0.00    +0.000 NA
ATOM     23  C   UNL     1      48.396   6.100  14.326  0.00  0.00    +0.000 A 
ATOM     24  C   UNL     1      47.418   5.102  14.213  0.00  0.00    +0.000 A 
ATOM     25  N   UNL     1      47.004   4.307  15.239  0.00  0.00    +0.000 NA
BRANCH  20  27
ATOM     26  N   UNL     1      47.839   4.067  18.791  0.00  0.00    +0.000 N 
ATOM     27  C   UNL     1      47.225   3.750  17.610  0.00  0.00    +0.000 C 
ATOM     28  O   UNL     1      46.384   2.862  17.542  0.00  0.00    +0.000 OA
ATOM     29  H   UNL     1      47.563   3.580  19.633  0.00  0.00    +0.000 HD
ATOM     30  H   UNL     1      48.484   4.847  18.841  0.00  0.00    +0.000 HD
ENDBRANCH  20  27
ENDBRANCH  18  23
ENDBRANCH   1  18
TORSDOF 6
ENDMDL
MODEL 7
REMARK VINA RESULT:    -7.603      3.720      8.267
REMARK INTER + INTRA:          -9.832
REMARK INTER:                  -9.922
REMARK INTRA:                   0.090
REMARK UNBOUND:                 0.215
REMARK  Name = 
REMARK  6 active torsions:
REMARK  status: ('A' for Active; 'I' for Inactive)
REMARK    1  A    between atoms: C_2  and  C_4
REMARK    2  A    between atoms: C_7  and  N_8
REMARK    3  A    between atoms: N_8  and  C_9
REMARK    4  A    between atoms: C_9  and  C_10
REMARK    5  A    between atoms: C_12  and  C_13
REMARK    6  A    between atoms: C_17  and  O_18
REMARK                            x       y       z     vdW  Elec       q    Type
REMARK                         _______ _______ _______ _____ _____    ______ ____
ROOT
ATOM      1  C   UNL     1      48.230   4.680  16.949  0.00  0.00    +0.000 C 
ATOM      2  C   UNL     1      47.105   4.781  17.970  0.00  0.00    +0.000 C 
ATOM      3  C   UNL     1      47.449   3.452  17.386  0.00  0.00    +0.000 C 
ENDROOT
BRANCH   1   4
ATOM      4  C   UNL     1      48.004   5.212  15.530  0.00  0.00    +0.000 A 
ATOM      5  C   UNL     1      46.923   4.731  14.792  0.00  0.00    +0.000 A 
ATOM      6  C   UNL     1      46.523   5.330  13.594  0.00  0.00    +0.000 A 
ATOM      7  C   UNL     1      47.302   6.398  13.139  0.00  0.00    +0.000 A 
ATOM      8  C   UNL     1      48.402   6.793  13.884  0.00  0.00    +0.000 A 
ATOM      9  N   UNL     1      48.766   6.233  15.058  0.00  0.00    +0.000 NA
BRANCH   6  10
ATOM     10  C   UNL     1      45.308   4.873  12.896  0.00  0.00    +0.000 A 
ATOM     11  C   UNL     1      45.177   3.555  12.426  0.00  0.00    +0.000 A 
ATOM     12  N   UNL     1      44.101   3.060  11.769  0.00  0.00    +0.000 NA
ATOM     13  C   UNL     1      43.081   3.914  11.569  0.00  0.00    +0.000 A 
ATOM     14  C   UNL     1      43.093   5.232  11.994  0.00  0.00    +0.000 A 
ATOM     15  C   UNL     1      44.214   5.715  12.657  0.00  0.00    +0.000 A 
BRANCH  14  16
ATOM     16  O   UNL     1      42.053   6.085  11.792  0.00  0.00    +0.000 OA
ATOM     17  H   UNL     1      41.400   5.960  12.500  0.00  0.00    +0.000 HD
ENDBRANCH  14  16
ENDBRANCH   6  10
ENDBRANCH   1   4
BRANCH   1  18
ATOM     18  N   UNL     1      49.633   4.851  17.399  0.00  0.00    +0.000 N 
ATOM     19  H   UNL     1      50.102   5.694  17.095  0.00  0.00    +0.000 HD
BRANCH  18  23
ATOM     20  C   UNL     1      52.264   1.687  17.695  0.00  0.00    +0.000 A 
ATOM     21  C   UNL     1      51.033   1.526  17.081  0.00  0.00    +0.000 A 
ATOM     22  N   UNL     1      50.128   2.537  16.974  0.00  0.00    +0.000 NA
ATOM     23  C   UNL     1      50.497   3.739  17.475  0.00  0.00    +0.000 A 
ATOM     24  C   UNL     1      51.735   3.870  18.121  0.00  0.00    +0.000 A 
ATOM     25  N   UNL     1      52.650   2.868  18.248  0.00  0.00    +0.000 NA
BRANCH  20  27
ATOM     26  N   UNL     1      52.789  -0.558  18.458  0.00  0.00    +0.000 N 
ATOM     27  C   UNL     1      53.210   0.539  17.755  0.00  0.00    +0.000 C 
ATOM     28  O   UNL     1      54.304   0.567  17.205  0.00  0.00    +0.000 OA
ATOM     29  H   UNL     1      53.381  -1.376  18.489  0.00  0.00    +0.000 HD
ATOM     30  H   UNL     1      51.857  -0.587  18.852  0.00  0.00    +0.000 HD
ENDBRANCH  20  27
ENDBRANCH  18  23
ENDBRANCH   1  18
TORSDOF 6
ENDMDL
MODEL 8
REMARK VINA RESULT:    -7.443      2.800      4.547
REMARK INTER + INTRA:          -9.621
REMARK INTER:                  -9.028
REMARK INTRA:                  -0.593
REMARK UNBOUND:                 0.215
REMARK  Name = 
REMARK  6 active torsions:
REMARK  status: ('A' for Active; 'I' for Inactive)
REMARK    1  A    between atoms: C_2  and  C_4
REMARK    2  A    between atoms: C_7  and  N_8
REMARK    3  A    between atoms: N_8  and  C_9
REMARK    4  A    between atoms: C_9  and  C_10
REMARK    5  A    between atoms: C_12  and  C_13
REMARK    6  A    between atoms: C_17  and  O_18
REMARK                            x       y       z     vdW  Elec       q    Type
REMARK                         _______ _______ _______ _____ _____    ______ ____
ROOT
ATOM      1  C   UNL     1      48.101   8.115  12.574  0.00  0.00    +0.000 C 
ATOM      2  C   UNL     1      49.124   8.879  11.743  0.00  0.00    +0.000 C 
ATOM      3  C   UNL     1      49.144   7.387  11.742  0.00  0.00    +0.000 C 
ENDROOT
BRANCH   1   4
ATOM      4  C   UNL     1      48.244   8.086  14.099  0.00  0.00    +0.000 A 
ATOM      5  C   UNL     1      48.243   6.855  14.754  0.00  0.00    +0.000 A 
ATOM      6  C   UNL     1      48.596   6.736  16.101  0.00  0.00    +0.000 A 
ATOM      7  C   UNL     1      48.889   7.924  16.777  0.00  0.00    +0.000 A 
ATOM      8  C   UNL     1      48.814   9.125  16.089  0.00  0.00    +0.000 A 
ATOM      9  N   UNL     1      48.504   9.233  14.779  0.00  0.00    +0.000 NA
BRANCH   6  10
ATOM     10  C   UNL     1      48.698   5.410  16.736  0.00  0.00    +0.000 A 
ATOM     11  C   UNL     1      49.932   4.881  17.149  0.00  0.00    +0.000 A 
ATOM     12  N   UNL     1      50.112   3.671  17.731  0.00  0.00    +0.000 NA
ATOM     13  C   UNL     1      49.004   2.935  17.928  0.00  0.00    +0.000 A 
ATOM     14  C   UNL     1      47.734   3.355  17.571  0.00  0.00    +0.000 A 
ATOM     15  C   UNL     1      47.581   4.596  16.967  0.00  0.00    +0.000 A 
BRANCH  14  16
ATOM     16  O   UNL     1      46.619   2.604  17.781  0.00  0.00    +0.000 OA
ATOM     17  H   UNL     1      46.570   2.368  18.722  0.00  0.00    +0.000 HD
ENDBRANCH  14  16
ENDBRANCH   6  10
ENDBRANCH   1   4
BRANCH   1  18
ATOM     18  N   UNL     1      46.683   8.101  12.140  0.00  0.00    +0.000 N 
ATOM     19  H   UNL     1      46.083   8.808  12.543  0.00  0.00    +0.000 HD
BRANCH  18  23
ATOM     20  C   UNL     1      44.687   4.524  11.646  0.00  0.00    +0.000 A 
ATOM     21  C   UNL     1      45.380   5.096  10.592  0.00  0.00    +0.000 A 
ATOM     22  N   UNL     1      46.039   6.282  10.705  0.00  0.00    +0.000 NA
ATOM     23  C   UNL     1      46.017   6.877  11.921  0.00  0.00    +0.000 A 
ATOM     24  C   UNL     1      45.282   6.295  12.964  0.00  0.00    +0.000 A 
ATOM     25  N   UNL     1      44.607   5.115  12.868  0.00  0.00    +0.000 NA
BRANCH  20  27
ATOM     26  N   UNL     1      43.727   2.502  12.586  0.00  0.00    +0.000 N 
ATOM     27  C   UNL     1      44.007   3.213  11.451  0.00  0.00    +0.000 C 
ATOM     28  O   UNL     1      43.709   2.793  10.340  0.00  0.00    +0.000 OA
ATOM     29  H   UNL     1      43.228   1.627  12.504  0.00  0.00    +0.000 HD
ATOM     30  H   UNL     1      43.923   2.894  13.499  0.00  0.00    +0.000 HD
ENDBRANCH  20  27
ENDBRANCH  18  23
ENDBRANCH   1  18
TORSDOF 6
ENDMDL
MODEL 9
REMARK VINA RESULT:    -7.401      2.269      7.600
REMARK INTER + INTRA:          -9.565
REMARK INTER:                  -8.893
REMARK INTRA:                  -0.672
REMARK UNBOUND:                 0.215
REMARK  Name = 
REMARK  6 active torsions:
REMARK  status: ('A' for Active; 'I' for Inactive)
REMARK    1  A    between atoms: C_2  and  C_4
REMARK    2  A    between atoms: C_7  and  N_8
REMARK    3  A    between atoms: N_8  and  C_9
REMARK    4  A    between atoms: C_9  and  C_10
REMARK    5  A    between atoms: C_12  and  C_13
REMARK    6  A    between atoms: C_17  and  O_18
REMARK                            x       y       z     vdW  Elec       q    Type
REMARK                         _______ _______ _______ _____ _____    ______ ____
ROOT
ATOM      1  C   UNL     1      44.269   5.916  11.400  0.00  0.00    +0.000 C 
ATOM      2  C   UNL     1      43.067   6.852  11.408  0.00  0.00    +0.000 C 
ATOM      3  C   UNL     1      43.553   6.269  12.693  0.00  0.00    +0.000 C 
ENDROOT
BRANCH   1   4
ATOM      4  C   UNL     1      44.109   4.495  10.850  0.00  0.00    +0.000 A 
ATOM      5  C   UNL     1      44.841   4.121   9.723  0.00  0.00    +0.000 A 
ATOM      6  C   UNL     1      44.923   2.789   9.305  0.00  0.00    +0.000 A 
ATOM      7  C   UNL     1      44.181   1.859  10.039  0.00  0.00    +0.000 A 
ATOM      8  C   UNL     1      43.423   2.298  11.113  0.00  0.00    +0.000 A 
ATOM      9  N   UNL     1      43.372   3.580  11.533  0.00  0.00    +0.000 NA
BRANCH   6  10
ATOM     10  C   UNL     1      45.796   2.408   8.181  0.00  0.00    +0.000 A 
ATOM     11  C   UNL     1      46.394   1.139   8.107  0.00  0.00    +0.000 A 
ATOM     12  N   UNL     1      47.213   0.714   7.115  0.00  0.00    +0.000 NA
ATOM     13  C   UNL     1      47.453   1.591   6.125  0.00  0.00    +0.000 A 
ATOM     14  C   UNL     1      46.913   2.866   6.085  0.00  0.00    +0.000 A 
ATOM     15  C   UNL     1      46.084   3.277   7.121  0.00  0.00    +0.000 A 
BRANCH  14  16
ATOM     16  O   UNL     1      47.157   3.742   5.074  0.00  0.00    +0.000 OA
ATOM     17  H   UNL     1      46.554   4.500   5.160  0.00  0.00    +0.000 HD
ENDBRANCH  14  16
ENDBRANCH   6  10
ENDBRANCH   1   4
BRANCH   1  18
ATOM     18  N   UNL     1      45.619   6.474  11.138  0.00  0.00    +0.000 N 
ATOM     19  H   UNL     1      46.066   6.182  10.280  0.00  0.00    +0.000 HD
BRANCH  18  23
ATOM     20  C   UNL     1      48.293   6.861  14.256  0.00  0.00    +0.000 A 
ATOM     21  C   UNL     1      47.819   7.979  13.590  0.00  0.00    +0.000 A 
ATOM     22  N   UNL     1      46.948   7.898  12.546  0.00  0.00    +0.000 NA
ATOM     23  C   UNL     1      46.531   6.658  12.197  0.00  0.00    +0.000 A 
ATOM     24  C   UNL     1      47.049   5.539  12.865  0.00  0.00    +0.000 A 
ATOM     25  N   UNL     1      47.930   5.599  13.903  0.00  0.00    +0.000 NA
BRANCH  20  27
ATOM     26  N   UNL     1      50.562   7.057  15.097  0.00  0.00    +0.000 N 
ATOM     27  C   UNL     1      49.228   7.031  15.402  0.00  0.00    +0.000 C 
ATOM     28  O   UNL     1      48.831   7.145  16.555  0.00  0.00    +0.000 OA
ATOM     29  H   UNL     1      51.230   7.213  15.839  0.00  0.00    +0.000 HD
ATOM     30  H   UNL     1      50.869   7.025  14.132  0.00  0.00    +0.000 HD
ENDBRANCH  20  27
ENDBRANCH  18  23
ENDBRANCH   1  18
TORSDOF 6
ENDMDL
