MODEL 1
REMARK VINA RESULT:    -9.162      0.000      0.000
REMARK INTER + INTRA:         -13.418
REMARK INTER:                 -12.375
REMARK INTRA:                  -1.043
REMARK UNBOUND:                -1.043
REMARK  Name = 
REMARK  6 active torsions:
REMARK  status: ('A' for Active; 'I' for Inactive)
REMARK    1  A    between atoms: C_2  and  C_4
REMARK    2  A    between atoms: N_8  and  C_9
REMARK    3  A    between atoms: C_9  and  C_10
REMARK    4  A    between atoms: C_10  and  C_13
REMARK    5  A    between atoms: C_17  and  O_18
REMARK    6  A    between atoms: O_18  and  C_19
REMARK                            x       y       z     vdW  Elec       q    Type
REMARK                         _______ _______ _______ _____ _____    ______ ____
ROOT
ATOM      1  C   UNL     1      43.291   4.370  11.060  0.00  0.00    +0.000 C 
ENDROOT
BRANCH   1   6
ATOM      2  C   UNL     1      46.528   2.642   7.442  0.00  0.00    +0.000 A 
ATOM      3  C   UNL     1      46.080   3.926   7.727  0.00  0.00    +0.000 A 
ATOM      4  C   UNL     1      45.170   4.112   8.770  0.00  0.00    +0.000 A 
ATOM      5  C   UNL     1      44.722   3.018   9.505  0.00  0.00    +0.000 A 
ATOM      6  N   UNL     1      43.846   3.122  10.550  0.00  0.00    +0.000 N 
ATOM      7  N   UNL     1      45.135   1.770   9.221  0.00  0.00    +0.000 NA
ATOM      8  C   UNL     1      46.016   1.599   8.198  0.00  0.00    +0.000 A 
ATOM      9  H   UNL     1      43.603   2.238  10.986  0.00  0.00    +0.000 HD
BRANCH   2  11
ATOM     10  N   UNL     1      47.521   3.197   5.296  0.00  0.00    +0.000 N 
ATOM     11  C   UNL     1      47.501   2.350   6.369  0.00  0.00    +0.000 C 
ATOM     12  O   UNL     1      48.279   1.408   6.448  0.00  0.00    +0.000 OA
ATOM     13  H   UNL     1      48.264   3.044   4.625  0.00  0.00    +0.000 HD
ATOM     14  H   UNL     1      47.085   4.107   5.312  0.00  0.00    +0.000 HD
ENDBRANCH   2  11
ENDBRANCH   1   6
BRANCH   1  15
ATOM     15  C   UNL     1      43.618   4.637  12.552  0.00  0.00    +0.000 C 
ATOM     16  F   UNL     1      42.684   5.495  13.060  0.00  0.00    +0.000 F 
ATOM     17  F   UNL     1      43.455   3.473  13.250  0.00  0.00    +0.000 F 
BRANCH  15  18
ATOM     18  C   UNL     1      45.023   5.186  12.693  0.00  0.00    +0.000 A 
ATOM     19  C   UNL     1      45.521   6.139  11.798  0.00  0.00    +0.000 A 
ATOM     20  C   UNL     1      46.804   6.626  11.992  0.00  0.00    +0.000 A 
ATOM     21  N   UNL     1      47.612   6.234  12.999  0.00  0.00    +0.000 NA
ATOM     22  C   UNL     1      47.117   5.310  13.846  0.00  0.00    +0.000 A 
ATOM     23  C   UNL     1      45.847   4.767  13.743  0.00  0.00    +0.000 A 
BRANCH  22  24
ATOM     24  O   UNL     1      47.891   4.879  14.906  0.00  0.00    +0.000 OA
BRANCH  24  25
ATOM     25  C   UNL     1      47.266   3.938  15.808  0.00  0.00    +0.000 C 
ATOM     26  C   UNL     1      47.172   4.369  17.291  0.00  0.00    +0.000 C 
ATOM     27  C   UNL     1      47.733   3.004  17.707  0.00  0.00    +0.000 C 
ATOM     28  C   UNL     1      48.191   2.783  16.260  0.00  0.00    +0.000 C 
ENDBRANCH  24  25
ENDBRANCH  22  24
ENDBRANCH  15  18
ENDBRANCH   1  15
TORSDOF 6
ENDMDL
MODEL 2
REMARK VINA RESULT:    -8.777      1.911      3.487
REMARK INTER + INTRA:         -12.898
REMARK INTER:                 -11.823
REMARK INTRA:                  -1.075
REMARK UNBOUND:                -1.043
REMARK  Name = 
REMARK  6 active torsions:
REMARK  status: ('A' for Active; 'I' for Inactive)
REMARK    1  A    between atoms: C_2  and  C_4
REMARK    2  A    between atoms: N_8  and  C_9
REMARK    3  A    between atoms: C_9  and  C_10
REMARK    4  A    between atoms: C_10  and  C_13
REMARK    5  A    between atoms: C_17  and  O_18
REMARK    6  A    between atoms: O_18  and  C_19
REMARK                            x       y       z     vdW  Elec       q    Type
REMARK                         _______ _______ _______ _____ _____    ______ ____
ROOT
ATOM      1  C   UNL     1      43.248   4.619  11.020  0.00  0.00    +0.000 C 
ENDROOT
BRANCH   1   6
ATOM      2  C   UNL     1      46.437   2.336   7.676  0.00  0.00    +0.000 A 
ATOM      3  C   UNL     1      45.754   1.830   8.777  0.00  0.00    +0.000 A 
ATOM      4  C   UNL     1      44.960   2.692   9.536  0.00  0.00    +0.000 A 
ATOM      5  C   UNL     1      44.861   4.035   9.188  0.00  0.00    +0.000 A 
ATOM      6  N   UNL     1      44.090   4.934   9.872  0.00  0.00    +0.000 N 
ATOM      7  N   UNL     1      45.535   4.535   8.137  0.00  0.00    +0.000 NA
ATOM      8  C   UNL     1      46.312   3.690   7.408  0.00  0.00    +0.000 A 
ATOM      9  H   UNL     1      44.123   5.882   9.508  0.00  0.00    +0.000 HD
BRANCH   2  11
ATOM     10  N   UNL     1      48.406   2.082   6.278  0.00  0.00    +0.000 N 
ATOM     11  C   UNL     1      47.288   1.499   6.806  0.00  0.00    +0.000 C 
ATOM     12  O   UNL     1      47.024   0.324   6.588  0.00  0.00    +0.000 OA
ATOM     13  H   UNL     1      49.031   1.465   5.773  0.00  0.00    +0.000 HD
ATOM     14  H   UNL     1      48.787   2.949   6.630  0.00  0.00    +0.000 HD
ENDBRANCH   2  11
ENDBRANCH   1   6
BRANCH   1  15
ATOM     15  C   UNL     1      43.517   5.513  12.258  0.00  0.00    +0.000 C 
ATOM     16  F   UNL     1      43.273   6.814  11.922  0.00  0.00    +0.000 F 
ATOM     17  F   UNL     1      42.596   5.211  13.222  0.00  0.00    +0.000 F 
BRANCH  15  18
ATOM     18  C   UNL     1      44.935   5.314  12.753  0.00  0.00    +0.000 A 
ATOM     19  C   UNL     1      45.408   4.045  13.105  0.00  0.00    +0.000 A 
ATOM     20  C   UNL     1      46.723   3.919  13.525  0.00  0.00    +0.000 A 
ATOM     21  N   UNL     1      47.585   4.953  13.618  0.00  0.00    +0.000 NA
ATOM     22  C   UNL     1      47.108   6.168  13.282  0.00  0.00    +0.000 A 
ATOM     23  C   UNL     1      45.815   6.399  12.844  0.00  0.00    +0.000 A 
BRANCH  22  24
ATOM     24  O   UNL     1      47.945   7.265  13.342  0.00  0.00    +0.000 OA
BRANCH  24  25
ATOM     25  C   UNL     1      48.133   7.991  12.106  0.00  0.00    +0.000 C 
ATOM     26  C   UNL     1      49.595   8.164  11.630  0.00  0.00    +0.000 C 
ATOM     27  C   UNL     1      49.328   9.658  11.405  0.00  0.00    +0.000 C 
ATOM     28  C   UNL     1      48.057   9.529  12.256  0.00  0.00    +0.000 C 
ENDBRANCH  24  25
ENDBRANCH  22  24
ENDBRANCH  15  18
ENDBRANCH   1  15
TORSDOF 6
ENDMDL
MODEL 3
REMARK VINA RESULT:    -8.336      1.847      2.273
REMARK INTER + INTRA:         -12.303
REMARK INTER:                 -11.753
REMARK INTRA:                  -0.551
REMARK UNBOUND:                -1.043
REMARK  Name = 
REMARK  6 active torsions:
REMARK  status: ('A' for Active; 'I' for Inactive)
REMARK    1  A    between atoms: C_2  and  C_4
REMARK    2  A    between atoms: N_8  and  C_9
REMARK    3  A    between atoms: C_9  and  C_10
REMARK    4  A    between atoms: C_10  and  C_13
REMARK    5  A    between atoms: C_17  and  O_18
REMARK    6  A    between atoms: O_18  and  C_19
REMARK                            x       y       z     vdW  Elec       q    Type
REMARK                         _______ _______ _______ _____ _____    ______ ____
ROOT
ATOM      1  C   UNL     1      43.198   4.679  11.005  0.00  0.00    +0.000 C 
ENDROOT
BRANCH   1   6
ATOM      2  C   UNL     1      46.504   2.498   7.707  0.00  0.00    +0.000 A 
ATOM      3  C   UNL     1      45.636   1.935   8.636  0.00  0.00    +0.000 A 
ATOM      4  C   UNL     1      44.854   2.776   9.431  0.00  0.00    +0.000 A 
ATOM      5  C   UNL     1      44.951   4.156   9.288  0.00  0.00    +0.000 A 
ATOM      6  N   UNL     1      44.206   5.042  10.017  0.00  0.00    +0.000 N 
ATOM      7  N   UNL     1      45.803   4.708   8.405  0.00  0.00    +0.000 NA
ATOM      8  C   UNL     1      46.566   3.882   7.642  0.00  0.00    +0.000 A 
ATOM      9  H   UNL     1      44.391   6.019   9.811  0.00  0.00    +0.000 HD
BRANCH   2  11
ATOM     10  N   UNL     1      48.439   2.311   6.251  0.00  0.00    +0.000 N 
ATOM     11  C   UNL     1      47.358   1.690   6.813  0.00  0.00    +0.000 C 
ATOM     12  O   UNL     1      47.129   0.506   6.604  0.00  0.00    +0.000 OA
ATOM     13  H   UNL     1      49.070   1.716   5.730  0.00  0.00    +0.000 HD
ATOM     14  H   UNL     1      48.799   3.191   6.591  0.00  0.00    +0.000 HD
ENDBRANCH   2  11
ENDBRANCH   1   6
BRANCH   1  15
ATOM     15  C   UNL     1      43.749   4.564  12.450  0.00  0.00    +0.000 C 
ATOM     16  F   UNL     1      42.708   4.678  13.327  0.00  0.00    +0.000 F 
ATOM     17  F   UNL     1      44.236   3.300  12.632  0.00  0.00    +0.000 F 
BRANCH  15  18
ATOM     18  C   UNL     1      44.810   5.617  12.694  0.00  0.00    +0.000 A 
ATOM     19  C   UNL     1      44.593   6.957  12.353  0.00  0.00    +0.000 A 
ATOM     20  C   UNL     1      45.590   7.881  12.625  0.00  0.00    +0.000 A 
ATOM     21  N   UNL     1      46.769   7.568  13.202  0.00  0.00    +0.000 NA
ATOM     22  C   UNL     1      46.961   6.272  13.515  0.00  0.00    +0.000 A 
ATOM     23  C   UNL     1      46.027   5.273  13.292  0.00  0.00    +0.000 A 
BRANCH  22  24
ATOM     24  O   UNL     1      48.142   5.889  14.122  0.00  0.00    +0.000 OA
BRANCH  24  25
ATOM     25  C   UNL     1      48.769   6.876  14.973  0.00  0.00    +0.000 C 
ATOM     26  C   UNL     1      50.097   7.479  14.459  0.00  0.00    +0.000 C 
ATOM     27  C   UNL     1      50.727   7.222  15.833  0.00  0.00    +0.000 C 
ATOM     28  C   UNL     1      49.562   6.278  16.159  0.00  0.00    +0.000 C 
ENDBRANCH  24  25
ENDBRANCH  22  24
ENDBRANCH  15  18
ENDBRANCH   1  15
TORSDOF 6
ENDMDL
MODEL 4
REMARK VINA RESULT:    -8.321      2.398      2.980
REMARK INTER + INTRA:         -12.282
REMARK INTER:                 -11.178
REMARK INTRA:                  -1.105
REMARK UNBOUND:                -1.043
REMARK  Name = 
REMARK  6 active torsions:
REMARK  status: ('A' for Active; 'I' for Inactive)
REMARK    1  A    between atoms: C_2  and  C_4
REMARK    2  A    between atoms: N_8  and  C_9
REMARK    3  A    between atoms: C_9  and  C_10
REMARK    4  A    between atoms: C_10  and  C_13
REMARK    5  A    between atoms: C_17  and  O_18
REMARK    6  A    between atoms: O_18  and  C_19
REMARK                            x       y       z     vdW  Elec       q    Type
REMARK                         _______ _______ _______ _____ _____    ______ ____
ROOT
ATOM      1  C   UNL     1      43.397   3.550  11.287  0.00  0.00    +0.000 C 
ENDROOT
BRANCH   1   6
ATOM      2  C   UNL     1      46.517   2.714   7.272  0.00  0.00    +0.000 A 
ATOM      3  C   UNL     1      45.926   3.881   7.740  0.00  0.00    +0.000 A 
ATOM      4  C   UNL     1      45.092   3.818   8.858  0.00  0.00    +0.000 A 
ATOM      5  C   UNL     1      44.861   2.598   9.486  0.00  0.00    +0.000 A 
ATOM      6  N   UNL     1      44.071   2.459  10.594  0.00  0.00    +0.000 N 
ATOM      7  N   UNL     1      45.414   1.461   9.025  0.00  0.00    +0.000 NA
ATOM      8  C   UNL     1      46.218   1.532   7.931  0.00  0.00    +0.000 A 
ATOM      9  H   UNL     1      43.988   1.507  10.936  0.00  0.00    +0.000 HD
BRANCH   2  11
ATOM     10  N   UNL     1      48.737   2.381   6.344  0.00  0.00    +0.000 N 
ATOM     11  C   UNL     1      47.426   2.685   6.107  0.00  0.00    +0.000 C 
ATOM     12  O   UNL     1      47.019   2.893   4.971  0.00  0.00    +0.000 OA
ATOM     13  H   UNL     1      49.320   2.261   5.525  0.00  0.00    +0.000 HD
ATOM     14  H   UNL     1      49.052   1.963   7.208  0.00  0.00    +0.000 HD
ENDBRANCH   2  11
ENDBRANCH   1   6
BRANCH   1  15
ATOM     15  C   UNL     1      44.162   4.067  12.533  0.00  0.00    +0.000 C 
ATOM     16  F   UNL     1      43.344   3.968  13.623  0.00  0.00    +0.000 F 
ATOM     17  F   UNL     1      45.204   3.220  12.787  0.00  0.00    +0.000 F 
BRANCH  15  18
ATOM     18  C   UNL     1      44.633   5.489  12.309  0.00  0.00    +0.000 A 
ATOM     19  C   UNL     1      43.901   6.377  11.513  0.00  0.00    +0.000 A 
ATOM     20  C   UNL     1      44.366   7.675  11.366  0.00  0.00    +0.000 A 
ATOM     21  N   UNL     1      45.492   8.140  11.947  0.00  0.00    +0.000 NA
ATOM     22  C   UNL     1      46.187   7.267  12.703  0.00  0.00    +0.000 A 
ATOM     23  C   UNL     1      45.803   5.954  12.919  0.00  0.00    +0.000 A 
BRANCH  22  24
ATOM     24  O   UNL     1      47.340   7.687  13.336  0.00  0.00    +0.000 OA
BRANCH  24  25
ATOM     25  C   UNL     1      48.578   7.134  12.836  0.00  0.00    +0.000 C 
ATOM     26  C   UNL     1      49.879   7.698  13.455  0.00  0.00    +0.000 C 
ATOM     27  C   UNL     1      50.451   7.882  12.044  0.00  0.00    +0.000 C 
ATOM     28  C   UNL     1      49.034   7.720  11.479  0.00  0.00    +0.000 C 
ENDBRANCH  24  25
ENDBRANCH  22  24
ENDBRANCH  15  18
ENDBRANCH   1  15
TORSDOF 6
ENDMDL
MODEL 5
REMARK VINA RESULT:    -8.129      2.082      3.952
REMARK INTER + INTRA:         -12.023
REMARK INTER:                 -11.099
REMARK INTRA:                  -0.924
REMARK UNBOUND:                -1.043
REMARK  Name = 
REMARK  6 active torsions:
REMARK  status: ('A' for Active; 'I' for Inactive)
REMARK    1  A    between atoms: C_2  and  C_4
REMARK    2  A    between atoms: N_8  and  C_9
REMARK    3  A    between atoms: C_9  and  C_10
REMARK    4  A    between atoms: C_10  and  C_13
REMARK    5  A    between atoms: C_17  and  O_18
REMARK    6  A    between atoms: O_18  and  C_19
REMARK                            x       y       z     vdW  Elec       q    Type
REMARK                         _______ _______ _______ _____ _____    ______ ____
ROOT
ATOM      1  C   UNL     1      43.374   4.505  11.127  0.00  0.00    +0.000 C 
ENDROOT
BRANCH   1   6
ATOM      2  C   UNL     1      46.537   2.669   7.496  0.00  0.00    +0.000 A 
ATOM      3  C   UNL     1      46.215   3.974   7.851  0.00  0.00    +0.000 A 
ATOM      4  C   UNL     1      45.294   4.190   8.878  0.00  0.00    +0.000 A 
ATOM      5  C   UNL     1      44.711   3.107   9.529  0.00  0.00    +0.000 A 
ATOM      6  N   UNL     1      43.815   3.239  10.554  0.00  0.00    +0.000 N 
ATOM      7  N   UNL     1      45.003   1.842   9.177  0.00  0.00    +0.000 NA
ATOM      8  C   UNL     1      45.895   1.642   8.170  0.00  0.00    +0.000 A 
ATOM      9  H   UNL     1      43.467   2.361  10.926  0.00  0.00    +0.000 HD
BRANCH   2  11
ATOM     10  N   UNL     1      47.538   3.158   5.337  0.00  0.00    +0.000 N 
ATOM     11  C   UNL     1      47.511   2.342   6.434  0.00  0.00    +0.000 C 
ATOM     12  O   UNL     1      48.284   1.399   6.541  0.00  0.00    +0.000 OA
ATOM     13  H   UNL     1      48.281   2.983   4.673  0.00  0.00    +0.000 HD
ATOM     14  H   UNL     1      47.106   4.071   5.327  0.00  0.00    +0.000 HD
ENDBRANCH   2  11
ENDBRANCH   1   6
BRANCH   1  15
ATOM     15  C   UNL     1      43.692   4.653  12.638  0.00  0.00    +0.000 C 
ATOM     16  F   UNL     1      42.612   5.210  13.261  0.00  0.00    +0.000 F 
ATOM     17  F   UNL     1      43.816   3.404  13.181  0.00  0.00    +0.000 F 
BRANCH  15  18
ATOM     18  C   UNL     1      44.946   5.479  12.834  0.00  0.00    +0.000 A 
ATOM     19  C   UNL     1      46.200   4.872  12.966  0.00  0.00    +0.000 A 
ATOM     20  C   UNL     1      47.316   5.681  13.116  0.00  0.00    +0.000 A 
ATOM     21  N   UNL     1      47.270   7.029  13.144  0.00  0.00    +0.000 NA
ATOM     22  C   UNL     1      46.052   7.594  13.023  0.00  0.00    +0.000 A 
ATOM     23  C   UNL     1      44.878   6.877  12.861  0.00  0.00    +0.000 A 
BRANCH  22  24
ATOM     24  O   UNL     1      45.940   8.970  13.029  0.00  0.00    +0.000 OA
BRANCH  24  25
ATOM     25  C   UNL     1      45.622   9.589  11.762  0.00  0.00    +0.000 C 
ATOM     26  C   UNL     1      46.284  10.960  11.484  0.00  0.00    +0.000 C 
ATOM     27  C   UNL     1      44.919  11.516  11.064  0.00  0.00    +0.000 C 
ATOM     28  C   UNL     1      44.252  10.307  11.732  0.00  0.00    +0.000 C 
ENDBRANCH  24  25
ENDBRANCH  22  24
ENDBRANCH  15  18
ENDBRANCH   1  15
TORSDOF 6
ENDMDL
MODEL 6
REMARK VINA RESULT:    -7.741      2.243      7.451
REMARK INTER + INTRA:         -11.499
REMARK INTER:                 -10.694
REMARK INTRA:                  -0.805
REMARK UNBOUND:                -1.043
REMARK  Name = 
REMARK  6 active torsions:
REMARK  status: ('A' for Active; 'I' for Inactive)
REMARK    1  A    between atoms: C_2  and  C_4
REMARK    2  A    between atoms: N_8  and  C_9
REMARK    3  A    between atoms: C_9  and  C_10
REMARK    4  A    between atoms: C_10  and  C_13
REMARK    5  A    between atoms: C_17  and  O_18
REMARK    6  A    between atoms: O_18  and  C_19
REMARK                            x       y       z     vdW  Elec       q    Type
REMARK                         _______ _______ _______ _____ _____    ______ ____
ROOT
ATOM      1  C   UNL     1      46.920   6.533  11.745  0.00  0.00    +0.000 C 
ENDROOT
BRANCH   1   6
ATOM      2  C   UNL     1      47.830   4.137  16.216  0.00  0.00    +0.000 A 
ATOM      3  C   UNL     1      47.112   3.736  15.096  0.00  0.00    +0.000 A 
ATOM      4  C   UNL     1      47.005   4.608  14.010  0.00  0.00    +0.000 A 
ATOM      5  C   UNL     1      47.612   5.859  14.060  0.00  0.00    +0.000 A 
ATOM      6  N   UNL     1      47.566   6.759  13.032  0.00  0.00    +0.000 N 
ATOM      7  N   UNL     1      48.291   6.262  15.150  0.00  0.00    +0.000 NA
ATOM      8  C   UNL     1      48.383   5.409  16.205  0.00  0.00    +0.000 A 
ATOM      9  H   UNL     1      48.047   7.635  13.215  0.00  0.00    +0.000 HD
BRANCH   2  11
ATOM     10  N   UNL     1      46.924   2.569  17.835  0.00  0.00    +0.000 N 
ATOM     11  C   UNL     1      48.011   3.278  17.405  0.00  0.00    +0.000 C 
ATOM     12  O   UNL     1      49.094   3.179  17.965  0.00  0.00    +0.000 OA
ATOM     13  H   UNL     1      47.094   1.907  18.581  0.00  0.00    +0.000 HD
ATOM     14  H   UNL     1      46.104   2.429  17.262  0.00  0.00    +0.000 HD
ENDBRANCH   2  11
ENDBRANCH   1   6
BRANCH   1  15
ATOM     15  C   UNL     1      45.374   6.647  11.792  0.00  0.00    +0.000 C 
ATOM     16  F   UNL     1      45.003   7.074  13.035  0.00  0.00    +0.000 F 
ATOM     17  F   UNL     1      44.984   7.641  10.939  0.00  0.00    +0.000 F 
BRANCH  15  18
ATOM     18  C   UNL     1      44.737   5.319  11.438  0.00  0.00    +0.000 A 
ATOM     19  C   UNL     1      43.883   4.665  12.333  0.00  0.00    +0.000 A 
ATOM     20  C   UNL     1      43.307   3.465  11.944  0.00  0.00    +0.000 A 
ATOM     21  N   UNL     1      43.520   2.882  10.746  0.00  0.00    +0.000 NA
ATOM     22  C   UNL     1      44.351   3.524   9.902  0.00  0.00    +0.000 A 
ATOM     23  C   UNL     1      44.971   4.729  10.191  0.00  0.00    +0.000 A 
BRANCH  22  24
ATOM     24  O   UNL     1      44.599   2.986   8.654  0.00  0.00    +0.000 OA
BRANCH  24  25
ATOM     25  C   UNL     1      45.988   2.896   8.263  0.00  0.00    +0.000 C 
ATOM     26  C   UNL     1      46.313   3.282   6.800  0.00  0.00    +0.000 C 
ATOM     27  C   UNL     1      47.135   1.995   6.661  0.00  0.00    +0.000 C 
ATOM     28  C   UNL     1      46.463   1.461   7.933  0.00  0.00    +0.000 C 
ENDBRANCH  24  25
ENDBRANCH  22  24
ENDBRANCH  15  18
ENDBRANCH   1  15
TORSDOF 6
ENDMDL
MODEL 7
REMARK VINA RESULT:    -7.729      2.483      7.857
REMARK INTER + INTRA:         -11.483
REMARK INTER:                 -10.856
REMARK INTRA:                  -0.627
REMARK UNBOUND:                -1.043
REMARK  Name = 
REMARK  6 active torsions:
REMARK  status: ('A' for Active; 'I' for Inactive)
REMARK    1  A    between atoms: C_2  and  C_4
REMARK    2  A    between atoms: N_8  and  C_9
REMARK    3  A    between atoms: C_9  and  C_10
REMARK    4  A    between atoms: C_10  and  C_13
REMARK    5  A    between atoms: C_17  and  O_18
REMARK    6  A    between atoms: O_18  and  C_19
REMARK                            x       y       z     vdW  Elec       q    Type
REMARK                         _______ _______ _______ _____ _____    ______ ____
ROOT
ATOM      1  C   UNL     1      46.753   5.875  12.720  0.00  0.00    +0.000 C 
ENDROOT
BRANCH   1   6
ATOM      2  C   UNL     1      48.497   4.302  17.308  0.00  0.00    +0.000 A 
ATOM      3  C   UNL     1      48.512   5.556  16.707  0.00  0.00    +0.000 A 
ATOM      4  C   UNL     1      47.981   5.699  15.423  0.00  0.00    +0.000 A 
ATOM      5  C   UNL     1      47.449   4.596  14.763  0.00  0.00    +0.000 A 
ATOM      6  N   UNL     1      46.896   4.661  13.514  0.00  0.00    +0.000 N 
ATOM      7  N   UNL     1      47.450   3.376  15.331  0.00  0.00    +0.000 NA
ATOM      8  C   UNL     1      47.977   3.245  16.577  0.00  0.00    +0.000 A 
ATOM      9  H   UNL     1      46.557   3.773  13.156  0.00  0.00    +0.000 HD
BRANCH   2  11
ATOM     10  N   UNL     1      48.376   3.121  19.427  0.00  0.00    +0.000 N 
ATOM     11  C   UNL     1      49.022   4.057  18.667  0.00  0.00    +0.000 C 
ATOM     12  O   UNL     1      50.011   4.642  19.088  0.00  0.00    +0.000 OA
ATOM     13  H   UNL     1      48.813   2.890  20.310  0.00  0.00    +0.000 HD
ATOM     14  H   UNL     1      47.731   2.451  19.033  0.00  0.00    +0.000 HD
ENDBRANCH   2  11
ENDBRANCH   1   6
BRANCH   1  15
ATOM     15  C   UNL     1      45.312   6.121  12.204  0.00  0.00    +0.000 C 
ATOM     16  F   UNL     1      44.560   6.626  13.227  0.00  0.00    +0.000 F 
ATOM     17  F   UNL     1      45.349   7.110  11.262  0.00  0.00    +0.000 F 
BRANCH  15  18
ATOM     18  C   UNL     1      44.724   4.839  11.652  0.00  0.00    +0.000 A 
ATOM     19  C   UNL     1      43.904   4.021  12.437  0.00  0.00    +0.000 A 
ATOM     20  C   UNL     1      43.372   2.873  11.870  0.00  0.00    +0.000 A 
ATOM     21  N   UNL     1      43.598   2.491  10.595  0.00  0.00    +0.000 NA
ATOM     22  C   UNL     1      44.396   3.287   9.858  0.00  0.00    +0.000 A 
ATOM     23  C   UNL     1      44.970   4.457  10.328  0.00  0.00    +0.000 A 
BRANCH  22  24
ATOM     24  O   UNL     1      44.654   2.958   8.542  0.00  0.00    +0.000 OA
BRANCH  24  25
ATOM     25  C   UNL     1      46.047   2.814   8.182  0.00  0.00    +0.000 C 
ATOM     26  C   UNL     1      46.401   3.075   6.699  0.00  0.00    +0.000 C 
ATOM     27  C   UNL     1      47.201   1.768   6.676  0.00  0.00    +0.000 C 
ATOM     28  C   UNL     1      46.501   1.350   7.976  0.00  0.00    +0.000 C 
ENDBRANCH  24  25
ENDBRANCH  22  24
ENDBRANCH  15  18
ENDBRANCH   1  15
TORSDOF 6
ENDMDL
MODEL 8
REMARK VINA RESULT:    -7.483      2.525      8.015
REMARK INTER + INTRA:         -11.151
REMARK INTER:                 -10.462
REMARK INTRA:                  -0.689
REMARK UNBOUND:                -1.043
REMARK  Name = 
REMARK  6 active torsions:
REMARK  status: ('A' for Active; 'I' for Inactive)
REMARK    1  A    between atoms: C_2  and  C_4
REMARK    2  A    between atoms: N_8  and  C_9
REMARK    3  A    between atoms: C_9  and  C_10
REMARK    4  A    between atoms: C_10  and  C_13
REMARK    5  A    between atoms: C_17  and  O_18
REMARK    6  A    between atoms: O_18  and  C_19
REMARK                            x       y       z     vdW  Elec       q    Type
REMARK                         _______ _______ _______ _____ _____    ______ ____
ROOT
ATOM      1  C   UNL     1      45.771   5.901  13.274  0.00  0.00    +0.000 C 
ENDROOT
BRANCH   1   6
ATOM      2  C   UNL     1      48.901   4.144  16.972  0.00  0.00    +0.000 A 
ATOM      3  C   UNL     1      47.740   3.607  16.427  0.00  0.00    +0.000 A 
ATOM      4  C   UNL     1      47.066   4.318  15.433  0.00  0.00    +0.000 A 
ATOM      5  C   UNL     1      47.556   5.546  15.001  0.00  0.00    +0.000 A 
ATOM      6  N   UNL     1      46.961   6.291  14.020  0.00  0.00    +0.000 N 
ATOM      7  N   UNL     1      48.668   6.081  15.537  0.00  0.00    +0.000 NA
ATOM      8  C   UNL     1      49.314   5.385  16.511  0.00  0.00    +0.000 A 
ATOM      9  H   UNL     1      47.427   7.170  13.817  0.00  0.00    +0.000 HD
BRANCH   2  11
ATOM     10  N   UNL     1      49.573   3.925  19.295  0.00  0.00    +0.000 N 
ATOM     11  C   UNL     1      49.691   3.459  18.016  0.00  0.00    +0.000 C 
ATOM     12  O   UNL     1      50.398   2.494  17.756  0.00  0.00    +0.000 OA
ATOM     13  H   UNL     1      50.036   3.379  20.011  0.00  0.00    +0.000 HD
ATOM     14  H   UNL     1      48.824   4.538  19.586  0.00  0.00    +0.000 HD
ENDBRANCH   2  11
ENDBRANCH   1   6
BRANCH   1  15
ATOM     15  C   UNL     1      45.848   6.222  11.759  0.00  0.00    +0.000 C 
ATOM     16  F   UNL     1      45.203   7.404  11.527  0.00  0.00    +0.000 F 
ATOM     17  F   UNL     1      47.154   6.456  11.429  0.00  0.00    +0.000 F 
BRANCH  15  18
ATOM     18  C   UNL     1      45.257   5.087  10.949  0.00  0.00    +0.000 A 
ATOM     19  C   UNL     1      44.414   4.139  11.539  0.00  0.00    +0.000 A 
ATOM     20  C   UNL     1      43.880   3.138  10.743  0.00  0.00    +0.000 A 
ATOM     21  N   UNL     1      44.124   3.018   9.421  0.00  0.00    +0.000 NA
ATOM     22  C   UNL     1      44.944   3.936   8.873  0.00  0.00    +0.000 A 
ATOM     23  C   UNL     1      45.522   4.978   9.580  0.00  0.00    +0.000 A 
BRANCH  22  24
ATOM     24  O   UNL     1      45.222   3.876   7.522  0.00  0.00    +0.000 OA
BRANCH  24  25
ATOM     25  C   UNL     1      46.569   3.493   7.164  0.00  0.00    +0.000 C 
ATOM     26  C   UNL     1      46.805   3.126   5.680  0.00  0.00    +0.000 C 
ATOM     27  C   UNL     1      47.535   1.854   6.128  0.00  0.00    +0.000 C 
ATOM     28  C   UNL     1      46.931   2.033   7.526  0.00  0.00    +0.000 C 
ENDBRANCH  24  25
ENDBRANCH  22  24
ENDBRANCH  15  18
ENDBRANCH   1  15
TORSDOF 6
ENDMDL
MODEL 9
REMARK VINA RESULT:    -6.831      3.369      4.862
REMARK INTER + INTRA:         -10.270
REMARK INTER:                  -9.225
REMARK INTRA:                  -1.045
REMARK UNBOUND:                -1.043
REMARK  Name = 
REMARK  6 active torsions:
REMARK  status: ('A' for Active; 'I' for Inactive)
REMARK    1  A    between atoms: C_2  and  C_4
REMARK    2  A    between atoms: N_8  and  C_9
REMARK    3  A    between atoms: C_9  and  C_10
REMARK    4  A    between atoms: C_10  and  C_13
REMARK    5  A    between atoms: C_17  and  O_18
REMARK    6  A    between atoms: O_18  and  C_19
REMARK                            x       y       z     vdW  Elec       q    Type
REMARK                         _______ _______ _______ _____ _____    ______ ____
ROOT
ATOM      1  C   UNL     1      46.495   8.732  12.432  0.00  0.00    +0.000 C 
ENDROOT
BRANCH   1   6
ATOM      2  C   UNL     1      44.349   4.142  11.495  0.00  0.00    +0.000 A 
ATOM      3  C   UNL     1      45.077   4.993  10.673  0.00  0.00    +0.000 A 
ATOM      4  C   UNL     1      45.531   6.210  11.187  0.00  0.00    +0.000 A 
ATOM      5  C   UNL     1      45.250   6.556  12.505  0.00  0.00    +0.000 A 
ATOM      6  N   UNL     1      45.674   7.719  13.084  0.00  0.00    +0.000 N 
ATOM      7  N   UNL     1      44.528   5.745  13.301  0.00  0.00    +0.000 NA
ATOM      8  C   UNL     1      44.084   4.566  12.788  0.00  0.00    +0.000 A 
ATOM      9  H   UNL     1      45.386   7.840  14.050  0.00  0.00    +0.000 HD
BRANCH   2  11
ATOM     10  N   UNL     1      44.474   2.245   9.984  0.00  0.00    +0.000 N 
ATOM     11  C   UNL     1      43.841   2.829  11.045  0.00  0.00    +0.000 C 
ATOM     12  O   UNL     1      42.913   2.270  11.615  0.00  0.00    +0.000 OA
ATOM     13  H   UNL     1      44.183   1.301   9.759  0.00  0.00    +0.000 HD
ATOM     14  H   UNL     1      45.382   2.545   9.657  0.00  0.00    +0.000 HD
ENDBRANCH   2  11
ENDBRANCH   1   6
BRANCH   1  15
ATOM     15  C   UNL     1      48.019   8.519  12.618  0.00  0.00    +0.000 C 
ATOM     16  F   UNL     1      48.426   7.511  11.791  0.00  0.00    +0.000 F 
ATOM     17  F   UNL     1      48.673   9.634  12.174  0.00  0.00    +0.000 F 
BRANCH  15  18
ATOM     18  C   UNL     1      48.336   8.221  14.069  0.00  0.00    +0.000 A 
ATOM     19  C   UNL     1      48.245   9.216  15.049  0.00  0.00    +0.000 A 
ATOM     20  C   UNL     1      48.520   8.879  16.365  0.00  0.00    +0.000 A 
ATOM     21  N   UNL     1      48.876   7.640  16.766  0.00  0.00    +0.000 NA
ATOM     22  C   UNL     1      48.966   6.699  15.806  0.00  0.00    +0.000 A 
ATOM     23  C   UNL     1      48.704   6.931  14.466  0.00  0.00    +0.000 A 
BRANCH  22  24
ATOM     24  O   UNL     1      49.311   5.407  16.154  0.00  0.00    +0.000 OA
BRANCH  24  25
ATOM     25  C   UNL     1      48.522   4.798  17.201  0.00  0.00    +0.000 C 
ATOM     26  C   UNL     1      48.945   3.374  17.635  0.00  0.00    +0.000 C 
ATOM     27  C   UNL     1      47.483   2.924  17.525  0.00  0.00    +0.000 C 
ATOM     28  C   UNL     1      47.183   4.194  16.718  0.00  0.00    +0.000 C 
ENDBRANCH  24  25
ENDBRANCH  22  24
ENDBRANCH  15  18
ENDBRANCH   1  15
TORSDOF 6
ENDMDL
