MODEL 1
REMARK VINA RESULT:    -9.290      0.000      0.000
REMARK INTER + INTRA:         -12.385
REMARK INTER:                 -11.463
REMARK INTRA:                  -0.922
REMARK UNBOUND:                -0.922
REMARK  Name = 
REMARK  4 active torsions:
REMARK  status: ('A' for Active; 'I' for Inactive)
REMARK    1  A    between atoms: C_2  and  C_4
REMARK    2  A    between atoms: N_8  and  C_9
REMARK    3  A    between atoms: C_9  and  C_10
REMARK    4  A    between atoms: C_14  and  C_15
REMARK                            x       y       z     vdW  Elec       q    Type
REMARK                         _______ _______ _______ _____ _____    ______ ____
ROOT
ATOM      1  C   UNL     1      43.445   4.890  10.998  0.00  0.00    +0.000 C 
ENDROOT
BRANCH   1   6
ATOM      2  C   UNL     1      46.376   2.283   7.682  0.00  0.00    +0.000 A 
ATOM      3  C   UNL     1      45.610   1.799   8.737  0.00  0.00    +0.000 A 
ATOM      4  C   UNL     1      44.766   2.672   9.420  0.00  0.00    +0.000 A 
ATOM      5  C   UNL     1      44.716   4.015   9.058  0.00  0.00    +0.000 A 
ATOM      6  N   UNL     1      43.836   4.922   9.603  0.00  0.00    +0.000 N 
ATOM      7  N   UNL     1      45.475   4.497   8.049  0.00  0.00    +0.000 NA
ATOM      8  C   UNL     1      46.292   3.635   7.392  0.00  0.00    +0.000 A 
ATOM      9  H   UNL     1      44.073   5.839   9.236  0.00  0.00    +0.000 HD
BRANCH   2  11
ATOM     10  N   UNL     1      48.329   2.017   6.268  0.00  0.00    +0.000 N 
ATOM     11  C   UNL     1      47.255   1.418   6.868  0.00  0.00    +0.000 C 
ATOM     12  O   UNL     1      47.056   0.216   6.767  0.00  0.00    +0.000 OA
ATOM     13  H   UNL     1      48.984   1.398   5.807  0.00  0.00    +0.000 HD
ATOM     14  H   UNL     1      48.664   2.929   6.539  0.00  0.00    +0.000 HD
ENDBRANCH   2  11
ENDBRANCH   1   6
BRANCH   1  15
ATOM     15  C   UNL     1      44.593   5.166  11.939  0.00  0.00    +0.000 A 
ATOM     16  C   UNL     1      44.982   4.219  12.894  0.00  0.00    +0.000 A 
ATOM     17  C   UNL     1      46.096   4.449  13.698  0.00  0.00    +0.000 A 
ATOM     18  C   UNL     1      46.848   5.616  13.538  0.00  0.00    +0.000 A 
ATOM     19  C   UNL     1      46.516   6.576  12.565  0.00  0.00    +0.000 A 
ATOM     20  C   UNL     1      45.357   6.338  11.798  0.00  0.00    +0.000 A 
BRANCH  19  21
ATOM     21  C   UNL     1      47.400   7.733  12.279  0.00  0.00    +0.000 A 
ATOM     22  C   UNL     1      48.769   7.544  11.993  0.00  0.00    +0.000 A 
ATOM     23  C   UNL     1      49.597   8.606  11.612  0.00  0.00    +0.000 A 
ATOM     24  C   UNL     1      49.072   9.888  11.501  0.00  0.00    +0.000 A 
ATOM     25  C   UNL     1      47.732  10.096  11.799  0.00  0.00    +0.000 A 
ATOM     26  F   UNL     1      47.218  11.328  11.682  0.00  0.00    +0.000 F 
ATOM     27  C   UNL     1      46.905   9.046  12.195  0.00  0.00    +0.000 A 
ENDBRANCH  19  21
ENDBRANCH   1  15
TORSDOF 4
ENDMDL
MODEL 2
REMARK VINA RESULT:    -8.476      2.971      4.310
REMARK INTER + INTRA:         -11.381
REMARK INTER:                 -10.594
REMARK INTRA:                  -0.787
REMARK UNBOUND:                -0.922
REMARK  Name = 
REMARK  4 active torsions:
REMARK  status: ('A' for Active; 'I' for Inactive)
REMARK    1  A    between atoms: C_2  and  C_4
REMARK    2  A    between atoms: N_8  and  C_9
REMARK    3  A    between atoms: C_9  and  C_10
REMARK    4  A    between atoms: C_14  and  C_15
REMARK                            x       y       z     vdW  Elec       q    Type
REMARK                         _______ _______ _______ _____ _____    ______ ____
ROOT
ATOM      1  C   UNL     1      44.529   5.020  11.532  0.00  0.00    +0.000 C 
ENDROOT
BRANCH   1   6
ATOM      2  C   UNL     1      46.539   2.592   7.475  0.00  0.00    +0.000 A 
ATOM      3  C   UNL     1      46.029   2.052   8.650  0.00  0.00    +0.000 A 
ATOM      4  C   UNL     1      45.390   2.890   9.562  0.00  0.00    +0.000 A 
ATOM      5  C   UNL     1      45.290   4.253   9.300  0.00  0.00    +0.000 A 
ATOM      6  N   UNL     1      44.585   5.133  10.088  0.00  0.00    +0.000 N 
ATOM      7  N   UNL     1      45.804   4.788   8.171  0.00  0.00    +0.000 NA
ATOM      8  C   UNL     1      46.424   3.960   7.291  0.00  0.00    +0.000 A 
ATOM      9  H   UNL     1      44.752   6.069   9.729  0.00  0.00    +0.000 HD
BRANCH   2  11
ATOM     10  N   UNL     1      47.927   2.432   5.492  0.00  0.00    +0.000 N 
ATOM     11  C   UNL     1      47.181   1.770   6.429  0.00  0.00    +0.000 C 
ATOM     12  O   UNL     1      47.086   0.551   6.422  0.00  0.00    +0.000 OA
ATOM     13  H   UNL     1      48.451   1.853   4.849  0.00  0.00    +0.000 HD
ATOM     14  H   UNL     1      48.237   3.385   5.617  0.00  0.00    +0.000 HD
ENDBRANCH   2  11
ENDBRANCH   1   6
BRANCH   1  15
ATOM     15  C   UNL     1      45.777   5.532  12.211  0.00  0.00    +0.000 A 
ATOM     16  C   UNL     1      46.451   6.657  11.721  0.00  0.00    +0.000 A 
ATOM     17  C   UNL     1      47.551   7.169  12.406  0.00  0.00    +0.000 A 
ATOM     18  C   UNL     1      47.972   6.580  13.600  0.00  0.00    +0.000 A 
ATOM     19  C   UNL     1      47.299   5.473  14.149  0.00  0.00    +0.000 A 
ATOM     20  C   UNL     1      46.220   4.947  13.411  0.00  0.00    +0.000 A 
BRANCH  19  21
ATOM     21  C   UNL     1      47.637   4.945  15.495  0.00  0.00    +0.000 A 
ATOM     22  C   UNL     1      48.501   5.656  16.355  0.00  0.00    +0.000 A 
ATOM     23  C   UNL     1      48.746   5.236  17.667  0.00  0.00    +0.000 A 
ATOM     24  C   UNL     1      48.126   4.092  18.155  0.00  0.00    +0.000 A 
ATOM     25  C   UNL     1      47.289   3.368  17.317  0.00  0.00    +0.000 A 
ATOM     26  F   UNL     1      46.679   2.272  17.786  0.00  0.00    +0.000 F 
ATOM     27  C   UNL     1      47.053   3.772  16.003  0.00  0.00    +0.000 A 
ENDBRANCH  19  21
ENDBRANCH   1  15
TORSDOF 4
ENDMDL
MODEL 3
REMARK VINA RESULT:    -8.009      4.248      7.253
REMARK INTER + INTRA:         -10.804
REMARK INTER:                  -9.990
REMARK INTRA:                  -0.814
REMARK UNBOUND:                -0.922
REMARK  Name = 
REMARK  4 active torsions:
REMARK  status: ('A' for Active; 'I' for Inactive)
REMARK    1  A    between atoms: C_2  and  C_4
REMARK    2  A    between atoms: N_8  and  C_9
REMARK    3  A    between atoms: C_9  and  C_10
REMARK    4  A    between atoms: C_14  and  C_15
REMARK                            x       y       z     vdW  Elec       q    Type
REMARK                         _______ _______ _______ _____ _____    ______ ____
ROOT
ATOM      1  C   UNL     1      44.542   6.770  11.770  0.00  0.00    +0.000 C 
ENDROOT
BRANCH   1   6
ATOM      2  C   UNL     1      49.449   7.734  12.950  0.00  0.00    +0.000 A 
ATOM      3  C   UNL     1      48.706   8.190  11.866  0.00  0.00    +0.000 A 
ATOM      4  C   UNL     1      47.338   7.927  11.821  0.00  0.00    +0.000 A 
ATOM      5  C   UNL     1      46.738   7.194  12.841  0.00  0.00    +0.000 A 
ATOM      6  N   UNL     1      45.382   6.980  12.933  0.00  0.00    +0.000 N 
ATOM      7  N   UNL     1      47.458   6.727  13.884  0.00  0.00    +0.000 NA
ATOM      8  C   UNL     1      48.789   6.992  13.916  0.00  0.00    +0.000 A 
ATOM      9  H   UNL     1      45.222   6.344  13.709  0.00  0.00    +0.000 HD
BRANCH   2  11
ATOM     10  N   UNL     1      51.469   7.638  14.288  0.00  0.00    +0.000 N 
ATOM     11  C   UNL     1      50.890   8.015  13.107  0.00  0.00    +0.000 C 
ATOM     12  O   UNL     1      51.546   8.524  12.210  0.00  0.00    +0.000 OA
ATOM     13  H   UNL     1      52.475   7.733  14.341  0.00  0.00    +0.000 HD
ATOM     14  H   UNL     1      51.029   6.993  14.928  0.00  0.00    +0.000 HD
ENDBRANCH   2  11
ENDBRANCH   1   6
BRANCH   1  15
ATOM     15  C   UNL     1      44.382   5.311  11.416  0.00  0.00    +0.000 A 
ATOM     16  C   UNL     1      43.420   4.519  12.054  0.00  0.00    +0.000 A 
ATOM     17  C   UNL     1      43.224   3.197  11.658  0.00  0.00    +0.000 A 
ATOM     18  C   UNL     1      43.969   2.662  10.604  0.00  0.00    +0.000 A 
ATOM     19  C   UNL     1      44.918   3.434   9.910  0.00  0.00    +0.000 A 
ATOM     20  C   UNL     1      45.128   4.753  10.362  0.00  0.00    +0.000 A 
BRANCH  19  21
ATOM     21  C   UNL     1      45.593   2.926   8.689  0.00  0.00    +0.000 A 
ATOM     22  C   UNL     1      46.033   3.814   7.684  0.00  0.00    +0.000 A 
ATOM     23  C   UNL     1      46.768   3.371   6.579  0.00  0.00    +0.000 A 
ATOM     24  C   UNL     1      47.089   2.024   6.455  0.00  0.00    +0.000 A 
ATOM     25  C   UNL     1      46.647   1.134   7.424  0.00  0.00    +0.000 A 
ATOM     26  F   UNL     1      46.965  -0.163   7.315  0.00  0.00    +0.000 F 
ATOM     27  C   UNL     1      45.900   1.566   8.519  0.00  0.00    +0.000 A 
ENDBRANCH  19  21
ENDBRANCH   1  15
TORSDOF 4
ENDMDL
MODEL 4
REMARK VINA RESULT:    -7.995      4.413      7.357
REMARK INTER + INTRA:         -10.787
REMARK INTER:                 -10.485
REMARK INTRA:                  -0.302
REMARK UNBOUND:                -0.922
REMARK  Name = 
REMARK  4 active torsions:
REMARK  status: ('A' for Active; 'I' for Inactive)
REMARK    1  A    between atoms: C_2  and  C_4
REMARK    2  A    between atoms: N_8  and  C_9
REMARK    3  A    between atoms: C_9  and  C_10
REMARK    4  A    between atoms: C_14  and  C_15
REMARK                            x       y       z     vdW  Elec       q    Type
REMARK                         _______ _______ _______ _____ _____    ______ ____
ROOT
ATOM      1  C   UNL     1      46.176   7.372  11.746  0.00  0.00    +0.000 C 
ENDROOT
BRANCH   1   6
ATOM      2  C   UNL     1      47.433   4.467  15.793  0.00  0.00    +0.000 A 
ATOM      3  C   UNL     1      46.379   4.310  14.900  0.00  0.00    +0.000 A 
ATOM      4  C   UNL     1      46.312   5.132  13.776  0.00  0.00    +0.000 A 
ATOM      5  C   UNL     1      47.280   6.112  13.574  0.00  0.00    +0.000 A 
ATOM      6  N   UNL     1      47.353   6.892  12.443  0.00  0.00    +0.000 N 
ATOM      7  N   UNL     1      48.293   6.286  14.450  0.00  0.00    +0.000 NA
ATOM      8  C   UNL     1      48.347   5.477  15.539  0.00  0.00    +0.000 A 
ATOM      9  H   UNL     1      48.085   7.581  12.591  0.00  0.00    +0.000 HD
BRANCH   2  11
ATOM     10  N   UNL     1      48.841   3.631  17.582  0.00  0.00    +0.000 N 
ATOM     11  C   UNL     1      47.614   3.605  16.978  0.00  0.00    +0.000 C 
ATOM     12  O   UNL     1      46.698   2.929  17.425  0.00  0.00    +0.000 OA
ATOM     13  H   UNL     1      48.919   3.124  18.454  0.00  0.00    +0.000 HD
ATOM     14  H   UNL     1      49.520   4.357  17.404  0.00  0.00    +0.000 HD
ENDBRANCH   2  11
ENDBRANCH   1   6
BRANCH   1  15
ATOM     15  C   UNL     1      45.320   6.256  11.197  0.00  0.00    +0.000 A 
ATOM     16  C   UNL     1      43.947   6.205  11.467  0.00  0.00    +0.000 A 
ATOM     17  C   UNL     1      43.154   5.219  10.884  0.00  0.00    +0.000 A 
ATOM     18  C   UNL     1      43.718   4.291  10.007  0.00  0.00    +0.000 A 
ATOM     19  C   UNL     1      45.085   4.330   9.677  0.00  0.00    +0.000 A 
ATOM     20  C   UNL     1      45.872   5.308  10.317  0.00  0.00    +0.000 A 
BRANCH  19  21
ATOM     21  C   UNL     1      45.658   3.454   8.624  0.00  0.00    +0.000 A 
ATOM     22  C   UNL     1      46.282   4.006   7.485  0.00  0.00    +0.000 A 
ATOM     23  C   UNL     1      46.926   3.205   6.535  0.00  0.00    +0.000 A 
ATOM     24  C   UNL     1      46.967   1.826   6.706  0.00  0.00    +0.000 A 
ATOM     25  C   UNL     1      46.341   1.264   7.809  0.00  0.00    +0.000 A 
ATOM     26  F   UNL     1      46.389  -0.064   7.985  0.00  0.00    +0.000 F 
ATOM     27  C   UNL     1      45.684   2.055   8.751  0.00  0.00    +0.000 A 
ENDBRANCH  19  21
ENDBRANCH   1  15
TORSDOF 4
ENDMDL
MODEL 5
REMARK VINA RESULT:    -7.874      2.349      2.915
REMARK INTER + INTRA:         -10.637
REMARK INTER:                  -9.861
REMARK INTRA:                  -0.776
REMARK UNBOUND:                -0.922
REMARK  Name = 
REMARK  4 active torsions:
REMARK  status: ('A' for Active; 'I' for Inactive)
REMARK    1  A    between atoms: C_2  and  C_4
REMARK    2  A    between atoms: N_8  and  C_9
REMARK    3  A    between atoms: C_9  and  C_10
REMARK    4  A    between atoms: C_14  and  C_15
REMARK                            x       y       z     vdW  Elec       q    Type
REMARK                         _______ _______ _______ _____ _____    ______ ____
ROOT
ATOM      1  C   UNL     1      43.553   3.976  11.130  0.00  0.00    +0.000 C 
ENDROOT
BRANCH   1   6
ATOM      2  C   UNL     1      46.630   2.530   7.279  0.00  0.00    +0.000 A 
ATOM      3  C   UNL     1      46.387   3.809   7.768  0.00  0.00    +0.000 A 
ATOM      4  C   UNL     1      45.627   3.959   8.927  0.00  0.00    +0.000 A 
ATOM      5  C   UNL     1      45.102   2.839   9.564  0.00  0.00    +0.000 A 
ATOM      6  N   UNL     1      44.435   2.885  10.766  0.00  0.00    +0.000 N 
ATOM      7  N   UNL     1      45.315   1.595   9.080  0.00  0.00    +0.000 NA
ATOM      8  C   UNL     1      46.058   1.463   7.951  0.00  0.00    +0.000 A 
ATOM      9  H   UNL     1      44.080   1.952  10.957  0.00  0.00    +0.000 HD
BRANCH   2  11
ATOM     10  N   UNL     1      47.299   3.108   5.020  0.00  0.00    +0.000 N 
ATOM     11  C   UNL     1      47.470   2.275   6.091  0.00  0.00    +0.000 C 
ATOM     12  O   UNL     1      48.309   1.385   6.078  0.00  0.00    +0.000 OA
ATOM     13  H   UNL     1      47.954   2.995   4.257  0.00  0.00    +0.000 HD
ATOM     14  H   UNL     1      46.818   3.993   5.091  0.00  0.00    +0.000 HD
ENDBRANCH   2  11
ENDBRANCH   1   6
BRANCH   1  15
ATOM     15  C   UNL     1      44.276   5.122  11.796  0.00  0.00    +0.000 A 
ATOM     16  C   UNL     1      45.320   4.885  12.698  0.00  0.00    +0.000 A 
ATOM     17  C   UNL     1      46.035   5.951  13.240  0.00  0.00    +0.000 A 
ATOM     18  C   UNL     1      45.731   7.262  12.866  0.00  0.00    +0.000 A 
ATOM     19  C   UNL     1      44.717   7.543  11.933  0.00  0.00    +0.000 A 
ATOM     20  C   UNL     1      43.980   6.449  11.437  0.00  0.00    +0.000 A 
BRANCH  19  21
ATOM     21  C   UNL     1      44.499   8.915  11.409  0.00  0.00    +0.000 A 
ATOM     22  C   UNL     1      45.439   9.939  11.650  0.00  0.00    +0.000 A 
ATOM     23  C   UNL     1      45.312  11.209  11.075  0.00  0.00    +0.000 A 
ATOM     24  C   UNL     1      44.239  11.484  10.235  0.00  0.00    +0.000 A 
ATOM     25  C   UNL     1      43.294  10.495  10.003  0.00  0.00    +0.000 A 
ATOM     26  F   UNL     1      42.264  10.751   9.184  0.00  0.00    +0.000 F 
ATOM     27  C   UNL     1      43.405   9.233  10.586  0.00  0.00    +0.000 A 
ENDBRANCH  19  21
ENDBRANCH   1  15
TORSDOF 4
ENDMDL
MODEL 6
REMARK VINA RESULT:    -7.822      5.352      8.093
REMARK INTER + INTRA:         -10.573
REMARK INTER:                 -10.021
REMARK INTRA:                  -0.552
REMARK UNBOUND:                -0.922
REMARK  Name = 
REMARK  4 active torsions:
REMARK  status: ('A' for Active; 'I' for Inactive)
REMARK    1  A    between atoms: C_2  and  C_4
REMARK    2  A    between atoms: N_8  and  C_9
REMARK    3  A    between atoms: C_9  and  C_10
REMARK    4  A    between atoms: C_14  and  C_15
REMARK                            x       y       z     vdW  Elec       q    Type
REMARK                         _______ _______ _______ _____ _____    ______ ____
ROOT
ATOM      1  C   UNL     1      46.082   5.310  13.866  0.00  0.00    +0.000 C 
ENDROOT
BRANCH   1   6
ATOM      2  C   UNL     1      49.549   3.876  17.375  0.00  0.00    +0.000 A 
ATOM      3  C   UNL     1      49.097   5.155  17.067  0.00  0.00    +0.000 A 
ATOM      4  C   UNL     1      48.034   5.303  16.178  0.00  0.00    +0.000 A 
ATOM      5  C   UNL     1      47.455   4.181  15.594  0.00  0.00    +0.000 A 
ATOM      6  N   UNL     1      46.337   4.226  14.793  0.00  0.00    +0.000 N 
ATOM      7  N   UNL     1      47.905   2.937  15.871  0.00  0.00    +0.000 NA
ATOM      8  C   UNL     1      48.940   2.807  16.739  0.00  0.00    +0.000 A 
ATOM      9  H   UNL     1      46.183   3.291  14.427  0.00  0.00    +0.000 HD
BRANCH   2  11
ATOM     10  N   UNL     1      51.345   2.466  18.192  0.00  0.00    +0.000 N 
ATOM     11  C   UNL     1      50.632   3.623  18.347  0.00  0.00    +0.000 C 
ATOM     12  O   UNL     1      50.907   4.428  19.226  0.00  0.00    +0.000 OA
ATOM     13  H   UNL     1      52.152   2.356  18.792  0.00  0.00    +0.000 HD
ATOM     14  H   UNL     1      51.320   1.921  17.343  0.00  0.00    +0.000 HD
ENDBRANCH   2  11
ENDBRANCH   1   6
BRANCH   1  15
ATOM     15  C   UNL     1      45.118   4.931  12.768  0.00  0.00    +0.000 A 
ATOM     16  C   UNL     1      43.786   5.363  12.801  0.00  0.00    +0.000 A 
ATOM     17  C   UNL     1      42.929   5.079  11.740  0.00  0.00    +0.000 A 
ATOM     18  C   UNL     1      43.400   4.383  10.624  0.00  0.00    +0.000 A 
ATOM     19  C   UNL     1      44.740   3.965  10.532  0.00  0.00    +0.000 A 
ATOM     20  C   UNL     1      45.572   4.225  11.639  0.00  0.00    +0.000 A 
BRANCH  19  21
ATOM     21  C   UNL     1      45.287   3.373   9.285  0.00  0.00    +0.000 A 
ATOM     22  C   UNL     1      45.715   4.195   8.221  0.00  0.00    +0.000 A 
ATOM     23  C   UNL     1      46.335   3.667   7.083  0.00  0.00    +0.000 A 
ATOM     24  C   UNL     1      46.550   2.297   6.984  0.00  0.00    +0.000 A 
ATOM     25  C   UNL     1      46.117   1.471   8.012  0.00  0.00    +0.000 A 
ATOM     26  F   UNL     1      46.333   0.151   7.928  0.00  0.00    +0.000 F 
ATOM     27  C   UNL     1      45.484   1.988   9.141  0.00  0.00    +0.000 A 
ENDBRANCH  19  21
ENDBRANCH   1  15
TORSDOF 4
ENDMDL
MODEL 7
REMARK VINA RESULT:    -7.699      2.068      2.743
REMARK INTER + INTRA:         -10.422
REMARK INTER:                 -10.251
REMARK INTRA:                  -0.171
REMARK UNBOUND:                -0.922
REMARK  Name = 
REMARK  4 active torsions:
REMARK  status: ('A' for Active; 'I' for Inactive)
REMARK    1  A    between atoms: C_2  and  C_4
REMARK    2  A    between atoms: N_8  and  C_9
REMARK    3  A    between atoms: C_9  and  C_10
REMARK    4  A    between atoms: C_14  and  C_15
REMARK                            x       y       z     vdW  Elec       q    Type
REMARK                         _______ _______ _______ _____ _____    ______ ____
ROOT
ATOM      1  C   UNL     1      43.522   3.438  11.004  0.00  0.00    +0.000 C 
ENDROOT
BRANCH   1   6
ATOM      2  C   UNL     1      46.732   2.491   7.107  0.00  0.00    +0.000 A 
ATOM      3  C   UNL     1      46.225   3.710   7.542  0.00  0.00    +0.000 A 
ATOM      4  C   UNL     1      45.484   3.755   8.722  0.00  0.00    +0.000 A 
ATOM      5  C   UNL     1      45.241   2.584   9.435  0.00  0.00    +0.000 A 
ATOM      6  N   UNL     1      44.615   2.551  10.660  0.00  0.00    +0.000 N 
ATOM      7  N   UNL     1      45.711   1.393   9.005  0.00  0.00    +0.000 NA
ATOM      8  C   UNL     1      46.432   1.364   7.855  0.00  0.00    +0.000 A 
ATOM      9  H   UNL     1      44.482   1.575  10.911  0.00  0.00    +0.000 HD
BRANCH   2  11
ATOM     10  N   UNL     1      47.361   3.264   4.896  0.00  0.00    +0.000 N 
ATOM     11  C   UNL     1      47.573   2.359   5.900  0.00  0.00    +0.000 C 
ATOM     12  O   UNL     1      48.447   1.508   5.817  0.00  0.00    +0.000 OA
ATOM     13  H   UNL     1      48.015   3.234   4.124  0.00  0.00    +0.000 HD
ATOM     14  H   UNL     1      46.845   4.120   5.035  0.00  0.00    +0.000 HD
ENDBRANCH   2  11
ENDBRANCH   1   6
BRANCH   1  15
ATOM     15  C   UNL     1      43.962   4.871  11.187  0.00  0.00    +0.000 A 
ATOM     16  C   UNL     1      43.050   5.925  11.047  0.00  0.00    +0.000 A 
ATOM     17  C   UNL     1      43.449   7.236  11.301  0.00  0.00    +0.000 A 
ATOM     18  C   UNL     1      44.754   7.504  11.722  0.00  0.00    +0.000 A 
ATOM     19  C   UNL     1      45.690   6.472  11.913  0.00  0.00    +0.000 A 
ATOM     20  C   UNL     1      45.273   5.162  11.603  0.00  0.00    +0.000 A 
BRANCH  19  21
ATOM     21  C   UNL     1      47.022   6.730  12.515  0.00  0.00    +0.000 A 
ATOM     22  C   UNL     1      47.980   7.518  11.841  0.00  0.00    +0.000 A 
ATOM     23  C   UNL     1      49.198   7.867  12.434  0.00  0.00    +0.000 A 
ATOM     24  C   UNL     1      49.487   7.440  13.725  0.00  0.00    +0.000 A 
ATOM     25  C   UNL     1      48.566   6.647  14.395  0.00  0.00    +0.000 A 
ATOM     26  F   UNL     1      48.835   6.243  15.644  0.00  0.00    +0.000 F 
ATOM     27  C   UNL     1      47.357   6.282  13.804  0.00  0.00    +0.000 A 
ENDBRANCH  19  21
ENDBRANCH   1  15
TORSDOF 4
ENDMDL
MODEL 8
REMARK VINA RESULT:    -7.522      4.065      7.076
REMARK INTER + INTRA:         -10.203
REMARK INTER:                  -9.363
REMARK INTRA:                  -0.841
REMARK UNBOUND:                -0.922
REMARK  Name = 
REMARK  4 active torsions:
REMARK  status: ('A' for Active; 'I' for Inactive)
REMARK    1  A    between atoms: C_2  and  C_4
REMARK    2  A    between atoms: N_8  and  C_9
REMARK    3  A    between atoms: C_9  and  C_10
REMARK    4  A    between atoms: C_14  and  C_15
REMARK                            x       y       z     vdW  Elec       q    Type
REMARK                         _______ _______ _______ _____ _____    ______ ____
ROOT
ATOM      1  C   UNL     1      45.651   4.768  14.011  0.00  0.00    +0.000 C 
ENDROOT
BRANCH   1   6
ATOM      2  C   UNL     1      48.418   8.635  12.065  0.00  0.00    +0.000 A 
ATOM      3  C   UNL     1      47.208   8.685  12.750  0.00  0.00    +0.000 A 
ATOM      4  C   UNL     1      46.705   7.521  13.326  0.00  0.00    +0.000 A 
ATOM      5  C   UNL     1      47.400   6.322  13.192  0.00  0.00    +0.000 A 
ATOM      6  N   UNL     1      47.035   5.152  13.817  0.00  0.00    +0.000 N 
ATOM      7  N   UNL     1      48.563   6.262  12.508  0.00  0.00    +0.000 NA
ATOM      8  C   UNL     1      49.043   7.404  11.952  0.00  0.00    +0.000 A 
ATOM      9  H   UNL     1      47.650   4.417  13.477  0.00  0.00    +0.000 HD
BRANCH   2  11
ATOM     10  N   UNL     1      48.256  10.928  11.291  0.00  0.00    +0.000 N 
ATOM     11  C   UNL     1      49.052   9.829  11.472  0.00  0.00    +0.000 C 
ATOM     12  O   UNL     1      50.242   9.851  11.191  0.00  0.00    +0.000 OA
ATOM     13  H   UNL     1      48.725  11.772  10.989  0.00  0.00    +0.000 HD
ATOM     14  H   UNL     1      47.360  11.030  11.744  0.00  0.00    +0.000 HD
ENDBRANCH   2  11
ENDBRANCH   1   6
BRANCH   1  15
ATOM     15  C   UNL     1      44.863   4.735  12.723  0.00  0.00    +0.000 A 
ATOM     16  C   UNL     1      43.703   5.505  12.572  0.00  0.00    +0.000 A 
ATOM     17  C   UNL     1      43.033   5.532  11.351  0.00  0.00    +0.000 A 
ATOM     18  C   UNL     1      43.528   4.810  10.262  0.00  0.00    +0.000 A 
ATOM     19  C   UNL     1      44.711   4.055  10.359  0.00  0.00    +0.000 A 
ATOM     20  C   UNL     1      45.342   4.009  11.618  0.00  0.00    +0.000 A 
BRANCH  19  21
ATOM     21  C   UNL     1      45.331   3.422   9.168  0.00  0.00    +0.000 A 
ATOM     22  C   UNL     1      45.846   4.209   8.116  0.00  0.00    +0.000 A 
ATOM     23  C   UNL     1      46.533   3.642   7.037  0.00  0.00    +0.000 A 
ATOM     24  C   UNL     1      46.727   2.267   6.986  0.00  0.00    +0.000 A 
ATOM     25  C   UNL     1      46.209   1.474   8.001  0.00  0.00    +0.000 A 
ATOM     26  F   UNL     1      46.405   0.149   7.964  0.00  0.00    +0.000 F 
ATOM     27  C   UNL     1      45.510   2.032   9.071  0.00  0.00    +0.000 A 
ENDBRANCH  19  21
ENDBRANCH   1  15
TORSDOF 4
ENDMDL
MODEL 9
REMARK VINA RESULT:    -6.850      5.907      8.162
REMARK INTER + INTRA:          -9.374
REMARK INTER:                  -8.542
REMARK INTRA:                  -0.832
REMARK UNBOUND:                -0.922
REMARK  Name = 
REMARK  4 active torsions:
REMARK  status: ('A' for Active; 'I' for Inactive)
REMARK    1  A    between atoms: C_2  and  C_4
REMARK    2  A    between atoms: N_8  and  C_9
REMARK    3  A    between atoms: C_9  and  C_10
REMARK    4  A    between atoms: C_14  and  C_15
REMARK                            x       y       z     vdW  Elec       q    Type
REMARK                         _______ _______ _______ _____ _____    ______ ____
ROOT
ATOM      1  C   UNL     1      48.782   6.751  16.422  0.00  0.00    +0.000 C 
ENDROOT
BRANCH   1   6
ATOM      2  C   UNL     1      51.361   2.441  17.503  0.00  0.00    +0.000 A 
ATOM      3  C   UNL     1      51.739   3.762  17.719  0.00  0.00    +0.000 A 
ATOM      4  C   UNL     1      50.816   4.780  17.487  0.00  0.00    +0.000 A 
ATOM      5  C   UNL     1      49.541   4.469  17.023  0.00  0.00    +0.000 A 
ATOM      6  N   UNL     1      48.535   5.395  16.871  0.00  0.00    +0.000 N 
ATOM      7  N   UNL     1      49.175   3.189  16.788  0.00  0.00    +0.000 NA
ATOM      8  C   UNL     1      50.084   2.208  17.019  0.00  0.00    +0.000 A 
ATOM      9  H   UNL     1      47.748   4.926  16.433  0.00  0.00    +0.000 HD
BRANCH   2  11
ATOM     10  N   UNL     1      51.664   0.130  18.173  0.00  0.00    +0.000 N 
ATOM     11  C   UNL     1      52.255   1.298  17.775  0.00  0.00    +0.000 C 
ATOM     12  O   UNL     1      53.465   1.377  17.613  0.00  0.00    +0.000 OA
ATOM     13  H   UNL     1      52.273  -0.674  18.249  0.00  0.00    +0.000 HD
ATOM     14  H   UNL     1      50.676  -0.044  18.064  0.00  0.00    +0.000 HD
ENDBRANCH   2  11
ENDBRANCH   1   6
BRANCH   1  15
ATOM     15  C   UNL     1      48.658   6.908  14.926  0.00  0.00    +0.000 A 
ATOM     16  C   UNL     1      49.682   7.505  14.180  0.00  0.00    +0.000 A 
ATOM     17  C   UNL     1      49.594   7.567  12.791  0.00  0.00    +0.000 A 
ATOM     18  C   UNL     1      48.495   7.010  12.131  0.00  0.00    +0.000 A 
ATOM     19  C   UNL     1      47.464   6.366  12.839  0.00  0.00    +0.000 A 
ATOM     20  C   UNL     1      47.557   6.360  14.245  0.00  0.00    +0.000 A 
BRANCH  19  21
ATOM     21  C   UNL     1      46.380   5.631  12.139  0.00  0.00    +0.000 A 
ATOM     22  C   UNL     1      46.051   5.930  10.800  0.00  0.00    +0.000 A 
ATOM     23  C   UNL     1      45.112   5.178  10.085  0.00  0.00    +0.000 A 
ATOM     24  C   UNL     1      44.480   4.100  10.693  0.00  0.00    +0.000 A 
ATOM     25  C   UNL     1      44.776   3.804  12.017  0.00  0.00    +0.000 A 
ATOM     26  F   UNL     1      44.178   2.758  12.604  0.00  0.00    +0.000 F 
ATOM     27  C   UNL     1      45.699   4.559  12.740  0.00  0.00    +0.000 A 
ENDBRANCH  19  21
ENDBRANCH   1  15
TORSDOF 4
ENDMDL
