MODEL 1
REMARK VINA RESULT:    -9.328      0.000      0.000
REMARK INTER + INTRA:         -14.071
REMARK INTER:                 -13.145
REMARK INTRA:                  -0.926
REMARK UNBOUND:                -0.926
REMARK  Name = 
REMARK  7 active torsions:
REMARK  status: ('A' for Active; 'I' for Inactive)
REMARK    1  A    between atoms: C_2  and  C_4
REMARK    2  A    between atoms: C_7  and  N_8
REMARK    3  A    between atoms: N_8  and  C_9
REMARK    4  A    between atoms: C_9  and  C_10
REMARK    5  A    between atoms: C_10  and  C_13
REMARK    6  A    between atoms: C_17  and  N_18
REMARK    7  A    between atoms: N_18  and  C_19
REMARK                            x       y       z     vdW  Elec       q    Type
REMARK                         _______ _______ _______ _____ _____    ______ ____
ROOT
ATOM      1  C   UNL     1      43.321   5.515  12.183  0.00  0.00    +0.000 C 
ATOM      2  F   UNL     1      42.836   6.707  11.724  0.00  0.00    +0.000 F 
ATOM      3  F   UNL     1      42.528   5.191  13.251  0.00  0.00    +0.000 F 
ENDROOT
BRANCH   1   4
ATOM      4  C   UNL     1      44.787   5.613  12.567  0.00  0.00    +0.000 A 
ATOM      5  C   UNL     1      45.625   6.566  11.973  0.00  0.00    +0.000 A 
ATOM      6  C   UNL     1      46.978   6.614  12.303  0.00  0.00    +0.000 A 
ATOM      7  C   UNL     1      47.509   5.712  13.230  0.00  0.00    +0.000 A 
ATOM      8  C   UNL     1      46.690   4.772  13.863  0.00  0.00    +0.000 A 
ATOM      9  C   UNL     1      45.336   4.721  13.503  0.00  0.00    +0.000 A 
BRANCH   8  10
ATOM     10  N   UNL     1      47.185   3.796  14.744  0.00  0.00    +0.000 N 
ATOM     11  H   UNL     1      46.893   2.850  14.518  0.00  0.00    +0.000 HD
BRANCH  10  12
ATOM     12  C   UNL     1      47.505   3.945  16.117  0.00  0.00    +0.000 C 
ATOM     13  C   UNL     1      48.399   2.803  16.620  0.00  0.00    +0.000 C 
ATOM     14  C   UNL     1      47.408   2.751  17.778  0.00  0.00    +0.000 C 
ATOM     15  O   UNL     1      46.446   3.530  17.018  0.00  0.00    +0.000 OA
ENDBRANCH  10  12
ENDBRANCH   8  10
ENDBRANCH   1   4
BRANCH   1  16
ATOM     16  C   UNL     1      43.121   4.432  11.092  0.00  0.00    +0.000 C 
BRANCH  16  17
ATOM     17  N   UNL     1      43.652   4.801   9.763  0.00  0.00    +0.000 N 
ATOM     18  H   UNL     1      42.952   5.155   9.112  0.00  0.00    +0.000 HD
BRANCH  17  22
ATOM     19  C   UNL     1      46.441   2.287   7.824  0.00  0.00    +0.000 A 
ATOM     20  C   UNL     1      46.467   3.660   7.589  0.00  0.00    +0.000 A 
ATOM     21  C   UNL     1      45.560   4.503   8.241  0.00  0.00    +0.000 A 
ATOM     22  C   UNL     1      44.628   4.006   9.161  0.00  0.00    +0.000 A 
ATOM     23  C   UNL     1      44.599   2.618   9.368  0.00  0.00    +0.000 A 
ATOM     24  C   UNL     1      45.492   1.763   8.705  0.00  0.00    +0.000 A 
BRANCH  19  26
ATOM     25  N   UNL     1      48.446   1.941   6.495  0.00  0.00    +0.000 N 
ATOM     26  C   UNL     1      47.375   1.367   7.125  0.00  0.00    +0.000 C 
ATOM     27  O   UNL     1      47.217   0.156   7.133  0.00  0.00    +0.000 OA
ATOM     28  H   UNL     1      49.127   1.307   6.093  0.00  0.00    +0.000 HD
ATOM     29  H   UNL     1      48.737   2.894   6.670  0.00  0.00    +0.000 HD
ENDBRANCH  19  26
ENDBRANCH  17  22
ENDBRANCH  16  17
ENDBRANCH   1  16
TORSDOF 7
ENDMDL
MODEL 2
REMARK VINA RESULT:    -8.849      1.228      1.607
REMARK INTER + INTRA:         -13.396
REMARK INTER:                 -12.373
REMARK INTRA:                  -1.023
REMARK UNBOUND:                -0.926
REMARK  Name = 
REMARK  7 active torsions:
REMARK  status: ('A' for Active; 'I' for Inactive)
REMARK    1  A    between atoms: C_2  and  C_4
REMARK    2  A    between atoms: C_7  and  N_8
REMARK    3  A    between atoms: N_8  and  C_9
REMARK    4  A    between atoms: C_9  and  C_10
REMARK    5  A    between atoms: C_10  and  C_13
REMARK    6  A    between atoms: C_17  and  N_18
REMARK    7  A    between atoms: N_18  and  C_19
REMARK                            x       y       z     vdW  Elec       q    Type
REMARK                         _______ _______ _______ _____ _____    ______ ____
ROOT
ATOM      1  C   UNL     1      43.532   4.668  12.387  0.00  0.00    +0.000 C 
ATOM      2  F   UNL     1      42.549   5.529  12.783  0.00  0.00    +0.000 F 
ATOM      3  F   UNL     1      43.351   3.542  13.145  0.00  0.00    +0.000 F 
ENDROOT
BRANCH   1   4
ATOM      4  C   UNL     1      44.916   5.266  12.572  0.00  0.00    +0.000 A 
ATOM      5  C   UNL     1      45.507   6.039  11.564  0.00  0.00    +0.000 A 
ATOM      6  C   UNL     1      46.795   6.544  11.731  0.00  0.00    +0.000 A 
ATOM      7  C   UNL     1      47.507   6.284  12.905  0.00  0.00    +0.000 A 
ATOM      8  C   UNL     1      46.930   5.543  13.942  0.00  0.00    +0.000 A 
ATOM      9  C   UNL     1      45.643   5.022  13.750  0.00  0.00    +0.000 A 
BRANCH   8  10
ATOM     10  N   UNL     1      47.626   5.189  15.109  0.00  0.00    +0.000 N 
ATOM     11  H   UNL     1      48.588   5.512  15.132  0.00  0.00    +0.000 HD
BRANCH  10  12
ATOM     12  C   UNL     1      47.424   4.050  15.931  0.00  0.00    +0.000 C 
ATOM     13  C   UNL     1      48.479   3.956  17.041  0.00  0.00    +0.000 C 
ATOM     14  C   UNL     1      48.589   2.502  16.594  0.00  0.00    +0.000 C 
ATOM     15  O   UNL     1      47.906   2.811  15.351  0.00  0.00    +0.000 OA
ENDBRANCH  10  12
ENDBRANCH   8  10
ENDBRANCH   1   4
BRANCH   1  16
ATOM     16  C   UNL     1      43.305   4.287  10.902  0.00  0.00    +0.000 C 
BRANCH  16  17
ATOM     17  N   UNL     1      43.840   2.962  10.524  0.00  0.00    +0.000 N 
ATOM     18  H   UNL     1      44.135   2.386  11.311  0.00  0.00    +0.000 HD
BRANCH  17  22
ATOM     19  C   UNL     1      46.477   2.719   7.230  0.00  0.00    +0.000 A 
ATOM     20  C   UNL     1      46.145   1.565   7.938  0.00  0.00    +0.000 A 
ATOM     21  C   UNL     1      45.258   1.634   9.017  0.00  0.00    +0.000 A 
ATOM     22  C   UNL     1      44.660   2.840   9.400  0.00  0.00    +0.000 A 
ATOM     23  C   UNL     1      45.023   3.997   8.694  0.00  0.00    +0.000 A 
ATOM     24  C   UNL     1      45.926   3.942   7.621  0.00  0.00    +0.000 A 
BRANCH  19  26
ATOM     25  N   UNL     1      48.745   2.423   6.408  0.00  0.00    +0.000 N 
ATOM     26  C   UNL     1      47.437   2.680   6.096  0.00  0.00    +0.000 C 
ATOM     27  O   UNL     1      47.079   2.839   4.940  0.00  0.00    +0.000 OA
ATOM     28  H   UNL     1      49.382   2.311   5.627  0.00  0.00    +0.000 HD
ATOM     29  H   UNL     1      49.031   2.052   7.305  0.00  0.00    +0.000 HD
ENDBRANCH  19  26
ENDBRANCH  17  22
ENDBRANCH  16  17
ENDBRANCH   1  16
TORSDOF 7
ENDMDL
MODEL 3
REMARK VINA RESULT:    -8.520      2.673      4.205
REMARK INTER + INTRA:         -12.932
REMARK INTER:                 -12.175
REMARK INTRA:                  -0.757
REMARK UNBOUND:                -0.926
REMARK  Name = 
REMARK  7 active torsions:
REMARK  status: ('A' for Active; 'I' for Inactive)
REMARK    1  A    between atoms: C_2  and  C_4
REMARK    2  A    between atoms: C_7  and  N_8
REMARK    3  A    between atoms: N_8  and  C_9
REMARK    4  A    between atoms: C_9  and  C_10
REMARK    5  A    between atoms: C_10  and  C_13
REMARK    6  A    between atoms: C_17  and  N_18
REMARK    7  A    between atoms: N_18  and  C_19
REMARK                            x       y       z     vdW  Elec       q    Type
REMARK                         _______ _______ _______ _____ _____    ______ ____
ROOT
ATOM      1  C   UNL     1      43.694   4.205  12.555  0.00  0.00    +0.000 C 
ATOM      2  F   UNL     1      42.730   4.432  13.496  0.00  0.00    +0.000 F 
ATOM      3  F   UNL     1      44.004   2.877  12.670  0.00  0.00    +0.000 F 
ENDROOT
BRANCH   1   4
ATOM      4  C   UNL     1      44.906   5.096  12.762  0.00  0.00    +0.000 A 
ATOM      5  C   UNL     1      46.160   4.547  13.065  0.00  0.00    +0.000 A 
ATOM      6  C   UNL     1      47.253   5.380  13.296  0.00  0.00    +0.000 A 
ATOM      7  C   UNL     1      47.108   6.768  13.228  0.00  0.00    +0.000 A 
ATOM      8  C   UNL     1      45.877   7.343  12.896  0.00  0.00    +0.000 A 
ATOM      9  C   UNL     1      44.781   6.494  12.689  0.00  0.00    +0.000 A 
BRANCH   8  10
ATOM     10  N   UNL     1      45.658   8.731  12.887  0.00  0.00    +0.000 N 
ATOM     11  H   UNL     1      45.431   9.119  13.797  0.00  0.00    +0.000 HD
BRANCH  10  12
ATOM     12  C   UNL     1      45.155   9.525  11.825  0.00  0.00    +0.000 C 
ATOM     13  C   UNL     1      46.065  10.727  11.536  0.00  0.00    +0.000 C 
ATOM     14  C   UNL     1      44.758  11.516  11.551  0.00  0.00    +0.000 C 
ATOM     15  O   UNL     1      44.079  10.417  12.213  0.00  0.00    +0.000 OA
ENDBRANCH  10  12
ENDBRANCH   8  10
ENDBRANCH   1   4
BRANCH   1  16
ATOM     16  C   UNL     1      43.092   4.437  11.145  0.00  0.00    +0.000 C 
BRANCH  16  17
ATOM     17  N   UNL     1      44.049   4.973  10.155  0.00  0.00    +0.000 N 
ATOM     18  H   UNL     1      43.727   5.808   9.667  0.00  0.00    +0.000 HD
BRANCH  17  22
ATOM     19  C   UNL     1      46.439   2.389   7.817  0.00  0.00    +0.000 A 
ATOM     20  C   UNL     1      45.504   1.855   8.702  0.00  0.00    +0.000 A 
ATOM     21  C   UNL     1      44.695   2.703   9.465  0.00  0.00    +0.000 A 
ATOM     22  C   UNL     1      44.776   4.096   9.348  0.00  0.00    +0.000 A 
ATOM     23  C   UNL     1      45.740   4.618   8.471  0.00  0.00    +0.000 A 
ATOM     24  C   UNL     1      46.568   3.776   7.714  0.00  0.00    +0.000 A 
BRANCH  19  26
ATOM     25  N   UNL     1      48.449   2.094   6.483  0.00  0.00    +0.000 N 
ATOM     26  C   UNL     1      47.330   1.511   7.013  0.00  0.00    +0.000 C 
ATOM     27  O   UNL     1      47.096   0.323   6.854  0.00  0.00    +0.000 OA
ATOM     28  H   UNL     1      49.098   1.476   6.008  0.00  0.00    +0.000 HD
ATOM     29  H   UNL     1      48.795   2.994   6.790  0.00  0.00    +0.000 HD
ENDBRANCH  19  26
ENDBRANCH  17  22
ENDBRANCH  16  17
ENDBRANCH   1  16
TORSDOF 7
ENDMDL
MODEL 4
REMARK VINA RESULT:    -8.414      1.869      2.869
REMARK INTER + INTRA:         -12.784
REMARK INTER:                 -11.525
REMARK INTRA:                  -1.259
REMARK UNBOUND:                -0.926
REMARK  Name = 
REMARK  7 active torsions:
REMARK  status: ('A' for Active; 'I' for Inactive)
REMARK    1  A    between atoms: C_2  and  C_4
REMARK    2  A    between atoms: C_7  and  N_8
REMARK    3  A    between atoms: N_8  and  C_9
REMARK    4  A    between atoms: C_9  and  C_10
REMARK    5  A    between atoms: C_10  and  C_13
REMARK    6  A    between atoms: C_17  and  N_18
REMARK    7  A    between atoms: N_18  and  C_19
REMARK                            x       y       z     vdW  Elec       q    Type
REMARK                         _______ _______ _______ _____ _____    ______ ____
ROOT
ATOM      1  C   UNL     1      43.597   5.340  12.257  0.00  0.00    +0.000 C 
ATOM      2  F   UNL     1      43.594   6.632  11.814  0.00  0.00    +0.000 F 
ATOM      3  F   UNL     1      42.607   5.280  13.200  0.00  0.00    +0.000 F 
ENDROOT
BRANCH   1   4
ATOM      4  C   UNL     1      44.949   4.939  12.821  0.00  0.00    +0.000 A 
ATOM      5  C   UNL     1      45.333   3.593  12.885  0.00  0.00    +0.000 A 
ATOM      6  C   UNL     1      46.559   3.238  13.446  0.00  0.00    +0.000 A 
ATOM      7  C   UNL     1      47.414   4.222  13.947  0.00  0.00    +0.000 A 
ATOM      8  C   UNL     1      47.073   5.576  13.866  0.00  0.00    +0.000 A 
ATOM      9  C   UNL     1      45.827   5.916  13.321  0.00  0.00    +0.000 A 
BRANCH   8  10
ATOM     10  N   UNL     1      47.860   6.599  14.422  0.00  0.00    +0.000 N 
ATOM     11  H   UNL     1      47.376   7.166  15.110  0.00  0.00    +0.000 HD
BRANCH  10  12
ATOM     12  C   UNL     1      48.936   7.295  13.814  0.00  0.00    +0.000 C 
ATOM     13  C   UNL     1      48.449   8.524  13.035  0.00  0.00    +0.000 C 
ATOM     14  C   UNL     1      49.353   7.984  11.931  0.00  0.00    +0.000 C 
ATOM     15  O   UNL     1      49.412   6.689  12.585  0.00  0.00    +0.000 OA
ENDBRANCH  10  12
ENDBRANCH   8  10
ENDBRANCH   1   4
BRANCH   1  16
ATOM     16  C   UNL     1      43.203   4.402  11.088  0.00  0.00    +0.000 C 
BRANCH  16  17
ATOM     17  N   UNL     1      43.724   4.819   9.770  0.00  0.00    +0.000 N 
ATOM     18  H   UNL     1      43.020   5.203   9.140  0.00  0.00    +0.000 HD
BRANCH  17  22
ATOM     19  C   UNL     1      46.473   2.354   7.713  0.00  0.00    +0.000 A 
ATOM     20  C   UNL     1      46.472   3.729   7.486  0.00  0.00    +0.000 A 
ATOM     21  C   UNL     1      45.578   4.555   8.177  0.00  0.00    +0.000 A 
ATOM     22  C   UNL     1      44.688   4.040   9.127  0.00  0.00    +0.000 A 
ATOM     23  C   UNL     1      44.685   2.651   9.326  0.00  0.00    +0.000 A 
ATOM     24  C   UNL     1      45.564   1.812   8.625  0.00  0.00    +0.000 A 
BRANCH  19  26
ATOM     25  N   UNL     1      48.578   1.991   6.555  0.00  0.00    +0.000 N 
ATOM     26  C   UNL     1      47.393   1.451   6.975  0.00  0.00    +0.000 C 
ATOM     27  O   UNL     1      47.124   0.276   6.773  0.00  0.00    +0.000 OA
ATOM     28  H   UNL     1      49.240   1.353   6.128  0.00  0.00    +0.000 HD
ATOM     29  H   UNL     1      48.934   2.870   6.908  0.00  0.00    +0.000 HD
ENDBRANCH  19  26
ENDBRANCH  17  22
ENDBRANCH  16  17
ENDBRANCH   1  16
TORSDOF 7
ENDMDL
MODEL 5
REMARK VINA RESULT:    -8.327      2.961      4.444
REMARK INTER + INTRA:         -12.661
REMARK INTER:                 -11.733
REMARK INTRA:                  -0.928
REMARK UNBOUND:                -0.926
REMARK  Name = 
REMARK  7 active torsions:
REMARK  status: ('A' for Active; 'I' for Inactive)
REMARK    1  A    between atoms: C_2  and  C_4
REMARK    2  A    between atoms: C_7  and  N_8
REMARK    3  A    between atoms: N_8  and  C_9
REMARK    4  A    between atoms: C_9  and  C_10
REMARK    5  A    between atoms: C_10  and  C_13
REMARK    6  A    between atoms: C_17  and  N_18
REMARK    7  A    between atoms: N_18  and  C_19
REMARK                            x       y       z     vdW  Elec       q    Type
REMARK                         _______ _______ _______ _____ _____    ______ ____
ROOT
ATOM      1  C   UNL     1      43.922   4.257  12.530  0.00  0.00    +0.000 C 
ATOM      2  F   UNL     1      43.061   4.351  13.586  0.00  0.00    +0.000 F 
ATOM      3  F   UNL     1      44.560   3.057  12.692  0.00  0.00    +0.000 F 
ENDROOT
BRANCH   1   4
ATOM      4  C   UNL     1      44.895   5.422  12.491  0.00  0.00    +0.000 A 
ATOM      5  C   UNL     1      46.279   5.205  12.500  0.00  0.00    +0.000 A 
ATOM      6  C   UNL     1      47.160   6.286  12.508  0.00  0.00    +0.000 A 
ATOM      7  C   UNL     1      46.668   7.594  12.506  0.00  0.00    +0.000 A 
ATOM      8  C   UNL     1      45.293   7.841  12.463  0.00  0.00    +0.000 A 
ATOM      9  C   UNL     1      44.420   6.744  12.479  0.00  0.00    +0.000 A 
BRANCH   8  10
ATOM     10  N   UNL     1      44.744   9.132  12.536  0.00  0.00    +0.000 N 
ATOM     11  H   UNL     1      44.085   9.259  13.297  0.00  0.00    +0.000 HD
BRANCH  10  12
ATOM     12  C   UNL     1      44.516  10.042  11.472  0.00  0.00    +0.000 C 
ATOM     13  C   UNL     1      43.276  10.911  11.723  0.00  0.00    +0.000 C 
ATOM     14  C   UNL     1      42.918  10.535  10.288  0.00  0.00    +0.000 C 
ATOM     15  O   UNL     1      43.878   9.445  10.313  0.00  0.00    +0.000 OA
ENDBRANCH  10  12
ENDBRANCH   8  10
ENDBRANCH   1   4
BRANCH   1  16
ATOM     16  C   UNL     1      43.106   4.193  11.214  0.00  0.00    +0.000 C 
BRANCH  16  17
ATOM     17  N   UNL     1      43.796   4.770  10.041  0.00  0.00    +0.000 N 
ATOM     18  H   UNL     1      43.205   5.353   9.449  0.00  0.00    +0.000 HD
BRANCH  17  22
ATOM     19  C   UNL     1      46.414   2.347   7.775  0.00  0.00    +0.000 A 
ATOM     20  C   UNL     1      46.465   3.733   7.643  0.00  0.00    +0.000 A 
ATOM     21  C   UNL     1      45.616   4.544   8.404  0.00  0.00    +0.000 A 
ATOM     22  C   UNL     1      44.718   4.000   9.330  0.00  0.00    +0.000 A 
ATOM     23  C   UNL     1      44.661   2.601   9.434  0.00  0.00    +0.000 A 
ATOM     24  C   UNL     1      45.496   1.779   8.663  0.00  0.00    +0.000 A 
BRANCH  19  26
ATOM     25  N   UNL     1      48.359   2.051   6.349  0.00  0.00    +0.000 N 
ATOM     26  C   UNL     1      47.286   1.461   6.961  0.00  0.00    +0.000 C 
ATOM     27  O   UNL     1      47.079   0.261   6.863  0.00  0.00    +0.000 OA
ATOM     28  H   UNL     1      49.000   1.431   5.865  0.00  0.00    +0.000 HD
ATOM     29  H   UNL     1      48.695   2.971   6.600  0.00  0.00    +0.000 HD
ENDBRANCH  19  26
ENDBRANCH  17  22
ENDBRANCH  16  17
ENDBRANCH   1  16
TORSDOF 7
ENDMDL
MODEL 6
REMARK VINA RESULT:    -8.074      2.550      3.868
REMARK INTER + INTRA:         -12.305
REMARK INTER:                 -11.404
REMARK INTRA:                  -0.901
REMARK UNBOUND:                -0.926
REMARK  Name = 
REMARK  7 active torsions:
REMARK  status: ('A' for Active; 'I' for Inactive)
REMARK    1  A    between atoms: C_2  and  C_4
REMARK    2  A    between atoms: C_7  and  N_8
REMARK    3  A    between atoms: N_8  and  C_9
REMARK    4  A    between atoms: C_9  and  C_10
REMARK    5  A    between atoms: C_10  and  C_13
REMARK    6  A    between atoms: C_17  and  N_18
REMARK    7  A    between atoms: N_18  and  C_19
REMARK                            x       y       z     vdW  Elec       q    Type
REMARK                         _______ _______ _______ _____ _____    ______ ____
ROOT
ATOM      1  C   UNL     1      43.527   4.737  12.532  0.00  0.00    +0.000 C 
ATOM      2  F   UNL     1      42.508   5.512  13.006  0.00  0.00    +0.000 F 
ATOM      3  F   UNL     1      43.358   3.516  13.129  0.00  0.00    +0.000 F 
ENDROOT
BRANCH   1   4
ATOM      4  C   UNL     1      44.886   5.340  12.840  0.00  0.00    +0.000 A 
ATOM      5  C   UNL     1      45.907   4.565  13.407  0.00  0.00    +0.000 A 
ATOM      6  C   UNL     1      47.135   5.145  13.724  0.00  0.00    +0.000 A 
ATOM      7  C   UNL     1      47.356   6.502  13.480  0.00  0.00    +0.000 A 
ATOM      8  C   UNL     1      46.368   7.293  12.885  0.00  0.00    +0.000 A 
ATOM      9  C   UNL     1      45.131   6.702  12.593  0.00  0.00    +0.000 A 
BRANCH   8  10
ATOM     10  N   UNL     1      46.510   8.676  12.687  0.00  0.00    +0.000 N 
ATOM     11  H   UNL     1      45.781   9.089  12.115  0.00  0.00    +0.000 HD
BRANCH  10  12
ATOM     12  C   UNL     1      47.711   9.431  12.651  0.00  0.00    +0.000 C 
ATOM     13  C   UNL     1      47.498  10.808  12.008  0.00  0.00    +0.000 C 
ATOM     14  C   UNL     1      48.752  10.454  11.214  0.00  0.00    +0.000 C 
ATOM     15  O   UNL     1      48.612   9.055  11.579  0.00  0.00    +0.000 OA
ENDBRANCH  10  12
ENDBRANCH   8  10
ENDBRANCH   1   4
BRANCH   1  16
ATOM     16  C   UNL     1      43.355   4.551  11.003  0.00  0.00    +0.000 C 
BRANCH  16  17
ATOM     17  N   UNL     1      43.707   3.203  10.510  0.00  0.00    +0.000 N 
ATOM     18  H   UNL     1      43.724   2.481  11.230  0.00  0.00    +0.000 HD
BRANCH  17  22
ATOM     19  C   UNL     1      46.574   2.653   7.455  0.00  0.00    +0.000 A 
ATOM     20  C   UNL     1      46.174   3.942   7.804  0.00  0.00    +0.000 A 
ATOM     21  C   UNL     1      45.239   4.134   8.828  0.00  0.00    +0.000 A 
ATOM     22  C   UNL     1      44.705   3.056   9.545  0.00  0.00    +0.000 A 
ATOM     23  C   UNL     1      45.100   1.764   9.164  0.00  0.00    +0.000 A 
ATOM     24  C   UNL     1      46.022   1.561   8.127  0.00  0.00    +0.000 A 
BRANCH  19  26
ATOM     25  N   UNL     1      47.334   3.111   5.192  0.00  0.00    +0.000 N 
ATOM     26  C   UNL     1      47.545   2.419   6.354  0.00  0.00    +0.000 C 
ATOM     27  O   UNL     1      48.501   1.670   6.483  0.00  0.00    +0.000 OA
ATOM     28  H   UNL     1      48.044   3.016   4.474  0.00  0.00    +0.000 HD
ATOM     29  H   UNL     1      46.711   3.906   5.134  0.00  0.00    +0.000 HD
ENDBRANCH  19  26
ENDBRANCH  17  22
ENDBRANCH  16  17
ENDBRANCH   1  16
TORSDOF 7
ENDMDL
MODEL 7
REMARK VINA RESULT:    -7.742      2.633      3.413
REMARK INTER + INTRA:         -11.837
REMARK INTER:                 -11.381
REMARK INTRA:                  -0.455
REMARK UNBOUND:                -0.926
REMARK  Name = 
REMARK  7 active torsions:
REMARK  status: ('A' for Active; 'I' for Inactive)
REMARK    1  A    between atoms: C_2  and  C_4
REMARK    2  A    between atoms: C_7  and  N_8
REMARK    3  A    between atoms: N_8  and  C_9
REMARK    4  A    between atoms: C_9  and  C_10
REMARK    5  A    between atoms: C_10  and  C_13
REMARK    6  A    between atoms: C_17  and  N_18
REMARK    7  A    between atoms: N_18  and  C_19
REMARK                            x       y       z     vdW  Elec       q    Type
REMARK                         _______ _______ _______ _____ _____    ______ ____
ROOT
ATOM      1  C   UNL     1      43.944   4.541  12.391  0.00  0.00    +0.000 C 
ATOM      2  F   UNL     1      43.114   4.483  13.474  0.00  0.00    +0.000 F 
ATOM      3  F   UNL     1      44.770   3.456  12.513  0.00  0.00    +0.000 F 
ENDROOT
BRANCH   1   4
ATOM      4  C   UNL     1      44.717   5.847  12.342  0.00  0.00    +0.000 A 
ATOM      5  C   UNL     1      44.179   6.980  11.717  0.00  0.00    +0.000 A 
ATOM      6  C   UNL     1      44.919   8.159  11.642  0.00  0.00    +0.000 A 
ATOM      7  C   UNL     1      46.203   8.219  12.189  0.00  0.00    +0.000 A 
ATOM      8  C   UNL     1      46.753   7.115  12.847  0.00  0.00    +0.000 A 
ATOM      9  C   UNL     1      46.006   5.930  12.895  0.00  0.00    +0.000 A 
BRANCH   8  10
ATOM     10  N   UNL     1      48.066   7.098  13.348  0.00  0.00    +0.000 N 
ATOM     11  H   UNL     1      48.164   7.521  14.265  0.00  0.00    +0.000 HD
BRANCH  10  12
ATOM     12  C   UNL     1      49.278   7.126  12.612  0.00  0.00    +0.000 C 
ATOM     13  C   UNL     1      50.213   8.241  13.100  0.00  0.00    +0.000 C 
ATOM     14  C   UNL     1      50.348   8.560  11.614  0.00  0.00    +0.000 C 
ATOM     15  O   UNL     1      49.166   7.770  11.316  0.00  0.00    +0.000 OA
ENDBRANCH  10  12
ENDBRANCH   8  10
ENDBRANCH   1   4
BRANCH   1  16
ATOM     16  C   UNL     1      43.106   4.363  11.099  0.00  0.00    +0.000 C 
BRANCH  16  17
ATOM     17  N   UNL     1      43.777   4.831   9.869  0.00  0.00    +0.000 N 
ATOM     18  H   UNL     1      43.207   5.442   9.283  0.00  0.00    +0.000 HD
BRANCH  17  22
ATOM     19  C   UNL     1      46.412   2.266   7.787  0.00  0.00    +0.000 A 
ATOM     20  C   UNL     1      45.461   1.727   8.652  0.00  0.00    +0.000 A 
ATOM     21  C   UNL     1      44.572   2.568   9.330  0.00  0.00    +0.000 A 
ATOM     22  C   UNL     1      44.588   3.956   9.144  0.00  0.00    +0.000 A 
ATOM     23  C   UNL     1      45.567   4.484   8.289  0.00  0.00    +0.000 A 
ATOM     24  C   UNL     1      46.475   3.651   7.618  0.00  0.00    +0.000 A 
BRANCH  19  26
ATOM     25  N   UNL     1      48.434   2.029   6.461  0.00  0.00    +0.000 N 
ATOM     26  C   UNL     1      47.385   1.398   7.074  0.00  0.00    +0.000 C 
ATOM     27  O   UNL     1      47.277   0.182   7.055  0.00  0.00    +0.000 OA
ATOM     28  H   UNL     1      49.142   1.431   6.049  0.00  0.00    +0.000 HD
ATOM     29  H   UNL     1      48.686   2.989   6.656  0.00  0.00    +0.000 HD
ENDBRANCH  19  26
ENDBRANCH  17  22
ENDBRANCH  16  17
ENDBRANCH   1  16
TORSDOF 7
ENDMDL
MODEL 8
REMARK VINA RESULT:    -7.202      1.983      7.679
REMARK INTER + INTRA:         -11.076
REMARK INTER:                 -10.207
REMARK INTRA:                  -0.869
REMARK UNBOUND:                -0.926
REMARK  Name = 
REMARK  7 active torsions:
REMARK  status: ('A' for Active; 'I' for Inactive)
REMARK    1  A    between atoms: C_2  and  C_4
REMARK    2  A    between atoms: C_7  and  N_8
REMARK    3  A    between atoms: N_8  and  C_9
REMARK    4  A    between atoms: C_9  and  C_10
REMARK    5  A    between atoms: C_10  and  C_13
REMARK    6  A    between atoms: C_17  and  N_18
REMARK    7  A    between atoms: N_18  and  C_19
REMARK                            x       y       z     vdW  Elec       q    Type
REMARK                         _______ _______ _______ _____ _____    ______ ____
ROOT
ATOM      1  C   UNL     1      45.190   6.074  12.040  0.00  0.00    +0.000 C 
ATOM      2  F   UNL     1      44.473   6.082  13.202  0.00  0.00    +0.000 F 
ATOM      3  F   UNL     1      44.879   7.253  11.418  0.00  0.00    +0.000 F 
ENDROOT
BRANCH   1   4
ATOM      4  C   UNL     1      44.858   4.868  11.179  0.00  0.00    +0.000 A 
ATOM      5  C   UNL     1      44.184   3.763  11.717  0.00  0.00    +0.000 A 
ATOM      6  C   UNL     1      43.925   2.645  10.925  0.00  0.00    +0.000 A 
ATOM      7  C   UNL     1      44.335   2.618   9.590  0.00  0.00    +0.000 A 
ATOM      8  C   UNL     1      44.980   3.719   9.017  0.00  0.00    +0.000 A 
ATOM      9  C   UNL     1      45.254   4.826   9.832  0.00  0.00    +0.000 A 
BRANCH   8  10
ATOM     10  N   UNL     1      45.479   3.716   7.704  0.00  0.00    +0.000 N 
ATOM     11  H   UNL     1      44.778   3.529   6.995  0.00  0.00    +0.000 HD
BRANCH  10  12
ATOM     12  C   UNL     1      46.785   3.369   7.271  0.00  0.00    +0.000 C 
ATOM     13  C   UNL     1      46.802   2.959   5.792  0.00  0.00    +0.000 C 
ATOM     14  C   UNL     1      47.625   1.776   6.294  0.00  0.00    +0.000 C 
ATOM     15  O   UNL     1      47.199   2.033   7.659  0.00  0.00    +0.000 OA
ENDBRANCH  10  12
ENDBRANCH   8  10
ENDBRANCH   1   4
BRANCH   1  16
ATOM     16  C   UNL     1      46.703   6.094  12.376  0.00  0.00    +0.000 C 
BRANCH  16  17
ATOM     17  N   UNL     1      47.020   6.609  13.725  0.00  0.00    +0.000 N 
ATOM     18  H   UNL     1      47.450   7.534  13.733  0.00  0.00    +0.000 HD
BRANCH  17  22
ATOM     19  C   UNL     1      48.465   4.126  16.824  0.00  0.00    +0.000 A 
ATOM     20  C   UNL     1      47.518   3.634  15.927  0.00  0.00    +0.000 A 
ATOM     21  C   UNL     1      47.048   4.443  14.887  0.00  0.00    +0.000 A 
ATOM     22  C   UNL     1      47.528   5.745  14.696  0.00  0.00    +0.000 A 
ATOM     23  C   UNL     1      48.463   6.234  15.621  0.00  0.00    +0.000 A 
ATOM     24  C   UNL     1      48.927   5.437  16.679  0.00  0.00    +0.000 A 
BRANCH  19  26
ATOM     25  N   UNL     1      48.307   3.433  19.147  0.00  0.00    +0.000 N 
ATOM     26  C   UNL     1      48.962   3.298  17.953  0.00  0.00    +0.000 C 
ATOM     27  O   UNL     1      49.889   2.513  17.822  0.00  0.00    +0.000 OA
ATOM     28  H   UNL     1      48.591   2.806  19.892  0.00  0.00    +0.000 HD
ATOM     29  H   UNL     1      47.403   3.879  19.228  0.00  0.00    +0.000 HD
ENDBRANCH  19  26
ENDBRANCH  17  22
ENDBRANCH  16  17
ENDBRANCH   1  16
TORSDOF 7
ENDMDL
