MODEL 1
REMARK VINA RESULT:    -9.378      0.000      0.000
REMARK INTER + INTRA:         -13.972
REMARK INTER:                 -12.667
REMARK INTRA:                  -1.305
REMARK UNBOUND:                -1.305
REMARK  Name = 
REMARK  6 active torsions:
REMARK  status: ('A' for Active; 'I' for Inactive)
REMARK    1  A    between atoms: C_2  and  C_4
REMARK    2  A    between atoms: C_7  and  O_8
REMARK    3  A    between atoms: O_8  and  C_9
REMARK    4  A    between atoms: C_9  and  C_10
REMARK    5  A    between atoms: C_10  and  C_13
REMARK    6  A    between atoms: C_17  and  C_18
REMARK                            x       y       z     vdW  Elec       q    Type
REMARK                         _______ _______ _______ _____ _____    ______ ____
ROOT
ATOM      1  C   UNL     1      43.737   4.666  12.499  0.00  0.00    +0.000 C 
ATOM      2  F   UNL     1      42.849   5.427  13.207  0.00  0.00    +0.000 F 
ATOM      3  F   UNL     1      43.560   3.387  12.937  0.00  0.00    +0.000 F 
ENDROOT
BRANCH   1   4
ATOM      4  C   UNL     1      45.168   5.144  12.701  0.00  0.00    +0.000 A 
ATOM      5  C   UNL     1      45.798   6.016  11.800  0.00  0.00    +0.000 A 
ATOM      6  C   UNL     1      47.091   6.483  12.053  0.00  0.00    +0.000 A 
ATOM      7  C   UNL     1      47.744   6.132  13.233  0.00  0.00    +0.000 A 
ATOM      8  C   UNL     1      47.120   5.310  14.180  0.00  0.00    +0.000 A 
ATOM      9  C   UNL     1      45.855   4.775  13.866  0.00  0.00    +0.000 A 
BRANCH   8  10
ATOM     10  C   UNL     1      47.733   5.074  15.498  0.00  0.00    +0.000 A 
ATOM     11  C   UNL     1      48.686   5.962  16.025  0.00  0.00    +0.000 A 
ATOM     12  C   UNL     1      49.289   5.731  17.260  0.00  0.00    +0.000 A 
ATOM     13  C   UNL     1      48.949   4.602  17.993  0.00  0.00    +0.000 A 
ATOM     14  C   UNL     1      48.022   3.708  17.482  0.00  0.00    +0.000 A 
ATOM     15  F   UNL     1      47.695   2.616  18.186  0.00  0.00    +0.000 F 
ATOM     16  C   UNL     1      47.422   3.924  16.247  0.00  0.00    +0.000 A 
ENDBRANCH   8  10
ENDBRANCH   1   4
BRANCH   1  17
ATOM     17  C   UNL     1      43.358   4.743  11.008  0.00  0.00    +0.000 C 
BRANCH  17  18
ATOM     18  O   UNL     1      43.409   3.449  10.383  0.00  0.00    +0.000 OA
BRANCH  18  22
ATOM     19  C   UNL     1      46.431   2.678   7.609  0.00  0.00    +0.000 A 
ATOM     20  C   UNL     1      45.962   3.988   7.740  0.00  0.00    +0.000 A 
ATOM     21  C   UNL     1      44.945   4.282   8.652  0.00  0.00    +0.000 A 
ATOM     22  C   UNL     1      44.389   3.272   9.443  0.00  0.00    +0.000 A 
ATOM     23  C   UNL     1      44.843   1.959   9.289  0.00  0.00    +0.000 A 
ATOM     24  C   UNL     1      45.857   1.657   8.373  0.00  0.00    +0.000 A 
BRANCH  19  26
ATOM     25  N   UNL     1      47.581   3.078   5.504  0.00  0.00    +0.000 N 
ATOM     26  C   UNL     1      47.516   2.340   6.652  0.00  0.00    +0.000 C 
ATOM     27  O   UNL     1      48.330   1.457   6.885  0.00  0.00    +0.000 OA
ATOM     28  H   UNL     1      48.369   2.905   4.901  0.00  0.00    +0.000 HD
ATOM     29  H   UNL     1      47.094   3.964   5.398  0.00  0.00    +0.000 HD
ENDBRANCH  19  26
ENDBRANCH  18  22
ENDBRANCH  17  18
ENDBRANCH   1  17
TORSDOF 6
ENDMDL
MODEL 2
REMARK VINA RESULT:    -9.372      0.754      1.249
REMARK INTER + INTRA:         -13.965
REMARK INTER:                 -12.698
REMARK INTRA:                  -1.266
REMARK UNBOUND:                -1.305
REMARK  Name = 
REMARK  6 active torsions:
REMARK  status: ('A' for Active; 'I' for Inactive)
REMARK    1  A    between atoms: C_2  and  C_4
REMARK    2  A    between atoms: C_7  and  O_8
REMARK    3  A    between atoms: O_8  and  C_9
REMARK    4  A    between atoms: C_9  and  C_10
REMARK    5  A    between atoms: C_10  and  C_13
REMARK    6  A    between atoms: C_17  and  C_18
REMARK                            x       y       z     vdW  Elec       q    Type
REMARK                         _______ _______ _______ _____ _____    ______ ____
ROOT
ATOM      1  C   UNL     1      43.645   5.505  12.133  0.00  0.00    +0.000 C 
ATOM      2  F   UNL     1      43.089   6.540  11.435  0.00  0.00    +0.000 F 
ATOM      3  F   UNL     1      42.941   5.425  13.299  0.00  0.00    +0.000 F 
ENDROOT
BRANCH   1   4
ATOM      4  C   UNL     1      45.130   5.729  12.378  0.00  0.00    +0.000 A 
ATOM      5  C   UNL     1      45.919   6.508  11.519  0.00  0.00    +0.000 A 
ATOM      6  C   UNL     1      47.265   6.743  11.812  0.00  0.00    +0.000 A 
ATOM      7  C   UNL     1      47.821   6.253  12.993  0.00  0.00    +0.000 A 
ATOM      8  C   UNL     1      47.045   5.520  13.900  0.00  0.00    +0.000 A 
ATOM      9  C   UNL     1      45.716   5.216  13.544  0.00  0.00    +0.000 A 
BRANCH   8  10
ATOM     10  C   UNL     1      47.576   5.146  15.221  0.00  0.00    +0.000 A 
ATOM     11  C   UNL     1      48.579   5.911  15.843  0.00  0.00    +0.000 A 
ATOM     12  C   UNL     1      49.104   5.548  17.082  0.00  0.00    +0.000 A 
ATOM     13  C   UNL     1      48.636   4.408  17.722  0.00  0.00    +0.000 A 
ATOM     14  C   UNL     1      47.660   3.635  17.116  0.00  0.00    +0.000 A 
ATOM     15  F   UNL     1      47.210   2.533  17.732  0.00  0.00    +0.000 F 
ATOM     16  C   UNL     1      47.135   3.982  15.877  0.00  0.00    +0.000 A 
ENDBRANCH   8  10
ENDBRANCH   1   4
BRANCH   1  17
ATOM     17  C   UNL     1      43.430   4.209  11.328  0.00  0.00    +0.000 C 
BRANCH  17  18
ATOM     18  O   UNL     1      43.518   4.447   9.913  0.00  0.00    +0.000 OA
BRANCH  18  22
ATOM     19  C   UNL     1      46.434   2.427   7.713  0.00  0.00    +0.000 A 
ATOM     20  C   UNL     1      45.602   1.687   8.557  0.00  0.00    +0.000 A 
ATOM     21  C   UNL     1      44.620   2.331   9.315  0.00  0.00    +0.000 A 
ATOM     22  C   UNL     1      44.460   3.717   9.237  0.00  0.00    +0.000 A 
ATOM     23  C   UNL     1      45.313   4.456   8.412  0.00  0.00    +0.000 A 
ATOM     24  C   UNL     1      46.301   3.818   7.654  0.00  0.00    +0.000 A 
BRANCH  19  26
ATOM     25  N   UNL     1      48.546   2.533   6.513  0.00  0.00    +0.000 N 
ATOM     26  C   UNL     1      47.481   1.767   6.891  0.00  0.00    +0.000 C 
ATOM     27  O   UNL     1      47.408   0.585   6.582  0.00  0.00    +0.000 OA
ATOM     28  H   UNL     1      49.294   2.061   6.031  0.00  0.00    +0.000 HD
ATOM     29  H   UNL     1      48.761   3.424   6.954  0.00  0.00    +0.000 HD
ENDBRANCH  19  26
ENDBRANCH  18  22
ENDBRANCH  17  18
ENDBRANCH   1  17
TORSDOF 6
ENDMDL
MODEL 3
REMARK VINA RESULT:    -9.284      2.346      4.368
REMARK INTER + INTRA:         -13.845
REMARK INTER:                 -12.560
REMARK INTRA:                  -1.285
REMARK UNBOUND:                -1.305
REMARK  Name = 
REMARK  6 active torsions:
REMARK  status: ('A' for Active; 'I' for Inactive)
REMARK    1  A    between atoms: C_2  and  C_4
REMARK    2  A    between atoms: C_7  and  O_8
REMARK    3  A    between atoms: O_8  and  C_9
REMARK    4  A    between atoms: C_9  and  C_10
REMARK    5  A    between atoms: C_10  and  C_13
REMARK    6  A    between atoms: C_17  and  C_18
REMARK                            x       y       z     vdW  Elec       q    Type
REMARK                         _______ _______ _______ _____ _____    ______ ____
ROOT
ATOM      1  C   UNL     1      43.400   4.553  12.729  0.00  0.00    +0.000 C 
ATOM      2  F   UNL     1      42.412   5.471  12.508  0.00  0.00    +0.000 F 
ATOM      3  F   UNL     1      43.014   3.852  13.833  0.00  0.00    +0.000 F 
ENDROOT
BRANCH   1   4
ATOM      4  C   UNL     1      44.752   5.224  12.924  0.00  0.00    +0.000 A 
ATOM      5  C   UNL     1      45.911   4.493  13.226  0.00  0.00    +0.000 A 
ATOM      6  C   UNL     1      47.147   5.137  13.335  0.00  0.00    +0.000 A 
ATOM      7  C   UNL     1      47.248   6.505  13.086  0.00  0.00    +0.000 A 
ATOM      8  C   UNL     1      46.120   7.253  12.726  0.00  0.00    +0.000 A 
ATOM      9  C   UNL     1      44.869   6.604  12.711  0.00  0.00    +0.000 A 
BRANCH   8  10
ATOM     10  C   UNL     1      46.247   8.656  12.299  0.00  0.00    +0.000 A 
ATOM     11  C   UNL     1      47.508   9.259  12.152  0.00  0.00    +0.000 A 
ATOM     12  C   UNL     1      47.635  10.594  11.773  0.00  0.00    +0.000 A 
ATOM     13  C   UNL     1      46.498  11.354  11.535  0.00  0.00    +0.000 A 
ATOM     14  C   UNL     1      45.247  10.780  11.690  0.00  0.00    +0.000 A 
ATOM     15  F   UNL     1      44.148  11.514  11.464  0.00  0.00    +0.000 F 
ATOM     16  C   UNL     1      45.108   9.452  12.077  0.00  0.00    +0.000 A 
ENDBRANCH   8  10
ENDBRANCH   1   4
BRANCH   1  17
ATOM     17  C   UNL     1      43.451   3.599  11.521  0.00  0.00    +0.000 C 
BRANCH  17  18
ATOM     18  O   UNL     1      43.644   4.316  10.290  0.00  0.00    +0.000 OA
BRANCH  18  22
ATOM     19  C   UNL     1      46.449   2.512   7.780  0.00  0.00    +0.000 A 
ATOM     20  C   UNL     1      46.348   3.906   7.776  0.00  0.00    +0.000 A 
ATOM     21  C   UNL     1      45.414   4.544   8.597  0.00  0.00    +0.000 A 
ATOM     22  C   UNL     1      44.575   3.797   9.429  0.00  0.00    +0.000 A 
ATOM     23  C   UNL     1      44.662   2.402   9.410  0.00  0.00    +0.000 A 
ATOM     24  C   UNL     1      45.591   1.757   8.586  0.00  0.00    +0.000 A 
BRANCH  19  26
ATOM     25  N   UNL     1      48.549   2.513   6.554  0.00  0.00    +0.000 N 
ATOM     26  C   UNL     1      47.438   1.809   6.923  0.00  0.00    +0.000 C 
ATOM     27  O   UNL     1      47.281   0.646   6.578  0.00  0.00    +0.000 OA
ATOM     28  H   UNL     1      49.257   2.007   6.048  0.00  0.00    +0.000 HD
ATOM     29  H   UNL     1      48.830   3.372   7.020  0.00  0.00    +0.000 HD
ENDBRANCH  19  26
ENDBRANCH  18  22
ENDBRANCH  17  18
ENDBRANCH   1  17
TORSDOF 6
ENDMDL
MODEL 4
REMARK VINA RESULT:    -8.984      2.514      4.187
REMARK INTER + INTRA:         -13.440
REMARK INTER:                 -12.233
REMARK INTRA:                  -1.207
REMARK UNBOUND:                -1.305
REMARK  Name = 
REMARK  6 active torsions:
REMARK  status: ('A' for Active; 'I' for Inactive)
REMARK    1  A    between atoms: C_2  and  C_4
REMARK    2  A    between atoms: C_7  and  O_8
REMARK    3  A    between atoms: O_8  and  C_9
REMARK    4  A    between atoms: C_9  and  C_10
REMARK    5  A    between atoms: C_10  and  C_13
REMARK    6  A    between atoms: C_17  and  C_18
REMARK                            x       y       z     vdW  Elec       q    Type
REMARK                         _______ _______ _______ _____ _____    ______ ____
ROOT
ATOM      1  C   UNL     1      43.527   5.343  12.277  0.00  0.00    +0.000 C 
ATOM      2  F   UNL     1      43.103   6.304  11.403  0.00  0.00    +0.000 F 
ATOM      3  F   UNL     1      42.626   5.350  13.300  0.00  0.00    +0.000 F 
ENDROOT
BRANCH   1   4
ATOM      4  C   UNL     1      44.944   5.615  12.764  0.00  0.00    +0.000 A 
ATOM      5  C   UNL     1      45.709   4.638  13.417  0.00  0.00    +0.000 A 
ATOM      6  C   UNL     1      47.029   4.905  13.792  0.00  0.00    +0.000 A 
ATOM      7  C   UNL     1      47.615   6.128  13.467  0.00  0.00    +0.000 A 
ATOM      8  C   UNL     1      46.896   7.103  12.765  0.00  0.00    +0.000 A 
ATOM      9  C   UNL     1      45.540   6.851  12.477  0.00  0.00    +0.000 A 
BRANCH   8  10
ATOM     10  C   UNL     1      47.557   8.323  12.273  0.00  0.00    +0.000 A 
ATOM     11  C   UNL     1      46.853   9.535  12.159  0.00  0.00    +0.000 A 
ATOM     12  C   UNL     1      47.467  10.687  11.670  0.00  0.00    +0.000 A 
ATOM     13  C   UNL     1      48.800  10.647  11.283  0.00  0.00    +0.000 A 
ATOM     14  C   UNL     1      49.503   9.458  11.374  0.00  0.00    +0.000 A 
ATOM     15  F   UNL     1      50.789   9.418  10.997  0.00  0.00    +0.000 F 
ATOM     16  C   UNL     1      48.900   8.301  11.852  0.00  0.00    +0.000 A 
ENDBRANCH   8  10
ENDBRANCH   1   4
BRANCH   1  17
ATOM     17  C   UNL     1      43.465   3.979  11.563  0.00  0.00    +0.000 C 
BRANCH  17  18
ATOM     18  O   UNL     1      43.386   4.134  10.135  0.00  0.00    +0.000 OA
BRANCH  18  22
ATOM     19  C   UNL     1      46.383   2.430   7.783  0.00  0.00    +0.000 A 
ATOM     20  C   UNL     1      45.613   1.593   8.594  0.00  0.00    +0.000 A 
ATOM     21  C   UNL     1      44.606   2.129   9.402  0.00  0.00    +0.000 A 
ATOM     22  C   UNL     1      44.359   3.505   9.406  0.00  0.00    +0.000 A 
ATOM     23  C   UNL     1      45.150   4.342   8.613  0.00  0.00    +0.000 A 
ATOM     24  C   UNL     1      46.163   3.811   7.806  0.00  0.00    +0.000 A 
BRANCH  19  26
ATOM     25  N   UNL     1      48.444   2.747   6.532  0.00  0.00    +0.000 N 
ATOM     26  C   UNL     1      47.454   1.885   6.910  0.00  0.00    +0.000 C 
ATOM     27  O   UNL     1      47.466   0.712   6.560  0.00  0.00    +0.000 OA
ATOM     28  H   UNL     1      49.213   2.353   6.014  0.00  0.00    +0.000 HD
ATOM     29  H   UNL     1      48.600   3.636   7.000  0.00  0.00    +0.000 HD
ENDBRANCH  19  26
ENDBRANCH  18  22
ENDBRANCH  17  18
ENDBRANCH   1  17
TORSDOF 6
ENDMDL
MODEL 5
REMARK VINA RESULT:    -8.639      2.350      3.132
REMARK INTER + INTRA:         -12.974
REMARK INTER:                 -12.002
REMARK INTRA:                  -0.972
REMARK UNBOUND:                -1.305
REMARK  Name = 
REMARK  6 active torsions:
REMARK  status: ('A' for Active; 'I' for Inactive)
REMARK    1  A    between atoms: C_2  and  C_4
REMARK    2  A    between atoms: C_7  and  O_8
REMARK    3  A    between atoms: O_8  and  C_9
REMARK    4  A    between atoms: C_9  and  C_10
REMARK    5  A    between atoms: C_10  and  C_13
REMARK    6  A    between atoms: C_17  and  C_18
REMARK                            x       y       z     vdW  Elec       q    Type
REMARK                         _______ _______ _______ _____ _____    ______ ____
ROOT
ATOM      1  C   UNL     1      44.309   3.721  12.424  0.00  0.00    +0.000 C 
ATOM      2  F   UNL     1      43.641   3.661  13.615  0.00  0.00    +0.000 F 
ATOM      3  F   UNL     1      45.382   2.891  12.560  0.00  0.00    +0.000 F 
ENDROOT
BRANCH   1   4
ATOM      4  C   UNL     1      44.728   5.145  12.089  0.00  0.00    +0.000 A 
ATOM      5  C   UNL     1      43.797   6.135  11.741  0.00  0.00    +0.000 A 
ATOM      6  C   UNL     1      44.213   7.447  11.502  0.00  0.00    +0.000 A 
ATOM      7  C   UNL     1      45.553   7.797  11.665  0.00  0.00    +0.000 A 
ATOM      8  C   UNL     1      46.498   6.845  12.068  0.00  0.00    +0.000 A 
ATOM      9  C   UNL     1      46.075   5.509  12.214  0.00  0.00    +0.000 A 
BRANCH   8  10
ATOM     10  C   UNL     1      47.876   7.242  12.404  0.00  0.00    +0.000 A 
ATOM     11  C   UNL     1      48.701   7.873  11.457  0.00  0.00    +0.000 A 
ATOM     12  C   UNL     1      50.014   8.228  11.761  0.00  0.00    +0.000 A 
ATOM     13  C   UNL     1      50.528   7.955  13.022  0.00  0.00    +0.000 A 
ATOM     14  C   UNL     1      49.733   7.321  13.962  0.00  0.00    +0.000 A 
ATOM     15  F   UNL     1      50.228   7.055  15.179  0.00  0.00    +0.000 F 
ATOM     16  C   UNL     1      48.425   6.954  13.667  0.00  0.00    +0.000 A 
ENDBRANCH   8  10
ENDBRANCH   1   4
BRANCH   1  17
ATOM     17  C   UNL     1      43.383   3.168  11.324  0.00  0.00    +0.000 C 
BRANCH  17  18
ATOM     18  O   UNL     1      43.564   3.870  10.081  0.00  0.00    +0.000 OA
BRANCH  18  22
ATOM     19  C   UNL     1      46.585   2.658   7.469  0.00  0.00    +0.000 A 
ATOM     20  C   UNL     1      45.930   1.686   8.231  0.00  0.00    +0.000 A 
ATOM     21  C   UNL     1      44.919   2.056   9.122  0.00  0.00    +0.000 A 
ATOM     22  C   UNL     1      44.553   3.398   9.260  0.00  0.00    +0.000 A 
ATOM     23  C   UNL     1      45.229   4.369   8.516  0.00  0.00    +0.000 A 
ATOM     24  C   UNL     1      46.246   4.005   7.626  0.00  0.00    +0.000 A 
BRANCH  19  26
ATOM     25  N   UNL     1      47.783   3.069   5.394  0.00  0.00    +0.000 N 
ATOM     26  C   UNL     1      47.658   2.291   6.509  0.00  0.00    +0.000 C 
ATOM     27  O   UNL     1      48.411   1.349   6.714  0.00  0.00    +0.000 OA
ATOM     28  H   UNL     1      48.565   2.871   4.791  0.00  0.00    +0.000 HD
ATOM     29  H   UNL     1      47.354   3.988   5.319  0.00  0.00    +0.000 HD
ENDBRANCH  19  26
ENDBRANCH  18  22
ENDBRANCH  17  18
ENDBRANCH   1  17
TORSDOF 6
ENDMDL
MODEL 6
REMARK VINA RESULT:    -8.160      3.797      7.617
REMARK INTER + INTRA:         -12.327
REMARK INTER:                 -10.959
REMARK INTRA:                  -1.369
REMARK UNBOUND:                -1.305
REMARK  Name = 
REMARK  6 active torsions:
REMARK  status: ('A' for Active; 'I' for Inactive)
REMARK    1  A    between atoms: C_2  and  C_4
REMARK    2  A    between atoms: C_7  and  O_8
REMARK    3  A    between atoms: O_8  and  C_9
REMARK    4  A    between atoms: C_9  and  C_10
REMARK    5  A    between atoms: C_10  and  C_13
REMARK    6  A    between atoms: C_17  and  C_18
REMARK                            x       y       z     vdW  Elec       q    Type
REMARK                         _______ _______ _______ _____ _____    ______ ____
ROOT
ATOM      1  C   UNL     1      44.637   6.818  11.381  0.00  0.00    +0.000 C 
ATOM      2  F   UNL     1      43.440   7.477  11.346  0.00  0.00    +0.000 F 
ATOM      3  F   UNL     1      45.424   7.429  10.450  0.00  0.00    +0.000 F 
ENDROOT
BRANCH   1   4
ATOM      4  C   UNL     1      44.466   5.333  11.097  0.00  0.00    +0.000 A 
ATOM      5  C   UNL     1      43.467   4.565  11.713  0.00  0.00    +0.000 A 
ATOM      6  C   UNL     1      43.300   3.218  11.379  0.00  0.00    +0.000 A 
ATOM      7  C   UNL     1      44.089   2.641  10.386  0.00  0.00    +0.000 A 
ATOM      8  C   UNL     1      45.057   3.395   9.711  0.00  0.00    +0.000 A 
ATOM      9  C   UNL     1      45.273   4.725  10.125  0.00  0.00    +0.000 A 
BRANCH   8  10
ATOM     10  C   UNL     1      45.775   2.841   8.550  0.00  0.00    +0.000 A 
ATOM     11  C   UNL     1      46.181   3.666   7.487  0.00  0.00    +0.000 A 
ATOM     12  C   UNL     1      46.838   3.144   6.374  0.00  0.00    +0.000 A 
ATOM     13  C   UNL     1      47.098   1.782   6.303  0.00  0.00    +0.000 A 
ATOM     14  C   UNL     1      46.691   0.953   7.335  0.00  0.00    +0.000 A 
ATOM     15  F   UNL     1      46.940  -0.362   7.266  0.00  0.00    +0.000 F 
ATOM     16  C   UNL     1      46.028   1.461   8.445  0.00  0.00    +0.000 A 
ENDBRANCH   8  10
ENDBRANCH   1   4
BRANCH   1  17
ATOM     17  C   UNL     1      45.260   7.023  12.776  0.00  0.00    +0.000 C 
BRANCH  17  18
ATOM     18  O   UNL     1      46.661   6.700  12.779  0.00  0.00    +0.000 OA
BRANCH  18  22
ATOM     19  C   UNL     1      47.787   3.933  15.693  0.00  0.00    +0.000 A 
ATOM     20  C   UNL     1      48.174   5.266  15.853  0.00  0.00    +0.000 A 
ATOM     21  C   UNL     1      47.822   6.219  14.894  0.00  0.00    +0.000 A 
ATOM     22  C   UNL     1      47.081   5.849  13.767  0.00  0.00    +0.000 A 
ATOM     23  C   UNL     1      46.720   4.510  13.598  0.00  0.00    +0.000 A 
ATOM     24  C   UNL     1      47.073   3.550  14.554  0.00  0.00    +0.000 A 
BRANCH  19  26
ATOM     25  N   UNL     1      47.357   2.832  17.819  0.00  0.00    +0.000 N 
ATOM     26  C   UNL     1      48.141   2.902  16.703  0.00  0.00    +0.000 C 
ATOM     27  O   UNL     1      49.079   2.133  16.538  0.00  0.00    +0.000 OA
ATOM     28  H   UNL     1      47.546   2.076  18.457  0.00  0.00    +0.000 HD
ATOM     29  H   UNL     1      46.441   3.270  17.869  0.00  0.00    +0.000 HD
ENDBRANCH  19  26
ENDBRANCH  18  22
ENDBRANCH  17  18
ENDBRANCH   1  17
TORSDOF 6
ENDMDL
MODEL 7
REMARK VINA RESULT:    -7.998      2.707      3.689
REMARK INTER + INTRA:         -12.109
REMARK INTER:                 -11.242
REMARK INTRA:                  -0.867
REMARK UNBOUND:                -1.305
REMARK  Name = 
REMARK  6 active torsions:
REMARK  status: ('A' for Active; 'I' for Inactive)
REMARK    1  A    between atoms: C_2  and  C_4
REMARK    2  A    between atoms: C_7  and  O_8
REMARK    3  A    between atoms: O_8  and  C_9
REMARK    4  A    between atoms: C_9  and  C_10
REMARK    5  A    between atoms: C_10  and  C_13
REMARK    6  A    between atoms: C_17  and  C_18
REMARK                            x       y       z     vdW  Elec       q    Type
REMARK                         _______ _______ _______ _____ _____    ______ ____
ROOT
ATOM      1  C   UNL     1      44.637   6.149  11.419  0.00  0.00    +0.000 C 
ATOM      2  F   UNL     1      45.186   6.537  10.229  0.00  0.00    +0.000 F 
ATOM      3  F   UNL     1      43.762   7.137  11.762  0.00  0.00    +0.000 F 
ENDROOT
BRANCH   1   4
ATOM      4  C   UNL     1      45.704   5.936  12.484  0.00  0.00    +0.000 A 
ATOM      5  C   UNL     1      45.607   4.919  13.444  0.00  0.00    +0.000 A 
ATOM      6  C   UNL     1      46.637   4.714  14.366  0.00  0.00    +0.000 A 
ATOM      7  C   UNL     1      47.797   5.483  14.301  0.00  0.00    +0.000 A 
ATOM      8  C   UNL     1      47.950   6.469  13.318  0.00  0.00    +0.000 A 
ATOM      9  C   UNL     1      46.864   6.722  12.456  0.00  0.00    +0.000 A 
BRANCH   8  10
ATOM     10  C   UNL     1      49.234   7.167  13.138  0.00  0.00    +0.000 A 
ATOM     11  C   UNL     1      50.000   7.574  14.245  0.00  0.00    +0.000 A 
ATOM     12  C   UNL     1      51.204   8.257  14.081  0.00  0.00    +0.000 A 
ATOM     13  C   UNL     1      51.664   8.548  12.804  0.00  0.00    +0.000 A 
ATOM     14  C   UNL     1      50.915   8.167  11.704  0.00  0.00    +0.000 A 
ATOM     15  F   UNL     1      51.356   8.449  10.470  0.00  0.00    +0.000 F 
ATOM     16  C   UNL     1      49.708   7.493  11.854  0.00  0.00    +0.000 A 
ENDBRANCH   8  10
ENDBRANCH   1   4
BRANCH   1  17
ATOM     17  C   UNL     1      43.853   4.844  11.186  0.00  0.00    +0.000 C 
BRANCH  17  18
ATOM     18  O   UNL     1      43.577   4.636   9.790  0.00  0.00    +0.000 OA
BRANCH  18  22
ATOM     19  C   UNL     1      46.358   2.224   7.824  0.00  0.00    +0.000 A 
ATOM     20  C   UNL     1      46.336   3.590   7.533  0.00  0.00    +0.000 A 
ATOM     21  C   UNL     1      45.413   4.427   8.166  0.00  0.00    +0.000 A 
ATOM     22  C   UNL     1      44.505   3.908   9.094  0.00  0.00    +0.000 A 
ATOM     23  C   UNL     1      44.514   2.536   9.361  0.00  0.00    +0.000 A 
ATOM     24  C   UNL     1      45.433   1.692   8.727  0.00  0.00    +0.000 A 
BRANCH  19  26
ATOM     25  N   UNL     1      48.358   1.896   6.479  0.00  0.00    +0.000 N 
ATOM     26  C   UNL     1      47.334   1.313   7.171  0.00  0.00    +0.000 C 
ATOM     27  O   UNL     1      47.243   0.096   7.264  0.00  0.00    +0.000 OA
ATOM     28  H   UNL     1      49.064   1.278   6.113  0.00  0.00    +0.000 HD
ATOM     29  H   UNL     1      48.604   2.876   6.593  0.00  0.00    +0.000 HD
ENDBRANCH  19  26
ENDBRANCH  18  22
ENDBRANCH  17  18
ENDBRANCH   1  17
TORSDOF 6
ENDMDL
MODEL 8
REMARK VINA RESULT:    -7.979      3.700      7.675
REMARK INTER + INTRA:         -12.083
REMARK INTER:                 -11.194
REMARK INTRA:                  -0.889
REMARK UNBOUND:                -1.305
REMARK  Name = 
REMARK  6 active torsions:
REMARK  status: ('A' for Active; 'I' for Inactive)
REMARK    1  A    between atoms: C_2  and  C_4
REMARK    2  A    between atoms: C_7  and  O_8
REMARK    3  A    between atoms: O_8  and  C_9
REMARK    4  A    between atoms: C_9  and  C_10
REMARK    5  A    between atoms: C_10  and  C_13
REMARK    6  A    between atoms: C_17  and  C_18
REMARK                            x       y       z     vdW  Elec       q    Type
REMARK                         _______ _______ _______ _____ _____    ______ ____
ROOT
ATOM      1  C   UNL     1      45.385   7.105  11.780  0.00  0.00    +0.000 C 
ATOM      2  F   UNL     1      44.921   7.458  13.016  0.00  0.00    +0.000 F 
ATOM      3  F   UNL     1      45.010   8.115  10.942  0.00  0.00    +0.000 F 
ENDROOT
BRANCH   1   4
ATOM      4  C   UNL     1      44.828   5.760  11.336  0.00  0.00    +0.000 A 
ATOM      5  C   UNL     1      43.580   5.290  11.769  0.00  0.00    +0.000 A 
ATOM      6  C   UNL     1      43.073   4.079  11.289  0.00  0.00    +0.000 A 
ATOM      7  C   UNL     1      43.780   3.355  10.330  0.00  0.00    +0.000 A 
ATOM      8  C   UNL     1      45.003   3.826   9.835  0.00  0.00    +0.000 A 
ATOM      9  C   UNL     1      45.540   5.001  10.397  0.00  0.00    +0.000 A 
BRANCH   8  10
ATOM     10  C   UNL     1      45.670   3.157   8.705  0.00  0.00    +0.000 A 
ATOM     11  C   UNL     1      46.078   3.881   7.572  0.00  0.00    +0.000 A 
ATOM     12  C   UNL     1      46.687   3.250   6.488  0.00  0.00    +0.000 A 
ATOM     13  C   UNL     1      46.896   1.878   6.518  0.00  0.00    +0.000 A 
ATOM     14  C   UNL     1      46.486   1.147   7.620  0.00  0.00    +0.000 A 
ATOM     15  F   UNL     1      46.685  -0.178   7.649  0.00  0.00    +0.000 F 
ATOM     16  C   UNL     1      45.870   1.764   8.703  0.00  0.00    +0.000 A 
ENDBRANCH   8  10
ENDBRANCH   1   4
BRANCH   1  17
ATOM     17  C   UNL     1      46.924   7.048  11.839  0.00  0.00    +0.000 C 
BRANCH  17  18
ATOM     18  O   UNL     1      47.409   7.295  13.170  0.00  0.00    +0.000 OA
BRANCH  18  22
ATOM     19  C   UNL     1      47.776   4.106  15.837  0.00  0.00    +0.000 A 
ATOM     20  C   UNL     1      47.095   3.896  14.634  0.00  0.00    +0.000 A 
ATOM     21  C   UNL     1      46.945   4.944  13.721  0.00  0.00    +0.000 A 
ATOM     22  C   UNL     1      47.474   6.207  13.999  0.00  0.00    +0.000 A 
ATOM     23  C   UNL     1      48.131   6.419  15.215  0.00  0.00    +0.000 A 
ATOM     24  C   UNL     1      48.280   5.375  16.136  0.00  0.00    +0.000 A 
BRANCH  19  26
ATOM     25  N   UNL     1      46.908   2.751  17.661  0.00  0.00    +0.000 N 
ATOM     26  C   UNL     1      47.955   3.008  16.821  0.00  0.00    +0.000 C 
ATOM     27  O   UNL     1      48.983   2.345  16.868  0.00  0.00    +0.000 OA
ATOM     28  H   UNL     1      47.000   1.951  18.266  0.00  0.00    +0.000 HD
ATOM     29  H   UNL     1      45.970   3.101  17.484  0.00  0.00    +0.000 HD
ENDBRANCH  19  26
ENDBRANCH  18  22
ENDBRANCH  17  18
ENDBRANCH   1  17
TORSDOF 6
ENDMDL
MODEL 9
REMARK VINA RESULT:    -7.651      4.175      7.335
REMARK INTER + INTRA:         -11.640
REMARK INTER:                 -10.621
REMARK INTRA:                  -1.018
REMARK UNBOUND:                -1.305
REMARK  Name = 
REMARK  6 active torsions:
REMARK  status: ('A' for Active; 'I' for Inactive)
REMARK    1  A    between atoms: C_2  and  C_4
REMARK    2  A    between atoms: C_7  and  O_8
REMARK    3  A    between atoms: O_8  and  C_9
REMARK    4  A    between atoms: C_9  and  C_10
REMARK    5  A    between atoms: C_10  and  C_13
REMARK    6  A    between atoms: C_17  and  C_18
REMARK                            x       y       z     vdW  Elec       q    Type
REMARK                         _______ _______ _______ _____ _____    ______ ____
ROOT
ATOM      1  C   UNL     1      44.324   6.652  11.481  0.00  0.00    +0.000 C 
ATOM      2  F   UNL     1      43.077   7.209  11.517  0.00  0.00    +0.000 F 
ATOM      3  F   UNL     1      45.010   7.342  10.526  0.00  0.00    +0.000 F 
ENDROOT
BRANCH   1   4
ATOM      4  C   UNL     1      44.263   5.162  11.174  0.00  0.00    +0.000 A 
ATOM      5  C   UNL     1      43.326   4.313  11.781  0.00  0.00    +0.000 A 
ATOM      6  C   UNL     1      43.258   2.963  11.426  0.00  0.00    +0.000 A 
ATOM      7  C   UNL     1      44.085   2.461  10.422  0.00  0.00    +0.000 A 
ATOM      8  C   UNL     1      44.992   3.296   9.757  0.00  0.00    +0.000 A 
ATOM      9  C   UNL     1      45.109   4.631  10.191  0.00  0.00    +0.000 A 
BRANCH   8  10
ATOM     10  C   UNL     1      45.745   2.815   8.586  0.00  0.00    +0.000 A 
ATOM     11  C   UNL     1      46.152   3.699   7.572  0.00  0.00    +0.000 A 
ATOM     12  C   UNL     1      46.842   3.246   6.449  0.00  0.00    +0.000 A 
ATOM     13  C   UNL     1      47.137   1.895   6.319  0.00  0.00    +0.000 A 
ATOM     14  C   UNL     1      46.730   1.009   7.301  0.00  0.00    +0.000 A 
ATOM     15  F   UNL     1      47.012  -0.296   7.175  0.00  0.00    +0.000 F 
ATOM     16  C   UNL     1      46.033   1.447   8.421  0.00  0.00    +0.000 A 
ENDBRANCH   8  10
ENDBRANCH   1   4
BRANCH   1  17
ATOM     17  C   UNL     1      44.996   6.884  12.848  0.00  0.00    +0.000 C 
BRANCH  17  18
ATOM     18  O   UNL     1      45.576   8.198  12.934  0.00  0.00    +0.000 OA
BRANCH  18  22
ATOM     19  C   UNL     1      49.605   8.298  11.851  0.00  0.00    +0.000 A 
ATOM     20  C   UNL     1      48.855   9.471  11.742  0.00  0.00    +0.000 A 
ATOM     21  C   UNL     1      47.501   9.473  12.087  0.00  0.00    +0.000 A 
ATOM     22  C   UNL     1      46.885   8.305  12.545  0.00  0.00    +0.000 A 
ATOM     23  C   UNL     1      47.633   7.127  12.628  0.00  0.00    +0.000 A 
ATOM     24  C   UNL     1      48.988   7.118  12.278  0.00  0.00    +0.000 A 
BRANCH  19  26
ATOM     25  N   UNL     1      51.510   7.152  10.864  0.00  0.00    +0.000 N 
ATOM     26  C   UNL     1      51.048   8.270  11.498  0.00  0.00    +0.000 C 
ATOM     27  O   UNL     1      51.790   9.213  11.741  0.00  0.00    +0.000 OA
ATOM     28  H   UNL     1      52.466   7.173  10.549  0.00  0.00    +0.000 HD
ATOM     29  H   UNL     1      50.887   6.476  10.429  0.00  0.00    +0.000 HD
ENDBRANCH  19  26
ENDBRANCH  18  22
ENDBRANCH  17  18
ENDBRANCH   1  17
TORSDOF 6
ENDMDL
