MODEL 1
REMARK VINA RESULT:    -9.186      0.000      0.000
REMARK INTER + INTRA:         -11.733
REMARK INTER:                 -11.871
REMARK INTRA:                   0.138
REMARK UNBOUND:                 0.138
REMARK  Name = 
REMARK  5 active torsions:
REMARK  status: ('A' for Active; 'I' for Inactive)
REMARK    1  A    between atoms: C_2  and  C_4
REMARK    2  A    between atoms: N_8  and  C_9
REMARK    3  A    between atoms: C_9  and  C_10
REMARK    4  A    between atoms: C_10  and  N_11
REMARK    5  A    between atoms: C_14  and  N_15
REMARK                            x       y       z     vdW  Elec       q    Type
REMARK                         _______ _______ _______ _____ _____    ______ ____
ROOT
ATOM      1  C   UNL     1      44.594   4.112  12.082  0.00  0.00    +0.000 C 
ENDROOT
BRANCH   1   2
ATOM      2  N   UNL     1      44.932   5.155  13.077  0.00  0.00    +0.000 NA
ATOM      3  C   UNL     1      45.417   6.380  12.412  0.00  0.00    +0.000 C 
ATOM      4  C   UNL     1      46.906   6.155  12.215  0.00  0.00    +0.000 C 
ATOM      5  C   UNL     1      47.322   5.526  13.540  0.00  0.00    +0.000 C 
ATOM      6  C   UNL     1      46.046   4.764  13.973  0.00  0.00    +0.000 C 
BRANCH   5   7
ATOM      7  N   UNL     1      47.671   6.584  14.505  0.00  0.00    +0.000 N 
ATOM      8  C   UNL     1      48.292   6.135  15.683  0.00  0.00    +0.000 A 
ATOM      9  C   UNL     1      48.728   7.087  16.604  0.00  0.00    +0.000 A 
ATOM     10  C   UNL     1      49.361   6.676  17.777  0.00  0.00    +0.000 A 
ATOM     11  C   UNL     1      49.538   5.319  18.006  0.00  0.00    +0.000 A 
ATOM     12  C   UNL     1      49.080   4.446  17.039  0.00  0.00    +0.000 A 
ATOM     13 CL   UNL     1      49.225   2.749  17.242  0.00  0.00    +0.000 Cl
ATOM     14  N   UNL     1      48.480   4.819  15.891  0.00  0.00    +0.000 NA
ATOM     15  H   UNL     1      46.881   7.171  14.758  0.00  0.00    +0.000 HD
ENDBRANCH   5   7
ENDBRANCH   1   2
BRANCH   1  16
ATOM     16  C   UNL     1      43.395   4.498  11.188  0.00  0.00    +0.000 C 
BRANCH  16  21
ATOM     17  C   UNL     1      46.464   2.493   7.701  0.00  0.00    +0.000 A 
ATOM     18  C   UNL     1      45.636   1.878   8.631  0.00  0.00    +0.000 A 
ATOM     19  C   UNL     1      44.751   2.660   9.369  0.00  0.00    +0.000 A 
ATOM     20  C   UNL     1      44.724   4.042   9.190  0.00  0.00    +0.000 A 
ATOM     21  N   UNL     1      43.813   4.866   9.840  0.00  0.00    +0.000 N 
ATOM     22  N   UNL     1      45.555   4.651   8.323  0.00  0.00    +0.000 NA
ATOM     23  C   UNL     1      46.403   3.875   7.602  0.00  0.00    +0.000 A 
ATOM     24  H   UNL     1      44.111   5.830   9.695  0.00  0.00    +0.000 HD
BRANCH  17  26
ATOM     25  N   UNL     1      48.521   2.375   6.416  0.00  0.00    +0.000 N 
ATOM     26  C   UNL     1      47.386   1.732   6.830  0.00  0.00    +0.000 C 
ATOM     27  O   UNL     1      47.167   0.568   6.526  0.00  0.00    +0.000 OA
ATOM     28  H   UNL     1      49.198   1.811   5.917  0.00  0.00    +0.000 HD
ATOM     29  H   UNL     1      48.853   3.227   6.846  0.00  0.00    +0.000 HD
ENDBRANCH  17  26
ENDBRANCH  16  21
ENDBRANCH   1  16
TORSDOF 5
ENDMDL
MODEL 2
REMARK VINA RESULT:    -9.013      2.261      2.635
REMARK INTER + INTRA:         -11.510
REMARK INTER:                 -11.567
REMARK INTRA:                   0.057
REMARK UNBOUND:                 0.138
REMARK  Name = 
REMARK  5 active torsions:
REMARK  status: ('A' for Active; 'I' for Inactive)
REMARK    1  A    between atoms: C_2  and  C_4
REMARK    2  A    between atoms: N_8  and  C_9
REMARK    3  A    between atoms: C_9  and  C_10
REMARK    4  A    between atoms: C_10  and  N_11
REMARK    5  A    between atoms: C_14  and  N_15
REMARK                            x       y       z     vdW  Elec       q    Type
REMARK                         _______ _______ _______ _____ _____    ______ ____
ROOT
ATOM      1  C   UNL     1      44.406   3.754  12.012  0.00  0.00    +0.000 C 
ENDROOT
BRANCH   1   2
ATOM      2  N   UNL     1      44.787   4.616  13.155  0.00  0.00    +0.000 NA
ATOM      3  C   UNL     1      44.766   6.040  12.770  0.00  0.00    +0.000 C 
ATOM      4  C   UNL     1      46.138   6.305  12.176  0.00  0.00    +0.000 C 
ATOM      5  C   UNL     1      47.061   5.560  13.134  0.00  0.00    +0.000 C 
ATOM      6  C   UNL     1      46.176   4.385  13.618  0.00  0.00    +0.000 C 
BRANCH   5   7
ATOM      7  N   UNL     1      47.440   6.445  14.250  0.00  0.00    +0.000 N 
ATOM      8  C   UNL     1      48.553   7.268  14.006  0.00  0.00    +0.000 A 
ATOM      9  C   UNL     1      48.917   8.192  14.985  0.00  0.00    +0.000 A 
ATOM     10  C   UNL     1      50.009   9.034  14.770  0.00  0.00    +0.000 A 
ATOM     11  C   UNL     1      50.716   8.927  13.581  0.00  0.00    +0.000 A 
ATOM     12  C   UNL     1      50.284   7.988  12.666  0.00  0.00    +0.000 A 
ATOM     13 CL   UNL     1      51.108   7.760  11.179  0.00  0.00    +0.000 Cl
ATOM     14  N   UNL     1      49.223   7.175  12.844  0.00  0.00    +0.000 NA
ATOM     15  H   UNL     1      47.589   5.946  15.122  0.00  0.00    +0.000 HD
ENDBRANCH   5   7
ENDBRANCH   1   2
BRANCH   1  16
ATOM     16  C   UNL     1      43.259   4.348  11.167  0.00  0.00    +0.000 C 
BRANCH  16  21
ATOM     17  C   UNL     1      46.460   2.515   7.704  0.00  0.00    +0.000 A 
ATOM     18  C   UNL     1      45.612   1.855   8.583  0.00  0.00    +0.000 A 
ATOM     19  C   UNL     1      44.694   2.597   9.322  0.00  0.00    +0.000 A 
ATOM     20  C   UNL     1      44.655   3.985   9.196  0.00  0.00    +0.000 A 
ATOM     21  N   UNL     1      43.714   4.773   9.848  0.00  0.00    +0.000 N 
ATOM     22  N   UNL     1      45.505   4.636   8.379  0.00  0.00    +0.000 NA
ATOM     23  C   UNL     1      46.385   3.899   7.656  0.00  0.00    +0.000 A 
ATOM     24  H   UNL     1      44.004   5.744   9.749  0.00  0.00    +0.000 HD
BRANCH  17  26
ATOM     25  N   UNL     1      48.527   2.492   6.430  0.00  0.00    +0.000 N 
ATOM     26  C   UNL     1      47.419   1.799   6.834  0.00  0.00    +0.000 C 
ATOM     27  O   UNL     1      47.251   0.628   6.523  0.00  0.00    +0.000 OA
ATOM     28  H   UNL     1      49.230   1.960   5.931  0.00  0.00    +0.000 HD
ATOM     29  H   UNL     1      48.820   3.355   6.865  0.00  0.00    +0.000 HD
ENDBRANCH  17  26
ENDBRANCH  16  21
ENDBRANCH   1  16
TORSDOF 5
ENDMDL
MODEL 3
REMARK VINA RESULT:    -8.788      2.916      3.817
REMARK INTER + INTRA:         -11.219
REMARK INTER:                 -10.784
REMARK INTRA:                  -0.435
REMARK UNBOUND:                 0.138
REMARK  Name = 
REMARK  5 active torsions:
REMARK  status: ('A' for Active; 'I' for Inactive)
REMARK    1  A    between atoms: C_2  and  C_4
REMARK    2  A    between atoms: N_8  and  C_9
REMARK    3  A    between atoms: C_9  and  C_10
REMARK    4  A    between atoms: C_10  and  N_11
REMARK    5  A    between atoms: C_14  and  N_15
REMARK                            x       y       z     vdW  Elec       q    Type
REMARK                         _______ _______ _______ _____ _____    ______ ____
ROOT
ATOM      1  C   UNL     1      44.235   4.048  12.564  0.00  0.00    +0.000 C 
ENDROOT
BRANCH   1   2
ATOM      2  N   UNL     1      45.661   4.217  12.203  0.00  0.00    +0.000 NA
ATOM      3  C   UNL     1      46.539   3.766  13.300  0.00  0.00    +0.000 C 
ATOM      4  C   UNL     1      46.678   4.972  14.211  0.00  0.00    +0.000 C 
ATOM      5  C   UNL     1      46.855   6.116  13.219  0.00  0.00    +0.000 C 
ATOM      6  C   UNL     1      46.043   5.634  11.991  0.00  0.00    +0.000 C 
BRANCH   5   7
ATOM      7  N   UNL     1      48.283   6.275  12.891  0.00  0.00    +0.000 N 
ATOM      8  C   UNL     1      48.647   7.545  12.412  0.00  0.00    +0.000 A 
ATOM      9  C   UNL     1      49.997   7.795  12.163  0.00  0.00    +0.000 A 
ATOM     10  C   UNL     1      50.394   9.049  11.699  0.00  0.00    +0.000 A 
ATOM     11  C   UNL     1      49.430  10.025  11.490  0.00  0.00    +0.000 A 
ATOM     12  C   UNL     1      48.119   9.694  11.767  0.00  0.00    +0.000 A 
ATOM     13 CL   UNL     1      46.851  10.820  11.513  0.00  0.00    +0.000 Cl
ATOM     14  N   UNL     1      47.712   8.494  12.230  0.00  0.00    +0.000 NA
ATOM     15  H   UNL     1      48.625   5.572  12.242  0.00  0.00    +0.000 HD
ENDBRANCH   5   7
ENDBRANCH   1   2
BRANCH   1  16
ATOM     16  C   UNL     1      43.415   3.337  11.466  0.00  0.00    +0.000 C 
BRANCH  16  21
ATOM     17  C   UNL     1      46.469   2.641   7.492  0.00  0.00    +0.000 A 
ATOM     18  C   UNL     1      45.921   1.722   8.377  0.00  0.00    +0.000 A 
ATOM     19  C   UNL     1      44.961   2.152   9.291  0.00  0.00    +0.000 A 
ATOM     20  C   UNL     1      44.585   3.494   9.328  0.00  0.00    +0.000 A 
ATOM     21  N   UNL     1      43.581   3.970  10.163  0.00  0.00    +0.000 N 
ATOM     22  N   UNL     1      45.145   4.399   8.503  0.00  0.00    +0.000 NA
ATOM     23  C   UNL     1      46.068   3.963   7.610  0.00  0.00    +0.000 A 
ATOM     24  H   UNL     1      43.622   4.988  10.145  0.00  0.00    +0.000 HD
BRANCH  17  26
ATOM     25  N   UNL     1      47.427   2.979   5.287  0.00  0.00    +0.000 N 
ATOM     26  C   UNL     1      47.444   2.257   6.449  0.00  0.00    +0.000 C 
ATOM     27  O   UNL     1      48.257   1.360   6.630  0.00  0.00    +0.000 OA
ATOM     28  H   UNL     1      48.171   2.784   4.628  0.00  0.00    +0.000 HD
ATOM     29  H   UNL     1      46.955   3.869   5.205  0.00  0.00    +0.000 HD
ENDBRANCH  17  26
ENDBRANCH  16  21
ENDBRANCH   1  16
TORSDOF 5
ENDMDL
MODEL 4
REMARK VINA RESULT:    -8.530      2.232      2.547
REMARK INTER + INTRA:         -10.885
REMARK INTER:                 -10.349
REMARK INTRA:                  -0.536
REMARK UNBOUND:                 0.138
REMARK  Name = 
REMARK  5 active torsions:
REMARK  status: ('A' for Active; 'I' for Inactive)
REMARK    1  A    between atoms: C_2  and  C_4
REMARK    2  A    between atoms: N_8  and  C_9
REMARK    3  A    between atoms: C_9  and  C_10
REMARK    4  A    between atoms: C_10  and  N_11
REMARK    5  A    between atoms: C_14  and  N_15
REMARK                            x       y       z     vdW  Elec       q    Type
REMARK                         _______ _______ _______ _____ _____    ______ ____
ROOT
ATOM      1  C   UNL     1      44.079   5.134  12.279  0.00  0.00    +0.000 C 
ENDROOT
BRANCH   1   2
ATOM      2  N   UNL     1      45.512   5.322  11.951  0.00  0.00    +0.000 NA
ATOM      3  C   UNL     1      46.355   4.389  12.722  0.00  0.00    +0.000 C 
ATOM      4  C   UNL     1      46.615   5.095  14.042  0.00  0.00    +0.000 C 
ATOM      5  C   UNL     1      46.886   6.529  13.599  0.00  0.00    +0.000 C 
ATOM      6  C   UNL     1      46.021   6.664  12.322  0.00  0.00    +0.000 C 
BRANCH   5   7
ATOM      7  N   UNL     1      48.320   6.693  13.297  0.00  0.00    +0.000 N 
ATOM      8  C   UNL     1      49.009   7.581  14.143  0.00  0.00    +0.000 A 
ATOM      9  C   UNL     1      50.386   7.721  13.972  0.00  0.00    +0.000 A 
ATOM     10  C   UNL     1      51.102   8.583  14.802  0.00  0.00    +0.000 A 
ATOM     11  C   UNL     1      50.422   9.291  15.783  0.00  0.00    +0.000 A 
ATOM     12  C   UNL     1      49.061   9.088  15.886  0.00  0.00    +0.000 A 
ATOM     13 CL   UNL     1      48.126   9.937  17.047  0.00  0.00    +0.000 Cl
ATOM     14  N   UNL     1      48.349   8.249  15.106  0.00  0.00    +0.000 NA
ATOM     15  H   UNL     1      48.498   6.959  12.333  0.00  0.00    +0.000 HD
ENDBRANCH   5   7
ENDBRANCH   1   2
BRANCH   1  16
ATOM     16  C   UNL     1      43.301   4.388  11.174  0.00  0.00    +0.000 C 
BRANCH  16  21
ATOM     17  C   UNL     1      46.464   2.507   7.701  0.00  0.00    +0.000 A 
ATOM     18  C   UNL     1      45.637   1.859   8.609  0.00  0.00    +0.000 A 
ATOM     19  C   UNL     1      44.724   2.609   9.346  0.00  0.00    +0.000 A 
ATOM     20  C   UNL     1      44.668   3.993   9.188  0.00  0.00    +0.000 A 
ATOM     21  N   UNL     1      43.730   4.787   9.838  0.00  0.00    +0.000 N 
ATOM     22  N   UNL     1      45.498   4.634   8.343  0.00  0.00    +0.000 NA
ATOM     23  C   UNL     1      46.374   3.888   7.622  0.00  0.00    +0.000 A 
ATOM     24  H   UNL     1      44.009   5.759   9.712  0.00  0.00    +0.000 HD
BRANCH  17  26
ATOM     25  N   UNL     1      48.522   2.466   6.413  0.00  0.00    +0.000 N 
ATOM     26  C   UNL     1      47.415   1.780   6.832  0.00  0.00    +0.000 C 
ATOM     27  O   UNL     1      47.243   0.606   6.534  0.00  0.00    +0.000 OA
ATOM     28  H   UNL     1      49.221   1.928   5.915  0.00  0.00    +0.000 HD
ATOM     29  H   UNL     1      48.819   3.334   6.838  0.00  0.00    +0.000 HD
ENDBRANCH  17  26
ENDBRANCH  16  21
ENDBRANCH   1  16
TORSDOF 5
ENDMDL
MODEL 5
REMARK VINA RESULT:    -8.301      3.532      3.912
REMARK INTER + INTRA:         -10.590
REMARK INTER:                 -10.518
REMARK INTRA:                  -0.071
REMARK UNBOUND:                 0.138
REMARK  Name = 
REMARK  5 active torsions:
REMARK  status: ('A' for Active; 'I' for Inactive)
REMARK    1  A    between atoms: C_2  and  C_4
REMARK    2  A    between atoms: N_8  and  C_9
REMARK    3  A    between atoms: C_9  and  C_10
REMARK    4  A    between atoms: C_10  and  N_11
REMARK    5  A    between atoms: C_14  and  N_15
REMARK                            x       y       z     vdW  Elec       q    Type
REMARK                         _______ _______ _______ _____ _____    ______ ____
ROOT
ATOM      1  C   UNL     1      43.396   3.834  12.535  0.00  0.00    +0.000 C 
ENDROOT
BRANCH   1   2
ATOM      2  N   UNL     1      43.369   5.303  12.721  0.00  0.00    +0.000 NA
ATOM      3  C   UNL     1      43.289   5.996  11.421  0.00  0.00    +0.000 C 
ATOM      4  C   UNL     1      44.730   6.130  10.960  0.00  0.00    +0.000 C 
ATOM      5  C   UNL     1      45.450   6.528  12.244  0.00  0.00    +0.000 C 
ATOM      6  C   UNL     1      44.607   5.833  13.340  0.00  0.00    +0.000 C 
BRANCH   5   7
ATOM      7  N   UNL     1      45.425   7.995  12.394  0.00  0.00    +0.000 N 
ATOM      8  C   UNL     1      46.651   8.639  12.152  0.00  0.00    +0.000 A 
ATOM      9  C   UNL     1      46.683  10.033  12.192  0.00  0.00    +0.000 A 
ATOM     10  C   UNL     1      47.880  10.705  11.944  0.00  0.00    +0.000 A 
ATOM     11  C   UNL     1      49.021   9.967  11.667  0.00  0.00    +0.000 A 
ATOM     12  C   UNL     1      48.898   8.591  11.643  0.00  0.00    +0.000 A 
ATOM     13 CL   UNL     1      50.256   7.589  11.339  0.00  0.00    +0.000 Cl
ATOM     14  N   UNL     1      47.750   7.920  11.864  0.00  0.00    +0.000 NA
ATOM     15  H   UNL     1      45.071   8.298  13.296  0.00  0.00    +0.000 HD
ENDBRANCH   5   7
ENDBRANCH   1   2
BRANCH   1  16
ATOM     16  C   UNL     1      43.379   3.414  11.050  0.00  0.00    +0.000 C 
BRANCH  16  21
ATOM     17  C   UNL     1      46.540   2.733   7.158  0.00  0.00    +0.000 A 
ATOM     18  C   UNL     1      46.020   3.901   7.701  0.00  0.00    +0.000 A 
ATOM     19  C   UNL     1      45.302   3.831   8.892  0.00  0.00    +0.000 A 
ATOM     20  C   UNL     1      45.089   2.599   9.508  0.00  0.00    +0.000 A 
ATOM     21  N   UNL     1      44.447   2.472  10.734  0.00  0.00    +0.000 N 
ATOM     22  N   UNL     1      45.551   1.457   8.964  0.00  0.00    +0.000 NA
ATOM     23  C   UNL     1      46.260   1.542   7.810  0.00  0.00    +0.000 A 
ATOM     24  H   UNL     1      44.249   1.483  10.878  0.00  0.00    +0.000 HD
BRANCH  17  26
ATOM     25  N   UNL     1      48.679   2.359   6.072  0.00  0.00    +0.000 N 
ATOM     26  C   UNL     1      47.368   2.725   5.933  0.00  0.00    +0.000 C 
ATOM     27  O   UNL     1      46.894   2.995   4.837  0.00  0.00    +0.000 OA
ATOM     28  H   UNL     1      49.206   2.248   5.214  0.00  0.00    +0.000 HD
ATOM     29  H   UNL     1      49.031   1.895   6.897  0.00  0.00    +0.000 HD
ENDBRANCH  17  26
ENDBRANCH  16  21
ENDBRANCH   1  16
TORSDOF 5
ENDMDL
MODEL 6
REMARK VINA RESULT:    -7.533      2.909      3.402
REMARK INTER + INTRA:          -9.596
REMARK INTER:                  -9.426
REMARK INTRA:                  -0.170
REMARK UNBOUND:                 0.138
REMARK  Name = 
REMARK  5 active torsions:
REMARK  status: ('A' for Active; 'I' for Inactive)
REMARK    1  A    between atoms: C_2  and  C_4
REMARK    2  A    between atoms: N_8  and  C_9
REMARK    3  A    between atoms: C_9  and  C_10
REMARK    4  A    between atoms: C_10  and  N_11
REMARK    5  A    between atoms: C_14  and  N_15
REMARK                            x       y       z     vdW  Elec       q    Type
REMARK                         _______ _______ _______ _____ _____    ______ ____
ROOT
ATOM      1  C   UNL     1      44.383   6.306  11.005  0.00  0.00    +0.000 C 
ENDROOT
BRANCH   1   2
ATOM      2  N   UNL     1      45.141   6.292  12.278  0.00  0.00    +0.000 NA
ATOM      3  C   UNL     1      45.211   7.645  12.863  0.00  0.00    +0.000 C 
ATOM      4  C   UNL     1      46.418   8.294  12.207  0.00  0.00    +0.000 C 
ATOM      5  C   UNL     1      47.443   7.165  12.216  0.00  0.00    +0.000 C 
ATOM      6  C   UNL     1      46.560   5.898  12.104  0.00  0.00    +0.000 C 
BRANCH   5   7
ATOM      7  N   UNL     1      48.196   7.186  13.484  0.00  0.00    +0.000 N 
ATOM      8  C   UNL     1      49.519   7.650  13.383  0.00  0.00    +0.000 A 
ATOM      9  C   UNL     1      50.264   7.779  14.555  0.00  0.00    +0.000 A 
ATOM     10  C   UNL     1      51.576   8.249  14.492  0.00  0.00    +0.000 A 
ATOM     11  C   UNL     1      52.116   8.575  13.257  0.00  0.00    +0.000 A 
ATOM     12  C   UNL     1      51.306   8.422  12.149  0.00  0.00    +0.000 A 
ATOM     13 CL   UNL     1      51.889   8.770  10.574  0.00  0.00    +0.000 Cl
ATOM     14  N   UNL     1      50.031   7.984  12.185  0.00  0.00    +0.000 NA
ATOM     15  H   UNL     1      48.201   6.289  13.961  0.00  0.00    +0.000 HD
ENDBRANCH   5   7
ENDBRANCH   1   2
BRANCH   1  16
ATOM     16  C   UNL     1      43.512   5.047  10.811  0.00  0.00    +0.000 C 
BRANCH  16  21
ATOM     17  C   UNL     1      46.487   2.700   7.458  0.00  0.00    +0.000 A 
ATOM     18  C   UNL     1      46.273   4.054   7.678  0.00  0.00    +0.000 A 
ATOM     19  C   UNL     1      45.532   4.450   8.788  0.00  0.00    +0.000 A 
ATOM     20  C   UNL     1      44.992   3.492   9.645  0.00  0.00    +0.000 A 
ATOM     21  N   UNL     1      44.308   3.824  10.808  0.00  0.00    +0.000 N 
ATOM     22  N   UNL     1      45.157   2.175   9.414  0.00  0.00    +0.000 NA
ATOM     23  C   UNL     1      45.892   1.805   8.335  0.00  0.00    +0.000 A 
ATOM     24  H   UNL     1      43.857   2.978  11.153  0.00  0.00    +0.000 HD
BRANCH  17  26
ATOM     25  N   UNL     1      47.363   2.962   5.209  0.00  0.00    +0.000 N 
ATOM     26  C   UNL     1      47.316   2.196   6.342  0.00  0.00    +0.000 C 
ATOM     27  O   UNL     1      47.963   1.162   6.439  0.00  0.00    +0.000 OA
ATOM     28  H   UNL     1      48.019   2.667   4.496  0.00  0.00    +0.000 HD
ATOM     29  H   UNL     1      47.055   3.924   5.187  0.00  0.00    +0.000 HD
ENDBRANCH  17  26
ENDBRANCH  16  21
ENDBRANCH   1  16
TORSDOF 5
ENDMDL
MODEL 7
REMARK VINA RESULT:    -7.196      3.802      8.507
REMARK INTER + INTRA:          -9.162
REMARK INTER:                  -8.648
REMARK INTRA:                  -0.513
REMARK UNBOUND:                 0.138
REMARK  Name = 
REMARK  5 active torsions:
REMARK  status: ('A' for Active; 'I' for Inactive)
REMARK    1  A    between atoms: C_2  and  C_4
REMARK    2  A    between atoms: N_8  and  C_9
REMARK    3  A    between atoms: C_9  and  C_10
REMARK    4  A    between atoms: C_10  and  N_11
REMARK    5  A    between atoms: C_14  and  N_15
REMARK                            x       y       z     vdW  Elec       q    Type
REMARK                         _______ _______ _______ _____ _____    ______ ____
ROOT
ATOM      1  C   UNL     1      48.153   7.591  15.371  0.00  0.00    +0.000 C 
ENDROOT
BRANCH   1   2
ATOM      2  N   UNL     1      48.297   7.371  13.913  0.00  0.00    +0.000 NA
ATOM      3  C   UNL     1      47.698   8.484  13.151  0.00  0.00    +0.000 C 
ATOM      4  C   UNL     1      46.230   8.119  13.012  0.00  0.00    +0.000 C 
ATOM      5  C   UNL     1      46.291   6.629  12.691  0.00  0.00    +0.000 C 
ATOM      6  C   UNL     1      47.571   6.171  13.432  0.00  0.00    +0.000 C 
BRANCH   5   7
ATOM      7  N   UNL     1      46.415   6.438  11.235  0.00  0.00    +0.000 N 
ATOM      8  C   UNL     1      45.661   5.375  10.707  0.00  0.00    +0.000 A 
ATOM      9  C   UNL     1      45.662   5.188   9.325  0.00  0.00    +0.000 A 
ATOM     10  C   UNL     1      44.914   4.151   8.767  0.00  0.00    +0.000 A 
ATOM     11  C   UNL     1      44.187   3.319   9.607  0.00  0.00    +0.000 A 
ATOM     12  C   UNL     1      44.240   3.579  10.962  0.00  0.00    +0.000 A 
ATOM     13 CL   UNL     1      43.399   2.591  12.084  0.00  0.00    +0.000 Cl
ATOM     14  N   UNL     1      44.942   4.584  11.523  0.00  0.00    +0.000 NA
ATOM     15  H   UNL     1      47.377   6.340  10.925  0.00  0.00    +0.000 HD
ENDBRANCH   5   7
ENDBRANCH   1   2
BRANCH   1  16
ATOM     16  C   UNL     1      49.262   6.904  16.196  0.00  0.00    +0.000 C 
BRANCH  16  21
ATOM     17  C   UNL     1      51.501   2.595  17.617  0.00  0.00    +0.000 A 
ATOM     18  C   UNL     1      51.958   3.905  17.668  0.00  0.00    +0.000 A 
ATOM     19  C   UNL     1      51.075   4.941  17.375  0.00  0.00    +0.000 A 
ATOM     20  C   UNL     1      49.760   4.655  17.008  0.00  0.00    +0.000 A 
ATOM     21  N   UNL     1      48.812   5.645  16.778  0.00  0.00    +0.000 N 
ATOM     22  N   UNL     1      49.322   3.385  16.913  0.00  0.00    +0.000 NA
ATOM     23  C   UNL     1      50.190   2.387  17.214  0.00  0.00    +0.000 A 
ATOM     24  H   UNL     1      48.001   5.201  16.350  0.00  0.00    +0.000 HD
BRANCH  17  26
ATOM     25  N   UNL     1      51.739   0.222  18.072  0.00  0.00    +0.000 N 
ATOM     26  C   UNL     1      52.353   1.441  17.975  0.00  0.00    +0.000 C 
ATOM     27  O   UNL     1      53.559   1.560  18.138  0.00  0.00    +0.000 OA
ATOM     28  H   UNL     1      52.347  -0.577  18.205  0.00  0.00    +0.000 HD
ATOM     29  H   UNL     1      50.815   0.045  17.702  0.00  0.00    +0.000 HD
ENDBRANCH  17  26
ENDBRANCH  16  21
ENDBRANCH   1  16
TORSDOF 5
ENDMDL
MODEL 8
REMARK VINA RESULT:    -7.134      2.966      3.980
REMARK INTER + INTRA:          -9.081
REMARK INTER:                  -8.170
REMARK INTRA:                  -0.911
REMARK UNBOUND:                 0.138
REMARK  Name = 
REMARK  5 active torsions:
REMARK  status: ('A' for Active; 'I' for Inactive)
REMARK    1  A    between atoms: C_2  and  C_4
REMARK    2  A    between atoms: N_8  and  C_9
REMARK    3  A    between atoms: C_9  and  C_10
REMARK    4  A    between atoms: C_10  and  N_11
REMARK    5  A    between atoms: C_14  and  N_15
REMARK                            x       y       z     vdW  Elec       q    Type
REMARK                         _______ _______ _______ _____ _____    ______ ____
ROOT
ATOM      1  C   UNL     1      46.941   8.980  12.168  0.00  0.00    +0.000 C 
ENDROOT
BRANCH   1   2
ATOM      2  N   UNL     1      48.174   8.934  12.987  0.00  0.00    +0.000 NA
ATOM      3  C   UNL     1      49.120   7.933  12.457  0.00  0.00    +0.000 C 
ATOM      4  C   UNL     1      48.703   6.622  13.100  0.00  0.00    +0.000 C 
ATOM      5  C   UNL     1      48.415   7.038  14.539  0.00  0.00    +0.000 C 
ATOM      6  C   UNL     1      47.928   8.499  14.383  0.00  0.00    +0.000 C 
BRANCH   5   7
ATOM      7  N   UNL     1      49.653   6.965  15.335  0.00  0.00    +0.000 N 
ATOM      8  C   UNL     1      49.713   5.897  16.248  0.00  0.00    +0.000 A 
ATOM      9  C   UNL     1      50.889   5.715  16.974  0.00  0.00    +0.000 A 
ATOM     10  C   UNL     1      50.987   4.657  17.879  0.00  0.00    +0.000 A 
ATOM     11  C   UNL     1      49.901   3.808  18.040  0.00  0.00    +0.000 A 
ATOM     12  C   UNL     1      48.778   4.059  17.277  0.00  0.00    +0.000 A 
ATOM     13 CL   UNL     1      47.374   3.085  17.425  0.00  0.00    +0.000 Cl
ATOM     14  N   UNL     1      48.666   5.064  16.386  0.00  0.00    +0.000 NA
ATOM     15  H   UNL     1      49.862   7.827  15.830  0.00  0.00    +0.000 HD
ENDBRANCH   5   7
ENDBRANCH   1   2
BRANCH   1  16
ATOM     16  C   UNL     1      45.656   8.797  13.004  0.00  0.00    +0.000 C 
BRANCH  16  21
ATOM     17  C   UNL     1      44.103   4.228  11.482  0.00  0.00    +0.000 A 
ATOM     18  C   UNL     1      44.714   4.623  12.665  0.00  0.00    +0.000 A 
ATOM     19  C   UNL     1      44.886   5.981  12.917  0.00  0.00    +0.000 A 
ATOM     20  C   UNL     1      44.473   6.924  11.976  0.00  0.00    +0.000 A 
ATOM     21  N   UNL     1      44.547   8.293  12.201  0.00  0.00    +0.000 N 
ATOM     22  N   UNL     1      43.920   6.547  10.807  0.00  0.00    +0.000 NA
ATOM     23  C   UNL     1      43.748   5.220  10.581  0.00  0.00    +0.000 A 
ATOM     24  H   UNL     1      44.368   8.761  11.314  0.00  0.00    +0.000 HD
BRANCH  17  26
ATOM     25  N   UNL     1      44.549   2.248  10.150  0.00  0.00    +0.000 N 
ATOM     26  C   UNL     1      43.824   2.811  11.165  0.00  0.00    +0.000 C 
ATOM     27  O   UNL     1      43.012   2.158  11.806  0.00  0.00    +0.000 OA
ATOM     28  H   UNL     1      44.432   1.251  10.016  0.00  0.00    +0.000 HD
ATOM     29  H   UNL     1      45.388   2.671   9.778  0.00  0.00    +0.000 HD
ENDBRANCH  17  26
ENDBRANCH  16  21
ENDBRANCH   1  16
TORSDOF 5
ENDMDL
MODEL 9
REMARK VINA RESULT:    -6.703      3.548      8.319
REMARK INTER + INTRA:          -8.524
REMARK INTER:                  -7.858
REMARK INTRA:                  -0.666
REMARK UNBOUND:                 0.138
REMARK  Name = 
REMARK  5 active torsions:
REMARK  status: ('A' for Active; 'I' for Inactive)
REMARK    1  A    between atoms: C_2  and  C_4
REMARK    2  A    between atoms: N_8  and  C_9
REMARK    3  A    between atoms: C_9  and  C_10
REMARK    4  A    between atoms: C_10  and  N_11
REMARK    5  A    between atoms: C_14  and  N_15
REMARK                            x       y       z     vdW  Elec       q    Type
REMARK                         _______ _______ _______ _____ _____    ______ ____
ROOT
ATOM      1  C   UNL     1      47.854   9.081  14.701  0.00  0.00    +0.000 C 
ENDROOT
BRANCH   1   2
ATOM      2  N   UNL     1      47.940   8.722  13.266  0.00  0.00    +0.000 NA
ATOM      3  C   UNL     1      46.814   9.303  12.510  0.00  0.00    +0.000 C 
ATOM      4  C   UNL     1      45.688   8.293  12.645  0.00  0.00    +0.000 C 
ATOM      5  C   UNL     1      46.414   6.965  12.462  0.00  0.00    +0.000 C 
ATOM      6  C   UNL     1      47.825   7.263  13.026  0.00  0.00    +0.000 C 
BRANCH   5   7
ATOM      7  N   UNL     1      46.468   6.621  11.029  0.00  0.00    +0.000 N 
ATOM      8  C   UNL     1      45.720   5.490  10.659  0.00  0.00    +0.000 A 
ATOM      9  C   UNL     1      45.655   5.155   9.306  0.00  0.00    +0.000 A 
ATOM     10  C   UNL     1      44.911   4.047   8.903  0.00  0.00    +0.000 A 
ATOM     11  C   UNL     1      44.251   3.294   9.864  0.00  0.00    +0.000 A 
ATOM     12  C   UNL     1      44.366   3.699  11.178  0.00  0.00    +0.000 A 
ATOM     13 CL   UNL     1      43.613   2.818  12.443  0.00  0.00    +0.000 Cl
ATOM     14  N   UNL     1      45.066   4.775  11.591  0.00  0.00    +0.000 NA
ATOM     15  H   UNL     1      47.416   6.513  10.680  0.00  0.00    +0.000 HD
ENDBRANCH   5   7
ENDBRANCH   1   2
BRANCH   1  16
ATOM     16  C   UNL     1      49.217   9.007  15.423  0.00  0.00    +0.000 C 
BRANCH  16  21
ATOM     17  C   UNL     1      48.010   4.675  17.742  0.00  0.00    +0.000 A 
ATOM     18  C   UNL     1      48.712   4.900  16.565  0.00  0.00    +0.000 A 
ATOM     19  C   UNL     1      49.066   6.204  16.227  0.00  0.00    +0.000 A 
ATOM     20  C   UNL     1      48.691   7.264  17.052  0.00  0.00    +0.000 A 
ATOM     21  N   UNL     1      49.078   8.577  16.810  0.00  0.00    +0.000 N 
ATOM     22  N   UNL     1      47.972   7.059  18.171  0.00  0.00    +0.000 NA
ATOM     23  C   UNL     1      47.646   5.781  18.493  0.00  0.00    +0.000 A 
ATOM     24  H   UNL     1      48.535   9.177  17.428  0.00  0.00    +0.000 HD
BRANCH  17  26
ATOM     25  N   UNL     1      48.292   2.855  19.324  0.00  0.00    +0.000 N 
ATOM     26  C   UNL     1      47.651   3.318  18.207  0.00  0.00    +0.000 C 
ATOM     27  O   UNL     1      46.793   2.653  17.644  0.00  0.00    +0.000 OA
ATOM     28  H   UNL     1      47.958   1.975  19.699  0.00  0.00    +0.000 HD
ATOM     29  H   UNL     1      48.806   3.460  19.948  0.00  0.00    +0.000 HD
ENDBRANCH  17  26
ENDBRANCH  16  21
ENDBRANCH   1  16
TORSDOF 5
ENDMDL
