MODEL 1
REMARK VINA RESULT:    -9.013      0.000      0.000
REMARK INTER + INTRA:         -13.567
REMARK INTER:                 -12.702
REMARK INTRA:                  -0.865
REMARK UNBOUND:                -0.865
REMARK  Name = 
REMARK  8 active torsions:
REMARK  status: ('A' for Active; 'I' for Inactive)
REMARK    1  A    between atoms: C_1  and  C_2
REMARK    2  A    between atoms: C_5  and  N_6
REMARK    3  A    between atoms: N_6  and  C_7
REMARK    4  A    between atoms: C_7  and  C_8
REMARK    5  A    between atoms: C_8  and  C_11
REMARK    6  A    between atoms: C_16  and  O_17
REMARK    7  A    between atoms: O_17  and  C_18
REMARK    8  A    between atoms: C_24  and  C_25
REMARK                            x       y       z     vdW  Elec       q    Type
REMARK                         _______ _______ _______ _____ _____    ______ ____
ROOT
ATOM      1  C   UNL     1      43.737   5.805  11.765  0.00  0.00    +0.000 C 
ATOM      2  F   UNL     1      43.299   7.028  11.322  0.00  0.00    +0.000 F 
ATOM      3  F   UNL     1      42.942   5.525  12.847  0.00  0.00    +0.000 F 
ENDROOT
BRANCH   1   4
ATOM      4  C   UNL     1      45.196   5.879  12.182  0.00  0.00    +0.000 A 
ATOM      5  C   UNL     1      46.102   6.829  11.687  0.00  0.00    +0.000 A 
ATOM      6  C   UNL     1      47.414   6.850  12.147  0.00  0.00    +0.000 A 
ATOM      7  F   UNL     1      48.258   7.774  11.668  0.00  0.00    +0.000 F 
ATOM      8  C   UNL     1      47.858   5.940  13.091  0.00  0.00    +0.000 A 
ATOM      9  C   UNL     1      46.979   4.985  13.591  0.00  0.00    +0.000 A 
ATOM     10  C   UNL     1      45.660   4.944  13.130  0.00  0.00    +0.000 A 
BRANCH   9  11
ATOM     11  O   UNL     1      47.509   4.118  14.511  0.00  0.00    +0.000 OA
BRANCH  11  12
ATOM     12  C   UNL     1      47.314   4.393  15.917  0.00  0.00    +0.000 C 
ATOM     13  C   UNL     1      48.430   5.152  16.669  0.00  0.00    +0.000 C 
ATOM     14  N   UNL     1      48.330   4.184  17.781  0.00  0.00    +0.000 NA
ATOM     15  C   UNL     1      47.669   3.229  16.868  0.00  0.00    +0.000 C 
ATOM     16  H   UNL     1      47.733   4.496  18.547  0.00  0.00    +0.000 HD
ENDBRANCH  11  12
ENDBRANCH   9  11
ENDBRANCH   1   4
BRANCH   1  17
ATOM     17  C   UNL     1      43.372   4.772  10.671  0.00  0.00    +0.000 C 
BRANCH  17  18
ATOM     18  N   UNL     1      44.177   4.884   9.441  0.00  0.00    +0.000 N 
ATOM     19  H   UNL     1      43.734   5.427   8.698  0.00  0.00    +0.000 HD
BRANCH  18  24
ATOM     20  C   UNL     1      46.746   0.189   7.546  0.00  0.00    +0.000 C 
ATOM     21  C   UNL     1      46.140   1.484   8.001  0.00  0.00    +0.000 A 
ATOM     22  N   UNL     1      45.297   1.387   9.064  0.00  0.00    +0.000 NA
ATOM     23  C   UNL     1      44.703   2.523   9.506  0.00  0.00    +0.000 A 
ATOM     24  C   UNL     1      44.907   3.794   8.970  0.00  0.00    +0.000 A 
ATOM     25  C   UNL     1      45.761   3.853   7.867  0.00  0.00    +0.000 A 
ATOM     26  C   UNL     1      46.389   2.704   7.368  0.00  0.00    +0.000 A 
BRANCH  26  27
ATOM     27  C   UNL     1      47.318   2.821   6.210  0.00  0.00    +0.000 C 
ATOM     28  N   UNL     1      48.662   2.788   6.470  0.00  0.00    +0.000 N 
ATOM     29  O   UNL     1      46.926   2.943   5.058  0.00  0.00    +0.000 OA
ATOM     30  H   UNL     1      49.060   2.889   7.391  0.00  0.00    +0.000 HD
ATOM     31  H   UNL     1      49.274   2.936   5.676  0.00  0.00    +0.000 HD
ENDBRANCH  26  27
ENDBRANCH  18  24
ENDBRANCH  17  18
ENDBRANCH   1  17
TORSDOF 7
ENDMDL
MODEL 2
REMARK VINA RESULT:    -8.358      2.327      3.211
REMARK INTER + INTRA:         -12.644
REMARK INTER:                 -11.735
REMARK INTRA:                  -0.909
REMARK UNBOUND:                -0.865
REMARK  Name = 
REMARK  8 active torsions:
REMARK  status: ('A' for Active; 'I' for Inactive)
REMARK    1  A    between atoms: C_1  and  C_2
REMARK    2  A    between atoms: C_5  and  N_6
REMARK    3  A    between atoms: N_6  and  C_7
REMARK    4  A    between atoms: C_7  and  C_8
REMARK    5  A    between atoms: C_8  and  C_11
REMARK    6  A    between atoms: C_16  and  O_17
REMARK    7  A    between atoms: O_17  and  C_18
REMARK    8  A    between atoms: C_24  and  C_25
REMARK                            x       y       z     vdW  Elec       q    Type
REMARK                         _______ _______ _______ _____ _____    ______ ____
ROOT
ATOM      1  C   UNL     1      43.649   5.741  11.822  0.00  0.00    +0.000 C 
ATOM      2  F   UNL     1      43.469   6.997  11.297  0.00  0.00    +0.000 F 
ATOM      3  F   UNL     1      42.636   5.601  12.735  0.00  0.00    +0.000 F 
ENDROOT
BRANCH   1   4
ATOM      4  C   UNL     1      45.001   5.638  12.508  0.00  0.00    +0.000 A 
ATOM      5  C   UNL     1      45.515   4.448  13.045  0.00  0.00    +0.000 A 
ATOM      6  C   UNL     1      46.777   4.433  13.628  0.00  0.00    +0.000 A 
ATOM      7  F   UNL     1      47.252   3.281  14.123  0.00  0.00    +0.000 F 
ATOM      8  C   UNL     1      47.549   5.580  13.699  0.00  0.00    +0.000 A 
ATOM      9  C   UNL     1      47.057   6.772  13.180  0.00  0.00    +0.000 A 
ATOM     10  C   UNL     1      45.785   6.806  12.601  0.00  0.00    +0.000 A 
BRANCH   9  11
ATOM     11  O   UNL     1      47.884   7.858  13.306  0.00  0.00    +0.000 OA
BRANCH  11  12
ATOM     12  C   UNL     1      48.588   8.335  12.136  0.00  0.00    +0.000 C 
ATOM     13  C   UNL     1      50.063   8.765  12.302  0.00  0.00    +0.000 C 
ATOM     14  N   UNL     1      49.790   9.981  11.508  0.00  0.00    +0.000 NA
ATOM     15  C   UNL     1      48.348   9.820  11.787  0.00  0.00    +0.000 C 
ATOM     16  H   UNL     1      50.027   9.889  10.521  0.00  0.00    +0.000 HD
ENDBRANCH  11  12
ENDBRANCH   9  11
ENDBRANCH   1   4
BRANCH   1  17
ATOM     17  C   UNL     1      43.361   4.731  10.685  0.00  0.00    +0.000 C 
BRANCH  17  18
ATOM     18  N   UNL     1      44.252   4.865   9.517  0.00  0.00    +0.000 N 
ATOM     19  H   UNL     1      43.887   5.470   8.780  0.00  0.00    +0.000 HD
BRANCH  18  24
ATOM     20  C   UNL     1      46.709   0.134   7.566  0.00  0.00    +0.000 C 
ATOM     21  C   UNL     1      46.134   1.437   8.037  0.00  0.00    +0.000 A 
ATOM     22  N   UNL     1      45.291   1.348   9.100  0.00  0.00    +0.000 NA
ATOM     23  C   UNL     1      44.724   2.492   9.556  0.00  0.00    +0.000 A 
ATOM     24  C   UNL     1      44.956   3.764   9.033  0.00  0.00    +0.000 A 
ATOM     25  C   UNL     1      45.808   3.816   7.929  0.00  0.00    +0.000 A 
ATOM     26  C   UNL     1      46.409   2.658   7.416  0.00  0.00    +0.000 A 
BRANCH  26  27
ATOM     27  C   UNL     1      47.337   2.766   6.257  0.00  0.00    +0.000 C 
ATOM     28  N   UNL     1      48.681   2.707   6.514  0.00  0.00    +0.000 N 
ATOM     29  O   UNL     1      46.946   2.903   5.106  0.00  0.00    +0.000 OA
ATOM     30  H   UNL     1      49.083   2.795   7.435  0.00  0.00    +0.000 HD
ATOM     31  H   UNL     1      49.294   2.849   5.720  0.00  0.00    +0.000 HD
ENDBRANCH  26  27
ENDBRANCH  18  24
ENDBRANCH  17  18
ENDBRANCH   1  17
TORSDOF 7
ENDMDL
MODEL 3
REMARK VINA RESULT:    -8.229      2.641      3.981
REMARK INTER + INTRA:         -12.463
REMARK INTER:                 -11.956
REMARK INTRA:                  -0.506
REMARK UNBOUND:                -0.865
REMARK  Name = 
REMARK  8 active torsions:
REMARK  status: ('A' for Active; 'I' for Inactive)
REMARK    1  A    between atoms: C_1  and  C_2
REMARK    2  A    between atoms: C_5  and  N_6
REMARK    3  A    between atoms: N_6  and  C_7
REMARK    4  A    between atoms: C_7  and  C_8
REMARK    5  A    between atoms: C_8  and  C_11
REMARK    6  A    between atoms: C_16  and  O_17
REMARK    7  A    between atoms: O_17  and  C_18
REMARK    8  A    between atoms: C_24  and  C_25
REMARK                            x       y       z     vdW  Elec       q    Type
REMARK                         _______ _______ _______ _____ _____    ______ ____
ROOT
ATOM      1  C   UNL     1      43.301   4.555  12.684  0.00  0.00    +0.000 C 
ATOM      2  F   UNL     1      42.319   5.507  12.804  0.00  0.00    +0.000 F 
ATOM      3  F   UNL     1      43.009   3.635  13.659  0.00  0.00    +0.000 F 
ENDROOT
BRANCH   1   4
ATOM      4  C   UNL     1      44.671   5.166  12.924  0.00  0.00    +0.000 A 
ATOM      5  C   UNL     1      45.666   4.567  13.710  0.00  0.00    +0.000 A 
ATOM      6  C   UNL     1      46.907   5.177  13.852  0.00  0.00    +0.000 A 
ATOM      7  F   UNL     1      47.846   4.579  14.598  0.00  0.00    +0.000 F 
ATOM      8  C   UNL     1      47.188   6.383  13.233  0.00  0.00    +0.000 A 
ATOM      9  C   UNL     1      46.215   6.999  12.454  0.00  0.00    +0.000 A 
ATOM     10  C   UNL     1      44.958   6.403  12.312  0.00  0.00    +0.000 A 
BRANCH   9  11
ATOM     11  O   UNL     1      46.577   8.195  11.891  0.00  0.00    +0.000 OA
BRANCH  11  12
ATOM     12  C   UNL     1      46.138   9.421  12.521  0.00  0.00    +0.000 C 
ATOM     13  C   UNL     1      44.768  10.001  12.103  0.00  0.00    +0.000 C 
ATOM     14  N   UNL     1      45.375  11.344  12.004  0.00  0.00    +0.000 NA
ATOM     15  C   UNL     1      46.709  10.716  11.904  0.00  0.00    +0.000 C 
ATOM     16  H   UNL     1      45.254  11.914  12.841  0.00  0.00    +0.000 HD
ENDBRANCH  11  12
ENDBRANCH   9  11
ENDBRANCH   1   4
BRANCH   1  17
ATOM     17  C   UNL     1      43.077   3.845  11.327  0.00  0.00    +0.000 C 
BRANCH  17  18
ATOM     18  N   UNL     1      44.132   2.877  10.970  0.00  0.00    +0.000 N 
ATOM     19  H   UNL     1      44.770   2.653  11.734  0.00  0.00    +0.000 HD
BRANCH  18  24
ATOM     20  C   UNL     1      46.832   3.559   6.023  0.00  0.00    +0.000 C 
ATOM     21  C   UNL     1      46.125   3.279   7.316  0.00  0.00    +0.000 A 
ATOM     22  N   UNL     1      45.378   4.305   7.803  0.00  0.00    +0.000 NA
ATOM     23  C   UNL     1      44.733   4.117   8.980  0.00  0.00    +0.000 A 
ATOM     24  C   UNL     1      44.756   2.938   9.725  0.00  0.00    +0.000 A 
ATOM     25  C   UNL     1      45.551   1.914   9.209  0.00  0.00    +0.000 A 
ATOM     26  C   UNL     1      46.244   2.067   8.000  0.00  0.00    +0.000 A 
BRANCH  26  27
ATOM     27  C   UNL     1      47.053   0.934   7.471  0.00  0.00    +0.000 C 
ATOM     28  N   UNL     1      46.564  -0.332   7.649  0.00  0.00    +0.000 N 
ATOM     29  O   UNL     1      48.120   1.096   6.893  0.00  0.00    +0.000 OA
ATOM     30  H   UNL     1      45.809  -0.561   8.279  0.00  0.00    +0.000 HD
ATOM     31  H   UNL     1      47.162  -1.090   7.342  0.00  0.00    +0.000 HD
ENDBRANCH  26  27
ENDBRANCH  18  24
ENDBRANCH  17  18
ENDBRANCH   1  17
TORSDOF 7
ENDMDL
MODEL 4
REMARK VINA RESULT:    -8.161      2.090      2.724
REMARK INTER + INTRA:         -12.366
REMARK INTER:                 -11.868
REMARK INTRA:                  -0.498
REMARK UNBOUND:                -0.865
REMARK  Name = 
REMARK  8 active torsions:
REMARK  status: ('A' for Active; 'I' for Inactive)
REMARK    1  A    between atoms: C_1  and  C_2
REMARK    2  A    between atoms: C_5  and  N_6
REMARK    3  A    between atoms: N_6  and  C_7
REMARK    4  A    between atoms: C_7  and  C_8
REMARK    5  A    between atoms: C_8  and  C_11
REMARK    6  A    between atoms: C_16  and  O_17
REMARK    7  A    between atoms: O_17  and  C_18
REMARK    8  A    between atoms: C_24  and  C_25
REMARK                            x       y       z     vdW  Elec       q    Type
REMARK                         _______ _______ _______ _____ _____    ______ ____
ROOT
ATOM      1  C   UNL     1      44.213   4.116  12.642  0.00  0.00    +0.000 C 
ATOM      2  F   UNL     1      43.419   4.246  13.754  0.00  0.00    +0.000 F 
ATOM      3  F   UNL     1      44.988   3.014  12.900  0.00  0.00    +0.000 F 
ENDROOT
BRANCH   1   4
ATOM      4  C   UNL     1      45.084   5.347  12.460  0.00  0.00    +0.000 A 
ATOM      5  C   UNL     1      44.632   6.545  11.886  0.00  0.00    +0.000 A 
ATOM      6  C   UNL     1      45.486   7.638  11.787  0.00  0.00    +0.000 A 
ATOM      7  F   UNL     1      45.028   8.775  11.245  0.00  0.00    +0.000 F 
ATOM      8  C   UNL     1      46.792   7.572  12.242  0.00  0.00    +0.000 A 
ATOM      9  C   UNL     1      47.263   6.394  12.808  0.00  0.00    +0.000 A 
ATOM     10  C   UNL     1      46.421   5.282  12.905  0.00  0.00    +0.000 A 
BRANCH   9  11
ATOM     11  O   UNL     1      48.571   6.416  13.219  0.00  0.00    +0.000 OA
BRANCH  11  12
ATOM     12  C   UNL     1      48.945   7.303  14.298  0.00  0.00    +0.000 C 
ATOM     13  C   UNL     1      50.438   7.672  14.449  0.00  0.00    +0.000 C 
ATOM     14  N   UNL     1      50.344   7.427  15.903  0.00  0.00    +0.000 NA
ATOM     15  C   UNL     1      49.126   6.623  15.672  0.00  0.00    +0.000 C 
ATOM     16  H   UNL     1      50.178   8.270  16.452  0.00  0.00    +0.000 HD
ENDBRANCH  11  12
ENDBRANCH   9  11
ENDBRANCH   1   4
BRANCH   1  17
ATOM     17  C   UNL     1      43.282   3.734  11.466  0.00  0.00    +0.000 C 
BRANCH  17  18
ATOM     18  N   UNL     1      43.732   2.559  10.696  0.00  0.00    +0.000 N 
ATOM     19  H   UNL     1      44.029   1.770  11.272  0.00  0.00    +0.000 HD
BRANCH  18  24
ATOM     20  C   UNL     1      46.963   3.635   6.154  0.00  0.00    +0.000 C 
ATOM     21  C   UNL     1      46.119   3.252   7.334  0.00  0.00    +0.000 A 
ATOM     22  N   UNL     1      45.302   4.231   7.804  0.00  0.00    +0.000 NA
ATOM     23  C   UNL     1      44.531   3.949   8.883  0.00  0.00    +0.000 A 
ATOM     24  C   UNL     1      44.492   2.719   9.539  0.00  0.00    +0.000 A 
ATOM     25  C   UNL     1      45.360   1.744   9.044  0.00  0.00    +0.000 A 
ATOM     26  C   UNL     1      46.183   1.994   7.937  0.00  0.00    +0.000 A 
BRANCH  26  27
ATOM     27  C   UNL     1      47.069   0.913   7.423  0.00  0.00    +0.000 C 
ATOM     28  N   UNL     1      46.669  -0.382   7.622  0.00  0.00    +0.000 N 
ATOM     29  O   UNL     1      48.121   1.140   6.842  0.00  0.00    +0.000 OA
ATOM     30  H   UNL     1      45.932  -0.653   8.255  0.00  0.00    +0.000 HD
ATOM     31  H   UNL     1      47.318  -1.101   7.324  0.00  0.00    +0.000 HD
ENDBRANCH  26  27
ENDBRANCH  18  24
ENDBRANCH  17  18
ENDBRANCH   1  17
TORSDOF 7
ENDMDL
MODEL 5
REMARK VINA RESULT:    -8.073      2.046      8.023
REMARK INTER + INTRA:         -12.242
REMARK INTER:                 -11.500
REMARK INTRA:                  -0.742
REMARK UNBOUND:                -0.865
REMARK  Name = 
REMARK  8 active torsions:
REMARK  status: ('A' for Active; 'I' for Inactive)
REMARK    1  A    between atoms: C_1  and  C_2
REMARK    2  A    between atoms: C_5  and  N_6
REMARK    3  A    between atoms: N_6  and  C_7
REMARK    4  A    between atoms: C_7  and  C_8
REMARK    5  A    between atoms: C_8  and  C_11
REMARK    6  A    between atoms: C_16  and  O_17
REMARK    7  A    between atoms: O_17  and  C_18
REMARK    8  A    between atoms: C_24  and  C_25
REMARK                            x       y       z     vdW  Elec       q    Type
REMARK                         _______ _______ _______ _____ _____    ______ ____
ROOT
ATOM      1  C   UNL     1      45.776   6.285  11.151  0.00  0.00    +0.000 C 
ATOM      2  F   UNL     1      44.902   7.305  10.868  0.00  0.00    +0.000 F 
ATOM      3  F   UNL     1      46.968   6.692  10.609  0.00  0.00    +0.000 F 
ENDROOT
BRANCH   1   4
ATOM      4  C   UNL     1      45.313   4.990  10.504  0.00  0.00    +0.000 A 
ATOM      5  C   UNL     1      44.513   4.037  11.152  0.00  0.00    +0.000 A 
ATOM      6  C   UNL     1      44.104   2.892  10.476  0.00  0.00    +0.000 A 
ATOM      7  F   UNL     1      43.330   2.002  11.112  0.00  0.00    +0.000 F 
ATOM      8  C   UNL     1      44.477   2.663   9.163  0.00  0.00    +0.000 A 
ATOM      9  C   UNL     1      45.276   3.590   8.504  0.00  0.00    +0.000 A 
ATOM     10  C   UNL     1      45.704   4.740   9.172  0.00  0.00    +0.000 A 
BRANCH   9  11
ATOM     11  O   UNL     1      45.606   3.274   7.211  0.00  0.00    +0.000 OA
BRANCH  11  12
ATOM     12  C   UNL     1      47.002   3.109   6.872  0.00  0.00    +0.000 C 
ATOM     13  C   UNL     1      47.363   2.851   5.392  0.00  0.00    +0.000 C 
ATOM     14  N   UNL     1      48.282   1.773   5.812  0.00  0.00    +0.000 NA
ATOM     15  C   UNL     1      47.572   1.693   7.105  0.00  0.00    +0.000 C 
ATOM     16  H   UNL     1      49.254   2.070   5.898  0.00  0.00    +0.000 HD
ENDBRANCH  11  12
ENDBRANCH   9  11
ENDBRANCH   1   4
BRANCH   1  17
ATOM     17  C   UNL     1      45.971   6.272  12.686  0.00  0.00    +0.000 C 
BRANCH  17  18
ATOM     18  N   UNL     1      47.309   6.707  13.129  0.00  0.00    +0.000 N 
ATOM     19  H   UNL     1      48.000   6.765  12.379  0.00  0.00    +0.000 HD
BRANCH  18  24
ATOM     20  C   UNL     1      49.359   5.296  18.232  0.00  0.00    +0.000 C 
ATOM     21  C   UNL     1      48.803   5.570  16.865  0.00  0.00    +0.000 A 
ATOM     22  N   UNL     1      49.132   6.779  16.338  0.00  0.00    +0.000 NA
ATOM     23  C   UNL     1      48.640   7.091  15.114  0.00  0.00    +0.000 A 
ATOM     24  C   UNL     1      47.838   6.255  14.337  0.00  0.00    +0.000 A 
ATOM     25  C   UNL     1      47.502   5.032  14.918  0.00  0.00    +0.000 A 
ATOM     26  C   UNL     1      47.978   4.671  16.186  0.00  0.00    +0.000 A 
BRANCH  26  27
ATOM     27  C   UNL     1      47.620   3.341  16.752  0.00  0.00    +0.000 C 
ATOM     28  N   UNL     1      48.523   2.323  16.598  0.00  0.00    +0.000 N 
ATOM     29  O   UNL     1      46.566   3.133  17.337  0.00  0.00    +0.000 OA
ATOM     30  H   UNL     1      49.309   2.358  15.966  0.00  0.00    +0.000 HD
ATOM     31  H   UNL     1      48.230   1.412  16.931  0.00  0.00    +0.000 HD
ENDBRANCH  26  27
ENDBRANCH  18  24
ENDBRANCH  17  18
ENDBRANCH   1  17
TORSDOF 7
ENDMDL
MODEL 6
REMARK VINA RESULT:    -8.044      2.108      7.893
REMARK INTER + INTRA:         -12.202
REMARK INTER:                 -11.345
REMARK INTRA:                  -0.857
REMARK UNBOUND:                -0.865
REMARK  Name = 
REMARK  8 active torsions:
REMARK  status: ('A' for Active; 'I' for Inactive)
REMARK    1  A    between atoms: C_1  and  C_2
REMARK    2  A    between atoms: C_5  and  N_6
REMARK    3  A    between atoms: N_6  and  C_7
REMARK    4  A    between atoms: C_7  and  C_8
REMARK    5  A    between atoms: C_8  and  C_11
REMARK    6  A    between atoms: C_16  and  O_17
REMARK    7  A    between atoms: O_17  and  C_18
REMARK    8  A    between atoms: C_24  and  C_25
REMARK                            x       y       z     vdW  Elec       q    Type
REMARK                         _______ _______ _______ _____ _____    ______ ____
ROOT
ATOM      1  C   UNL     1      45.633   6.293  11.228  0.00  0.00    +0.000 C 
ATOM      2  F   UNL     1      44.908   7.353  10.742  0.00  0.00    +0.000 F 
ATOM      3  F   UNL     1      46.936   6.602  10.930  0.00  0.00    +0.000 F 
ENDROOT
BRANCH   1   4
ATOM      4  C   UNL     1      45.222   5.004  10.538  0.00  0.00    +0.000 A 
ATOM      5  C   UNL     1      44.448   4.005  11.147  0.00  0.00    +0.000 A 
ATOM      6  C   UNL     1      44.086   2.868  10.433  0.00  0.00    +0.000 A 
ATOM      7  F   UNL     1      43.337   1.933  11.033  0.00  0.00    +0.000 F 
ATOM      8  C   UNL     1      44.481   2.691   9.118  0.00  0.00    +0.000 A 
ATOM      9  C   UNL     1      45.254   3.665   8.496  0.00  0.00    +0.000 A 
ATOM     10  C   UNL     1      45.635   4.808   9.204  0.00  0.00    +0.000 A 
BRANCH   9  11
ATOM     11  O   UNL     1      45.609   3.398   7.199  0.00  0.00    +0.000 OA
BRANCH  11  12
ATOM     12  C   UNL     1      47.002   3.161   6.894  0.00  0.00    +0.000 C 
ATOM     13  C   UNL     1      47.384   2.865   5.426  0.00  0.00    +0.000 C 
ATOM     14  N   UNL     1      48.239   1.749   5.882  0.00  0.00    +0.000 NA
ATOM     15  C   UNL     1      47.496   1.722   7.158  0.00  0.00    +0.000 C 
ATOM     16  H   UNL     1      49.222   1.999   5.987  0.00  0.00    +0.000 HD
ENDBRANCH  11  12
ENDBRANCH   9  11
ENDBRANCH   1   4
BRANCH   1  17
ATOM     17  C   UNL     1      45.511   6.334  12.770  0.00  0.00    +0.000 C 
BRANCH  17  18
ATOM     18  N   UNL     1      46.805   6.388  13.477  0.00  0.00    +0.000 N 
ATOM     19  H   UNL     1      47.585   6.706  12.900  0.00  0.00    +0.000 HD
BRANCH  18  24
ATOM     20  C   UNL     1      48.492   2.120  16.820  0.00  0.00    +0.000 C 
ATOM     21  C   UNL     1      48.033   3.304  16.021  0.00  0.00    +0.000 A 
ATOM     22  N   UNL     1      47.582   3.019  14.770  0.00  0.00    +0.000 NA
ATOM     23  C   UNL     1      47.175   4.052  13.993  0.00  0.00    +0.000 A 
ATOM     24  C   UNL     1      47.158   5.390  14.385  0.00  0.00    +0.000 A 
ATOM     25  C   UNL     1      47.649   5.650  15.665  0.00  0.00    +0.000 A 
ATOM     26  C   UNL     1      48.092   4.614  16.501  0.00  0.00    +0.000 A 
BRANCH  26  27
ATOM     27  C   UNL     1      48.576   4.935  17.872  0.00  0.00    +0.000 C 
ATOM     28  N   UNL     1      47.664   4.891  18.892  0.00  0.00    +0.000 N 
ATOM     29  O   UNL     1      49.739   5.231  18.110  0.00  0.00    +0.000 OA
ATOM     30  H   UNL     1      46.665   4.854  18.754  0.00  0.00    +0.000 HD
ATOM     31  H   UNL     1      48.000   5.178  19.804  0.00  0.00    +0.000 HD
ENDBRANCH  26  27
ENDBRANCH  18  24
ENDBRANCH  17  18
ENDBRANCH   1  17
TORSDOF 7
ENDMDL
MODEL 7
REMARK VINA RESULT:    -7.918      2.487      2.835
REMARK INTER + INTRA:         -12.023
REMARK INTER:                 -11.287
REMARK INTRA:                  -0.737
REMARK UNBOUND:                -0.865
REMARK  Name = 
REMARK  8 active torsions:
REMARK  status: ('A' for Active; 'I' for Inactive)
REMARK    1  A    between atoms: C_1  and  C_2
REMARK    2  A    between atoms: C_5  and  N_6
REMARK    3  A    between atoms: N_6  and  C_7
REMARK    4  A    between atoms: C_7  and  C_8
REMARK    5  A    between atoms: C_8  and  C_11
REMARK    6  A    between atoms: C_16  and  O_17
REMARK    7  A    between atoms: O_17  and  C_18
REMARK    8  A    between atoms: C_24  and  C_25
REMARK                            x       y       z     vdW  Elec       q    Type
REMARK                         _______ _______ _______ _____ _____    ______ ____
ROOT
ATOM      1  C   UNL     1      44.077   5.241  11.987  0.00  0.00    +0.000 C 
ATOM      2  F   UNL     1      43.129   5.082  12.968  0.00  0.00    +0.000 F 
ATOM      3  F   UNL     1      45.034   4.301  12.277  0.00  0.00    +0.000 F 
ENDROOT
BRANCH   1   4
ATOM      4  C   UNL     1      44.672   6.638  12.040  0.00  0.00    +0.000 A 
ATOM      5  C   UNL     1      44.136   7.741  11.359  0.00  0.00    +0.000 A 
ATOM      6  C   UNL     1      44.722   8.995  11.487  0.00  0.00    +0.000 A 
ATOM      7  F   UNL     1      44.184  10.036  10.837  0.00  0.00    +0.000 F 
ATOM      8  C   UNL     1      45.843   9.185  12.278  0.00  0.00    +0.000 A 
ATOM      9  C   UNL     1      46.396   8.105  12.956  0.00  0.00    +0.000 A 
ATOM     10  C   UNL     1      45.825   6.836  12.828  0.00  0.00    +0.000 A 
BRANCH   9  11
ATOM     11  O   UNL     1      47.511   8.384  13.703  0.00  0.00    +0.000 OA
BRANCH  11  12
ATOM     12  C   UNL     1      48.654   7.504  13.601  0.00  0.00    +0.000 C 
ATOM     13  C   UNL     1      49.957   7.920  14.320  0.00  0.00    +0.000 C 
ATOM     14  N   UNL     1      50.729   7.567  13.111  0.00  0.00    +0.000 NA
ATOM     15  C   UNL     1      49.490   7.661  12.312  0.00  0.00    +0.000 C 
ATOM     16  H   UNL     1      51.127   6.628  13.136  0.00  0.00    +0.000 HD
ENDBRANCH  11  12
ENDBRANCH   9  11
ENDBRANCH   1   4
BRANCH   1  17
ATOM     17  C   UNL     1      43.423   4.806  10.653  0.00  0.00    +0.000 C 
BRANCH  17  18
ATOM     18  N   UNL     1      44.307   4.926   9.479  0.00  0.00    +0.000 N 
ATOM     19  H   UNL     1      43.942   5.528   8.739  0.00  0.00    +0.000 HD
BRANCH  18  24
ATOM     20  C   UNL     1      46.726   0.165   7.552  0.00  0.00    +0.000 C 
ATOM     21  C   UNL     1      46.161   1.476   8.015  0.00  0.00    +0.000 A 
ATOM     22  N   UNL     1      45.329   1.401   9.088  0.00  0.00    +0.000 NA
ATOM     23  C   UNL     1      44.771   2.552   9.538  0.00  0.00    +0.000 A 
ATOM     24  C   UNL     1      45.002   3.817   8.999  0.00  0.00    +0.000 A 
ATOM     25  C   UNL     1      45.842   3.854   7.885  0.00  0.00    +0.000 A 
ATOM     26  C   UNL     1      46.433   2.688   7.378  0.00  0.00    +0.000 A 
BRANCH  26  27
ATOM     27  C   UNL     1      47.349   2.781   6.208  0.00  0.00    +0.000 C 
ATOM     28  N   UNL     1      48.695   2.705   6.449  0.00  0.00    +0.000 N 
ATOM     29  O   UNL     1      46.946   2.919   5.061  0.00  0.00    +0.000 OA
ATOM     30  H   UNL     1      49.109   2.791   7.366  0.00  0.00    +0.000 HD
ATOM     31  H   UNL     1      49.301   2.837   5.648  0.00  0.00    +0.000 HD
ENDBRANCH  26  27
ENDBRANCH  18  24
ENDBRANCH  17  18
ENDBRANCH   1  17
TORSDOF 7
ENDMDL
MODEL 8
REMARK VINA RESULT:    -7.793      2.795      7.325
REMARK INTER + INTRA:         -11.847
REMARK INTER:                 -10.782
REMARK INTRA:                  -1.065
REMARK UNBOUND:                -0.865
REMARK  Name = 
REMARK  8 active torsions:
REMARK  status: ('A' for Active; 'I' for Inactive)
REMARK    1  A    between atoms: C_1  and  C_2
REMARK    2  A    between atoms: C_5  and  N_6
REMARK    3  A    between atoms: N_6  and  C_7
REMARK    4  A    between atoms: C_7  and  C_8
REMARK    5  A    between atoms: C_8  and  C_11
REMARK    6  A    between atoms: C_16  and  O_17
REMARK    7  A    between atoms: O_17  and  C_18
REMARK    8  A    between atoms: C_24  and  C_25
REMARK                            x       y       z     vdW  Elec       q    Type
REMARK                         _______ _______ _______ _____ _____    ______ ____
ROOT
ATOM      1  C   UNL     1      44.534   6.140  11.385  0.00  0.00    +0.000 C 
ATOM      2  F   UNL     1      43.227   6.561  11.388  0.00  0.00    +0.000 F 
ATOM      3  F   UNL     1      45.236   7.202  10.875  0.00  0.00    +0.000 F 
ENDROOT
BRANCH   1   4
ATOM      4  C   UNL     1      44.700   4.918  10.498  0.00  0.00    +0.000 A 
ATOM      5  C   UNL     1      44.120   3.670  10.772  0.00  0.00    +0.000 A 
ATOM      6  C   UNL     1      44.293   2.610   9.889  0.00  0.00    +0.000 A 
ATOM      7  F   UNL     1      43.719   1.431  10.166  0.00  0.00    +0.000 F 
ATOM      8  C   UNL     1      45.040   2.754   8.732  0.00  0.00    +0.000 A 
ATOM      9  C   UNL     1      45.629   3.980   8.444  0.00  0.00    +0.000 A 
ATOM     10  C   UNL     1      45.474   5.052   9.327  0.00  0.00    +0.000 A 
BRANCH   9  11
ATOM     11  O   UNL     1      46.361   4.026   7.285  0.00  0.00    +0.000 OA
BRANCH  11  12
ATOM     12  C   UNL     1      46.719   2.783   6.639  0.00  0.00    +0.000 C 
ATOM     13  C   UNL     1      48.150   2.241   6.853  0.00  0.00    +0.000 C 
ATOM     14  N   UNL     1      48.252   1.963   5.405  0.00  0.00    +0.000 NA
ATOM     15  C   UNL     1      47.146   2.911   5.161  0.00  0.00    +0.000 C 
ATOM     16  H   UNL     1      48.028   1.001   5.153  0.00  0.00    +0.000 HD
ENDBRANCH  11  12
ENDBRANCH   9  11
ENDBRANCH   1   4
BRANCH   1  17
ATOM     17  C   UNL     1      44.965   5.997  12.865  0.00  0.00    +0.000 C 
BRANCH  17  18
ATOM     18  N   UNL     1      46.266   5.328  13.053  0.00  0.00    +0.000 N 
ATOM     19  H   UNL     1      46.211   4.438  13.551  0.00  0.00    +0.000 HD
BRANCH  18  24
ATOM     20  C   UNL     1      51.049   7.973  14.590  0.00  0.00    +0.000 C 
ATOM     21  C   UNL     1      49.782   7.334  14.102  0.00  0.00    +0.000 A 
ATOM     22  N   UNL     1      49.058   6.683  15.051  0.00  0.00    +0.000 NA
ATOM     23  C   UNL     1      47.914   6.067  14.664  0.00  0.00    +0.000 A 
ATOM     24  C   UNL     1      47.405   6.069  13.366  0.00  0.00    +0.000 A 
ATOM     25  C   UNL     1      48.184   6.726  12.413  0.00  0.00    +0.000 A 
ATOM     26  C   UNL     1      49.380   7.367  12.765  0.00  0.00    +0.000 A 
BRANCH  26  27
ATOM     27  C   UNL     1      50.162   8.085  11.720  0.00  0.00    +0.000 C 
ATOM     28  N   UNL     1      51.107   7.371  11.033  0.00  0.00    +0.000 N 
ATOM     29  O   UNL     1      49.990   9.268  11.461  0.00  0.00    +0.000 OA
ATOM     30  H   UNL     1      51.444   6.463  11.318  0.00  0.00    +0.000 HD
ATOM     31  H   UNL     1      51.673   7.894  10.376  0.00  0.00    +0.000 HD
ENDBRANCH  26  27
ENDBRANCH  18  24
ENDBRANCH  17  18
ENDBRANCH   1  17
TORSDOF 7
ENDMDL
MODEL 9
REMARK VINA RESULT:    -7.790      2.982      4.337
REMARK INTER + INTRA:         -11.843
REMARK INTER:                 -11.289
REMARK INTRA:                  -0.554
REMARK UNBOUND:                -0.865
REMARK  Name = 
REMARK  8 active torsions:
REMARK  status: ('A' for Active; 'I' for Inactive)
REMARK    1  A    between atoms: C_1  and  C_2
REMARK    2  A    between atoms: C_5  and  N_6
REMARK    3  A    between atoms: N_6  and  C_7
REMARK    4  A    between atoms: C_7  and  C_8
REMARK    5  A    between atoms: C_8  and  C_11
REMARK    6  A    between atoms: C_16  and  O_17
REMARK    7  A    between atoms: O_17  and  C_18
REMARK    8  A    between atoms: C_24  and  C_25
REMARK                            x       y       z     vdW  Elec       q    Type
REMARK                         _______ _______ _______ _____ _____    ______ ____
ROOT
ATOM      1  C   UNL     1      44.605   5.094  12.015  0.00  0.00    +0.000 C 
ATOM      2  F   UNL     1      43.779   5.036  13.110  0.00  0.00    +0.000 F 
ATOM      3  F   UNL     1      45.433   4.009  12.150  0.00  0.00    +0.000 F 
ENDROOT
BRANCH   1   4
ATOM      4  C   UNL     1      45.412   6.381  12.023  0.00  0.00    +0.000 A 
ATOM      5  C   UNL     1      46.790   6.441  11.764  0.00  0.00    +0.000 A 
ATOM      6  C   UNL     1      47.448   7.665  11.758  0.00  0.00    +0.000 A 
ATOM      7  F   UNL     1      48.762   7.697  11.497  0.00  0.00    +0.000 F 
ATOM      8  C   UNL     1      46.770   8.846  12.009  0.00  0.00    +0.000 A 
ATOM      9  C   UNL     1      45.405   8.810  12.274  0.00  0.00    +0.000 A 
ATOM     10  C   UNL     1      44.732   7.586  12.296  0.00  0.00    +0.000 A 
BRANCH   9  11
ATOM     11  O   UNL     1      44.820  10.025  12.525  0.00  0.00    +0.000 OA
BRANCH  11  12
ATOM     12  C   UNL     1      44.255  10.765  11.418  0.00  0.00    +0.000 C 
ATOM     13  C   UNL     1      42.756  11.133  11.482  0.00  0.00    +0.000 C 
ATOM     14  N   UNL     1      42.596  10.695  10.080  0.00  0.00    +0.000 NA
ATOM     15  C   UNL     1      43.842   9.910  10.200  0.00  0.00    +0.000 C 
ATOM     16  H   UNL     1      42.655  11.454   9.402  0.00  0.00    +0.000 HD
ENDBRANCH  11  12
ENDBRANCH   9  11
ENDBRANCH   1   4
BRANCH   1  17
ATOM     17  C   UNL     1      43.725   4.825  10.770  0.00  0.00    +0.000 C 
BRANCH  17  18
ATOM     18  N   UNL     1      44.452   4.896   9.489  0.00  0.00    +0.000 N 
ATOM     19  H   UNL     1      43.980   5.445   8.769  0.00  0.00    +0.000 HD
BRANCH  18  24
ATOM     20  C   UNL     1      46.725   0.103   7.467  0.00  0.00    +0.000 C 
ATOM     21  C   UNL     1      46.200   1.420   7.956  0.00  0.00    +0.000 A 
ATOM     22  N   UNL     1      45.366   1.350   9.028  0.00  0.00    +0.000 NA
ATOM     23  C   UNL     1      44.843   2.507   9.501  0.00  0.00    +0.000 A 
ATOM     24  C   UNL     1      45.113   3.776   8.987  0.00  0.00    +0.000 A 
ATOM     25  C   UNL     1      45.954   3.809   7.874  0.00  0.00    +0.000 A 
ATOM     26  C   UNL     1      46.509   2.637   7.343  0.00  0.00    +0.000 A 
BRANCH  26  27
ATOM     27  C   UNL     1      47.428   2.724   6.175  0.00  0.00    +0.000 C 
ATOM     28  N   UNL     1      48.772   2.613   6.415  0.00  0.00    +0.000 N 
ATOM     29  O   UNL     1      47.029   2.889   5.030  0.00  0.00    +0.000 OA
ATOM     30  H   UNL     1      49.187   2.676   7.333  0.00  0.00    +0.000 HD
ATOM     31  H   UNL     1      49.381   2.743   5.616  0.00  0.00    +0.000 HD
ENDBRANCH  26  27
ENDBRANCH  18  24
ENDBRANCH  17  18
ENDBRANCH   1  17
TORSDOF 7
ENDMDL
