MODEL 1
REMARK VINA RESULT:    -9.350      0.000      0.000
REMARK INTER + INTRA:         -12.681
REMARK INTER:                 -11.536
REMARK INTRA:                  -1.145
REMARK UNBOUND:                -1.145
REMARK  Name = 
REMARK  4 active torsions:
REMARK  status: ('A' for Active; 'I' for Inactive)
REMARK    1  A    between atoms: C_2  and  C_4
REMARK    2  A    between atoms: N_8  and  C_9
REMARK    3  A    between atoms: C_9  and  C_10
REMARK    4  A    between atoms: C_14  and  C_15
REMARK                            x       y       z     vdW  Elec       q    Type
REMARK                         _______ _______ _______ _____ _____    ______ ____
ROOT
ATOM      1  C   UNL     1      43.855   4.867  11.392  0.00  0.00    +0.000 C 
ATOM      2  C   UNL     1      42.541   5.114  12.117  0.00  0.00    +0.000 C 
ATOM      3  C   UNL     1      42.984   6.066  11.059  0.00  0.00    +0.000 C 
ENDROOT
BRANCH   1   8
ATOM      4  C   UNL     1      46.594   2.792   7.473  0.00  0.00    +0.000 A 
ATOM      5  C   UNL     1      46.312   4.132   7.728  0.00  0.00    +0.000 A 
ATOM      6  C   UNL     1      45.453   4.465   8.780  0.00  0.00    +0.000 A 
ATOM      7  C   UNL     1      44.882   3.456   9.547  0.00  0.00    +0.000 A 
ATOM      8  N   UNL     1      43.899   3.687  10.513  0.00  0.00    +0.000 N 
ATOM      9  N   UNL     1      45.165   2.154   9.321  0.00  0.00    +0.000 NA
ATOM     10  C   UNL     1      46.002   1.848   8.297  0.00  0.00    +0.000 A 
ATOM     11  H   UNL     1      43.738   2.785  10.957  0.00  0.00    +0.000 HD
BRANCH   4  13
ATOM     12  N   UNL     1      47.295   3.001   5.151  0.00  0.00    +0.000 N 
ATOM     13  C   UNL     1      47.426   2.339   6.338  0.00  0.00    +0.000 C 
ATOM     14  O   UNL     1      48.223   1.416   6.461  0.00  0.00    +0.000 OA
ATOM     15  H   UNL     1      47.918   2.719   4.406  0.00  0.00    +0.000 HD
ATOM     16  H   UNL     1      46.841   3.899   5.069  0.00  0.00    +0.000 HD
ENDBRANCH   4  13
ENDBRANCH   1   8
BRANCH   1  17
ATOM     17  C   UNL     1      45.130   5.061  12.206  0.00  0.00    +0.000 A 
ATOM     18  C   UNL     1      45.620   4.049  13.047  0.00  0.00    +0.000 A 
ATOM     19  C   UNL     1      46.835   4.190  13.716  0.00  0.00    +0.000 A 
ATOM     20  C   UNL     1      47.598   5.346  13.548  0.00  0.00    +0.000 A 
ATOM     21  C   UNL     1      47.162   6.379  12.704  0.00  0.00    +0.000 A 
ATOM     22  C   UNL     1      45.916   6.215  12.067  0.00  0.00    +0.000 A 
BRANCH  21  23
ATOM     23  C   UNL     1      48.012   7.542  12.371  0.00  0.00    +0.000 A 
ATOM     24  C   UNL     1      49.373   7.374  12.067  0.00  0.00    +0.000 A 
ATOM     25  C   UNL     1      50.137   8.433  11.574  0.00  0.00    +0.000 A 
ATOM     26 CL   UNL     1      51.787   8.172  11.167  0.00  0.00    +0.000 Cl
ATOM     27  C   UNL     1      49.570   9.689  11.379  0.00  0.00    +0.000 A 
ATOM     28  C   UNL     1      48.235   9.882  11.711  0.00  0.00    +0.000 A 
ATOM     29 CL   UNL     1      47.503  11.415  11.437  0.00  0.00    +0.000 Cl
ATOM     30  C   UNL     1      47.467   8.832  12.219  0.00  0.00    +0.000 A 
ENDBRANCH  21  23
ENDBRANCH   1  17
TORSDOF 4
ENDMDL
MODEL 2
REMARK VINA RESULT:    -8.773      2.685      3.881
REMARK INTER + INTRA:         -11.969
REMARK INTER:                 -11.781
REMARK INTRA:                  -0.189
REMARK UNBOUND:                -1.145
REMARK  Name = 
REMARK  4 active torsions:
REMARK  status: ('A' for Active; 'I' for Inactive)
REMARK    1  A    between atoms: C_2  and  C_4
REMARK    2  A    between atoms: N_8  and  C_9
REMARK    3  A    between atoms: C_9  and  C_10
REMARK    4  A    between atoms: C_14  and  C_15
REMARK                            x       y       z     vdW  Elec       q    Type
REMARK                         _______ _______ _______ _____ _____    ______ ____
ROOT
ATOM      1  C   UNL     1      43.903   4.855  11.491  0.00  0.00    +0.000 C 
ATOM      2  C   UNL     1      42.827   4.881  12.564  0.00  0.00    +0.000 C 
ATOM      3  C   UNL     1      42.707   5.785  11.386  0.00  0.00    +0.000 C 
ENDROOT
BRANCH   1   8
ATOM      4  C   UNL     1      46.518   2.753   7.502  0.00  0.00    +0.000 A 
ATOM      5  C   UNL     1      46.136   4.079   7.694  0.00  0.00    +0.000 A 
ATOM      6  C   UNL     1      45.332   4.409   8.789  0.00  0.00    +0.000 A 
ATOM      7  C   UNL     1      44.912   3.411   9.661  0.00  0.00    +0.000 A 
ATOM      8  N   UNL     1      43.987   3.624  10.687  0.00  0.00    +0.000 N 
ATOM      9  N   UNL     1      45.293   2.126   9.495  0.00  0.00    +0.000 NA
ATOM     10  C   UNL     1      46.076   1.821   8.428  0.00  0.00    +0.000 A 
ATOM     11  H   UNL     1      43.941   2.746  11.198  0.00  0.00    +0.000 HD
BRANCH   4  13
ATOM     12  N   UNL     1      47.118   2.950   5.151  0.00  0.00    +0.000 N 
ATOM     13  C   UNL     1      47.301   2.295   6.335  0.00  0.00    +0.000 C 
ATOM     14  O   UNL     1      48.104   1.373   6.428  0.00  0.00    +0.000 OA
ATOM     15  H   UNL     1      47.708   2.664   4.381  0.00  0.00    +0.000 HD
ATOM     16  H   UNL     1      46.659   3.846   5.084  0.00  0.00    +0.000 HD
ENDBRANCH   4  13
ENDBRANCH   1   8
BRANCH   1  17
ATOM     17  C   UNL     1      45.266   5.416  11.878  0.00  0.00    +0.000 A 
ATOM     18  C   UNL     1      45.920   6.365  11.075  0.00  0.00    +0.000 A 
ATOM     19  C   UNL     1      47.121   6.948  11.476  0.00  0.00    +0.000 A 
ATOM     20  C   UNL     1      47.692   6.605  12.702  0.00  0.00    +0.000 A 
ATOM     21  C   UNL     1      47.070   5.676  13.550  0.00  0.00    +0.000 A 
ATOM     22  C   UNL     1      45.872   5.084  13.099  0.00  0.00    +0.000 A 
BRANCH  21  23
ATOM     23  C   UNL     1      47.552   5.407  14.921  0.00  0.00    +0.000 A 
ATOM     24  C   UNL     1      47.113   4.275  15.629  0.00  0.00    +0.000 A 
ATOM     25  C   UNL     1      47.698   3.914  16.843  0.00  0.00    +0.000 A 
ATOM     26 CL   UNL     1      47.166   2.494  17.653  0.00  0.00    +0.000 Cl
ATOM     27  C   UNL     1      48.728   4.673  17.391  0.00  0.00    +0.000 A 
ATOM     28  C   UNL     1      49.149   5.816  16.723  0.00  0.00    +0.000 A 
ATOM     29 CL   UNL     1      50.450   6.745  17.360  0.00  0.00    +0.000 Cl
ATOM     30  C   UNL     1      48.559   6.194  15.514  0.00  0.00    +0.000 A 
ENDBRANCH  21  23
ENDBRANCH   1  17
TORSDOF 4
ENDMDL
MODEL 3
REMARK VINA RESULT:    -7.363      5.180      8.355
REMARK INTER + INTRA:         -10.230
REMARK INTER:                  -9.183
REMARK INTRA:                  -1.047
REMARK UNBOUND:                -1.145
REMARK  Name = 
REMARK  4 active torsions:
REMARK  status: ('A' for Active; 'I' for Inactive)
REMARK    1  A    between atoms: C_2  and  C_4
REMARK    2  A    between atoms: N_8  and  C_9
REMARK    3  A    between atoms: C_9  and  C_10
REMARK    4  A    between atoms: C_14  and  C_15
REMARK                            x       y       z     vdW  Elec       q    Type
REMARK                         _______ _______ _______ _____ _____    ______ ____
ROOT
ATOM      1  C   UNL     1      49.223   7.992  12.689  0.00  0.00    +0.000 C 
ATOM      2  C   UNL     1      50.164   8.148  11.505  0.00  0.00    +0.000 C 
ATOM      3  C   UNL     1      50.007   9.274  12.468  0.00  0.00    +0.000 C 
ENDROOT
BRANCH   1   8
ATOM      4  C   UNL     1      48.496   6.807  17.713  0.00  0.00    +0.000 A 
ATOM      5  C   UNL     1      48.555   8.062  17.111  0.00  0.00    +0.000 A 
ATOM      6  C   UNL     1      48.878   8.158  15.754  0.00  0.00    +0.000 A 
ATOM      7  C   UNL     1      49.149   7.004  15.028  0.00  0.00    +0.000 A 
ATOM      8  N   UNL     1      49.627   7.016  13.715  0.00  0.00    +0.000 N 
ATOM      9  N   UNL     1      49.075   5.781  15.597  0.00  0.00    +0.000 NA
ATOM     10  C   UNL     1      48.758   5.705  16.916  0.00  0.00    +0.000 A 
ATOM     11  H   UNL     1      49.652   6.040  13.427  0.00  0.00    +0.000 HD
BRANCH   4  13
ATOM     12  N   UNL     1      47.323   5.663  19.514  0.00  0.00    +0.000 N 
ATOM     13  C   UNL     1      48.240   6.610  19.156  0.00  0.00    +0.000 C 
ATOM     14  O   UNL     1      48.844   7.257  20.004  0.00  0.00    +0.000 OA
ATOM     15  H   UNL     1      47.209   5.499  20.505  0.00  0.00    +0.000 HD
ATOM     16  H   UNL     1      46.986   4.956  18.879  0.00  0.00    +0.000 HD
ENDBRANCH   4  13
ENDBRANCH   1   8
BRANCH   1  17
ATOM     17  C   UNL     1      47.731   7.953  12.375  0.00  0.00    +0.000 A 
ATOM     18  C   UNL     1      46.930   9.100  12.492  0.00  0.00    +0.000 A 
ATOM     19  C   UNL     1      45.589   9.088  12.114  0.00  0.00    +0.000 A 
ATOM     20  C   UNL     1      45.017   7.926  11.595  0.00  0.00    +0.000 A 
ATOM     21  C   UNL     1      45.779   6.757  11.440  0.00  0.00    +0.000 A 
ATOM     22  C   UNL     1      47.124   6.798  11.860  0.00  0.00    +0.000 A 
BRANCH  21  23
ATOM     23  C   UNL     1      45.261   5.560  10.745  0.00  0.00    +0.000 A 
ATOM     24  C   UNL     1      45.680   5.248   9.441  0.00  0.00    +0.000 A 
ATOM     25  C   UNL     1      45.343   4.030   8.848  0.00  0.00    +0.000 A 
ATOM     26 CL   UNL     1      45.917   3.667   7.269  0.00  0.00    +0.000 Cl
ATOM     27  C   UNL     1      44.573   3.094   9.533  0.00  0.00    +0.000 A 
ATOM     28  C   UNL     1      44.119   3.402  10.809  0.00  0.00    +0.000 A 
ATOM     29 CL   UNL     1      43.203   2.242  11.690  0.00  0.00    +0.000 Cl
ATOM     30  C   UNL     1      44.438   4.625  11.404  0.00  0.00    +0.000 A 
ENDBRANCH  21  23
ENDBRANCH   1  17
TORSDOF 4
ENDMDL
MODEL 4
REMARK VINA RESULT:    -7.129      4.674      7.696
REMARK INTER + INTRA:          -9.941
REMARK INTER:                  -9.950
REMARK INTRA:                   0.008
REMARK UNBOUND:                -1.145
REMARK  Name = 
REMARK  4 active torsions:
REMARK  status: ('A' for Active; 'I' for Inactive)
REMARK    1  A    between atoms: C_2  and  C_4
REMARK    2  A    between atoms: N_8  and  C_9
REMARK    3  A    between atoms: C_9  and  C_10
REMARK    4  A    between atoms: C_14  and  C_15
REMARK                            x       y       z     vdW  Elec       q    Type
REMARK                         _______ _______ _______ _____ _____    ______ ____
ROOT
ATOM      1  C   UNL     1      48.809   8.014  12.907  0.00  0.00    +0.000 C 
ATOM      2  C   UNL     1      49.839   7.341  12.014  0.00  0.00    +0.000 C 
ATOM      3  C   UNL     1      49.816   8.828  12.111  0.00  0.00    +0.000 C 
ENDROOT
BRANCH   1   8
ATOM      4  C   UNL     1      48.050   4.441  16.625  0.00  0.00    +0.000 A 
ATOM      5  C   UNL     1      47.280   4.701  15.493  0.00  0.00    +0.000 A 
ATOM      6  C   UNL     1      47.602   5.792  14.681  0.00  0.00    +0.000 A 
ATOM      7  C   UNL     1      48.674   6.610  15.019  0.00  0.00    +0.000 A 
ATOM      8  N   UNL     1      48.971   7.804  14.355  0.00  0.00    +0.000 N 
ATOM      9  N   UNL     1      49.439   6.355  16.103  0.00  0.00    +0.000 NA
ATOM     10  C   UNL     1      49.115   5.290  16.881  0.00  0.00    +0.000 A 
ATOM     11  H   UNL     1      49.842   8.133  14.766  0.00  0.00    +0.000 HD
BRANCH   4  13
ATOM     12  N   UNL     1      48.656   3.103  18.567  0.00  0.00    +0.000 N 
ATOM     13  C   UNL     1      47.742   3.359  17.585  0.00  0.00    +0.000 C 
ATOM     14  O   UNL     1      46.694   2.728  17.518  0.00  0.00    +0.000 OA
ATOM     15  H   UNL     1      48.398   2.405  19.251  0.00  0.00    +0.000 HD
ATOM     16  H   UNL     1      49.402   3.740  18.804  0.00  0.00    +0.000 HD
ENDBRANCH   4  13
ENDBRANCH   1   8
BRANCH   1  17
ATOM     17  C   UNL     1      47.358   7.947  12.447  0.00  0.00    +0.000 A 
ATOM     18  C   UNL     1      46.544   9.091  12.428  0.00  0.00    +0.000 A 
ATOM     19  C   UNL     1      45.247   9.049  11.917  0.00  0.00    +0.000 A 
ATOM     20  C   UNL     1      44.736   7.859  11.399  0.00  0.00    +0.000 A 
ATOM     21  C   UNL     1      45.515   6.691  11.377  0.00  0.00    +0.000 A 
ATOM     22  C   UNL     1      46.811   6.764  11.928  0.00  0.00    +0.000 A 
BRANCH  21  23
ATOM     23  C   UNL     1      45.075   5.458  10.692  0.00  0.00    +0.000 A 
ATOM     24  C   UNL     1      45.527   5.155   9.397  0.00  0.00    +0.000 A 
ATOM     25  C   UNL     1      45.268   3.913   8.815  0.00  0.00    +0.000 A 
ATOM     26 CL   UNL     1      45.882   3.564   7.248  0.00  0.00    +0.000 Cl
ATOM     27  C   UNL     1      44.545   2.943   9.503  0.00  0.00    +0.000 A 
ATOM     28  C   UNL     1      44.058   3.239  10.769  0.00  0.00    +0.000 A 
ATOM     29 CL   UNL     1      43.198   2.039  11.653  0.00  0.00    +0.000 Cl
ATOM     30  C   UNL     1      44.299   4.485  11.353  0.00  0.00    +0.000 A 
ENDBRANCH  21  23
ENDBRANCH   1  17
TORSDOF 4
ENDMDL
MODEL 5
REMARK VINA RESULT:    -6.611      4.536      7.050
REMARK INTER + INTRA:          -9.302
REMARK INTER:                  -8.341
REMARK INTRA:                  -0.960
REMARK UNBOUND:                -1.145
REMARK  Name = 
REMARK  4 active torsions:
REMARK  status: ('A' for Active; 'I' for Inactive)
REMARK    1  A    between atoms: C_2  and  C_4
REMARK    2  A    between atoms: N_8  and  C_9
REMARK    3  A    between atoms: C_9  and  C_10
REMARK    4  A    between atoms: C_14  and  C_15
REMARK                            x       y       z     vdW  Elec       q    Type
REMARK                         _______ _______ _______ _____ _____    ______ ____
ROOT
ATOM      1  C   UNL     1      48.934   8.421  12.673  0.00  0.00    +0.000 C 
ATOM      2  C   UNL     1      49.808   9.452  11.977  0.00  0.00    +0.000 C 
ATOM      3  C   UNL     1      50.142   8.005  11.852  0.00  0.00    +0.000 C 
ENDROOT
BRANCH   1   8
ATOM      4  C   UNL     1      44.827   5.215  12.830  0.00  0.00    +0.000 A 
ATOM      5  C   UNL     1      46.184   4.898  12.848  0.00  0.00    +0.000 A 
ATOM      6  C   UNL     1      47.128   5.915  12.678  0.00  0.00    +0.000 A 
ATOM      7  C   UNL     1      46.702   7.223  12.479  0.00  0.00    +0.000 A 
ATOM      8  N   UNL     1      47.566   8.272  12.149  0.00  0.00    +0.000 N 
ATOM      9  N   UNL     1      45.390   7.544  12.480  0.00  0.00    +0.000 NA
ATOM     10  C   UNL     1      44.485   6.545  12.648  0.00  0.00    +0.000 A 
ATOM     11  H   UNL     1      46.987   9.109  12.149  0.00  0.00    +0.000 HD
BRANCH   4  13
ATOM     12  N   UNL     1      44.069   2.913  12.590  0.00  0.00    +0.000 N 
ATOM     13  C   UNL     1      43.756   4.200  12.923  0.00  0.00    +0.000 C 
ATOM     14  O   UNL     1      42.630   4.497  13.306  0.00  0.00    +0.000 OA
ATOM     15  H   UNL     1      43.341   2.224  12.721  0.00  0.00    +0.000 HD
ATOM     16  H   UNL     1      45.019   2.584  12.503  0.00  0.00    +0.000 HD
ENDBRANCH   4  13
ENDBRANCH   1   8
BRANCH   1  17
ATOM     17  C   UNL     1      49.004   8.382  14.195  0.00  0.00    +0.000 A 
ATOM     18  C   UNL     1      48.660   9.500  14.971  0.00  0.00    +0.000 A 
ATOM     19  C   UNL     1      48.633   9.435  16.363  0.00  0.00    +0.000 A 
ATOM     20  C   UNL     1      48.938   8.240  17.015  0.00  0.00    +0.000 A 
ATOM     21  C   UNL     1      49.271   7.088  16.286  0.00  0.00    +0.000 A 
ATOM     22  C   UNL     1      49.317   7.199  14.881  0.00  0.00    +0.000 A 
BRANCH  21  23
ATOM     23  C   UNL     1      49.440   5.766  16.926  0.00  0.00    +0.000 A 
ATOM     24  C   UNL     1      48.336   4.921  17.132  0.00  0.00    +0.000 A 
ATOM     25  C   UNL     1      48.507   3.605  17.563  0.00  0.00    +0.000 A 
ATOM     26 CL   UNL     1      47.134   2.589  17.754  0.00  0.00    +0.000 Cl
ATOM     27  C   UNL     1      49.779   3.097  17.809  0.00  0.00    +0.000 A 
ATOM     28  C   UNL     1      50.879   3.930  17.648  0.00  0.00    +0.000 A 
ATOM     29 CL   UNL     1      52.463   3.310  17.905  0.00  0.00    +0.000 Cl
ATOM     30  C   UNL     1      50.716   5.254  17.231  0.00  0.00    +0.000 A 
ENDBRANCH  21  23
ENDBRANCH   1  17
TORSDOF 4
ENDMDL
MODEL 6
REMARK VINA RESULT:    -6.413      4.183      6.382
REMARK INTER + INTRA:          -9.057
REMARK INTER:                  -8.808
REMARK INTRA:                  -0.249
REMARK UNBOUND:                -1.145
REMARK  Name = 
REMARK  4 active torsions:
REMARK  status: ('A' for Active; 'I' for Inactive)
REMARK    1  A    between atoms: C_2  and  C_4
REMARK    2  A    between atoms: N_8  and  C_9
REMARK    3  A    between atoms: C_9  and  C_10
REMARK    4  A    between atoms: C_14  and  C_15
REMARK                            x       y       z     vdW  Elec       q    Type
REMARK                         _______ _______ _______ _____ _____    ______ ____
ROOT
ATOM      1  C   UNL     1      47.402   8.477  13.116  0.00  0.00    +0.000 C 
ATOM      2  C   UNL     1      47.438   9.786  12.343  0.00  0.00    +0.000 C 
ATOM      3  C   UNL     1      48.107   8.582  11.774  0.00  0.00    +0.000 C 
ENDROOT
BRANCH   1   8
ATOM      4  C   UNL     1      44.748   4.276  11.543  0.00  0.00    +0.000 A 
ATOM      5  C   UNL     1      45.700   5.019  10.847  0.00  0.00    +0.000 A 
ATOM      6  C   UNL     1      46.208   6.189  11.419  0.00  0.00    +0.000 A 
ATOM      7  C   UNL     1      45.747   6.604  12.663  0.00  0.00    +0.000 A 
ATOM      8  N   UNL     1      46.083   7.833  13.238  0.00  0.00    +0.000 N 
ATOM      9  N   UNL     1      44.839   5.881  13.355  0.00  0.00    +0.000 NA
ATOM     10  C   UNL     1      44.357   4.745  12.787  0.00  0.00    +0.000 A 
ATOM     11  H   UNL     1      45.670   7.820  14.168  0.00  0.00    +0.000 HD
BRANCH   4  13
ATOM     12  N   UNL     1      44.742   2.403   9.987  0.00  0.00    +0.000 N 
ATOM     13  C   UNL     1      44.096   3.070  10.989  0.00  0.00    +0.000 C 
ATOM     14  O   UNL     1      43.025   2.667  11.426  0.00  0.00    +0.000 OA
ATOM     15  H   UNL     1      44.312   1.546   9.666  0.00  0.00    +0.000 HD
ATOM     16  H   UNL     1      45.715   2.553   9.764  0.00  0.00    +0.000 HD
ENDBRANCH   4  13
ENDBRANCH   1   8
BRANCH   1  17
ATOM     17  C   UNL     1      48.222   8.420  14.399  0.00  0.00    +0.000 A 
ATOM     18  C   UNL     1      48.571   9.588  15.096  0.00  0.00    +0.000 A 
ATOM     19  C   UNL     1      49.238   9.530  16.319  0.00  0.00    +0.000 A 
ATOM     20  C   UNL     1      49.562   8.296  16.882  0.00  0.00    +0.000 A 
ATOM     21  C   UNL     1      49.220   7.098  16.236  0.00  0.00    +0.000 A 
ATOM     22  C   UNL     1      48.572   7.195  14.988  0.00  0.00    +0.000 A 
BRANCH  21  23
ATOM     23  C   UNL     1      49.396   5.775  16.872  0.00  0.00    +0.000 A 
ATOM     24  C   UNL     1      48.300   4.917  17.062  0.00  0.00    +0.000 A 
ATOM     25  C   UNL     1      48.481   3.601  17.490  0.00  0.00    +0.000 A 
ATOM     26 CL   UNL     1      47.118   2.569  17.662  0.00  0.00    +0.000 Cl
ATOM     27  C   UNL     1      49.756   3.106  17.748  0.00  0.00    +0.000 A 
ATOM     28  C   UNL     1      50.848   3.952  17.602  0.00  0.00    +0.000 A 
ATOM     29 CL   UNL     1      52.436   3.348  17.874  0.00  0.00    +0.000 Cl
ATOM     30  C   UNL     1      50.675   5.276  17.189  0.00  0.00    +0.000 A 
ENDBRANCH  21  23
ENDBRANCH   1  17
TORSDOF 4
ENDMDL
MODEL 7
REMARK VINA RESULT:    -6.375      3.613      5.580
REMARK INTER + INTRA:          -9.011
REMARK INTER:                  -8.116
REMARK INTRA:                  -0.895
REMARK UNBOUND:                -1.145
REMARK  Name = 
REMARK  4 active torsions:
REMARK  status: ('A' for Active; 'I' for Inactive)
REMARK    1  A    between atoms: C_2  and  C_4
REMARK    2  A    between atoms: N_8  and  C_9
REMARK    3  A    between atoms: C_9  and  C_10
REMARK    4  A    between atoms: C_14  and  C_15
REMARK                            x       y       z     vdW  Elec       q    Type
REMARK                         _______ _______ _______ _____ _____    ______ ____
ROOT
ATOM      1  C   UNL     1      45.968   8.995  12.195  0.00  0.00    +0.000 C 
ATOM      2  C   UNL     1      45.697  10.473  12.431  0.00  0.00    +0.000 C 
ATOM      3  C   UNL     1      45.764   9.955  11.035  0.00  0.00    +0.000 C 
ENDROOT
BRANCH   1   8
ATOM      4  C   UNL     1      44.240   4.142  11.403  0.00  0.00    +0.000 A 
ATOM      5  C   UNL     1      44.824   5.021  10.493  0.00  0.00    +0.000 A 
ATOM      6  C   UNL     1      45.111   6.330  10.891  0.00  0.00    +0.000 A 
ATOM      7  C   UNL     1      44.797   6.741  12.181  0.00  0.00    +0.000 A 
ATOM      8  N   UNL     1      44.906   8.066  12.614  0.00  0.00    +0.000 N 
ATOM      9  N   UNL     1      44.249   5.892  13.077  0.00  0.00    +0.000 NA
ATOM     10  C   UNL     1      43.978   4.623  12.676  0.00  0.00    +0.000 A 
ATOM     11  H   UNL     1      44.689   8.045  13.608  0.00  0.00    +0.000 HD
BRANCH   4  13
ATOM     12  N   UNL     1      44.456   2.165   9.999  0.00  0.00    +0.000 N 
ATOM     13  C   UNL     1      43.830   2.765  11.053  0.00  0.00    +0.000 C 
ATOM     14  O   UNL     1      42.973   2.173  11.699  0.00  0.00    +0.000 OA
ATOM     15  H   UNL     1      44.208   1.202   9.816  0.00  0.00    +0.000 HD
ATOM     16  H   UNL     1      45.315   2.512   9.599  0.00  0.00    +0.000 HD
ENDBRANCH   4  13
ENDBRANCH   1   8
BRANCH   1  17
ATOM     17  C   UNL     1      47.370   8.497  12.527  0.00  0.00    +0.000 A 
ATOM     18  C   UNL     1      48.489   8.920  11.792  0.00  0.00    +0.000 A 
ATOM     19  C   UNL     1      49.780   8.540  12.155  0.00  0.00    +0.000 A 
ATOM     20  C   UNL     1      49.985   7.734  13.275  0.00  0.00    +0.000 A 
ATOM     21  C   UNL     1      48.902   7.299  14.055  0.00  0.00    +0.000 A 
ATOM     22  C   UNL     1      47.609   7.679  13.641  0.00  0.00    +0.000 A 
BRANCH  21  23
ATOM     23  C   UNL     1      49.085   6.585  15.336  0.00  0.00    +0.000 A 
ATOM     24  C   UNL     1      48.144   5.636  15.771  0.00  0.00    +0.000 A 
ATOM     25  C   UNL     1      48.396   4.827  16.880  0.00  0.00    +0.000 A 
ATOM     26 CL   UNL     1      47.240   3.645  17.349  0.00  0.00    +0.000 Cl
ATOM     27  C   UNL     1      49.587   4.946  17.591  0.00  0.00    +0.000 A 
ATOM     28  C   UNL     1      50.512   5.905  17.198  0.00  0.00    +0.000 A 
ATOM     29 CL   UNL     1      52.008   6.039  18.036  0.00  0.00    +0.000 Cl
ATOM     30  C   UNL     1      50.261   6.730  16.098  0.00  0.00    +0.000 A 
ENDBRANCH  21  23
ENDBRANCH   1  17
TORSDOF 4
ENDMDL
