MODEL 1
REMARK VINA RESULT:    -9.172      0.000      0.000
REMARK INTER + INTRA:         -12.103
REMARK INTER:                 -11.317
REMARK INTRA:                  -0.786
REMARK UNBOUND:                -0.786
REMARK  Name = 
REMARK  4 active torsions:
REMARK  status: ('A' for Active; 'I' for Inactive)
REMARK    1  A    between atoms: C_2  and  C_4
REMARK    2  A    between atoms: N_8  and  C_9
REMARK    3  A    between atoms: C_9  and  C_10
REMARK    4  A    between atoms: C_14  and  C_15
REMARK                            x       y       z     vdW  Elec       q    Type
REMARK                         _______ _______ _______ _____ _____    ______ ____
ROOT
ATOM      1  C   UNL     1      43.403   4.873  11.023  0.00  0.00    +0.000 C 
ENDROOT
BRANCH   1   6
ATOM      2  C   UNL     1      46.360   2.259   7.714  0.00  0.00    +0.000 A 
ATOM      3  C   UNL     1      45.631   1.782   8.798  0.00  0.00    +0.000 A 
ATOM      4  C   UNL     1      44.773   2.651   9.480  0.00  0.00    +0.000 A 
ATOM      5  C   UNL     1      44.668   3.979   9.077  0.00  0.00    +0.000 A 
ATOM      6  N   UNL     1      43.787   4.883   9.620  0.00  0.00    +0.000 N 
ATOM      7  N   UNL     1      45.377   4.451   8.032  0.00  0.00    +0.000 NA
ATOM      8  C   UNL     1      46.210   3.595   7.381  0.00  0.00    +0.000 A 
ATOM      9  H   UNL     1      43.989   5.793   9.220  0.00  0.00    +0.000 HD
BRANCH   2  11
ATOM     10  N   UNL     1      48.396   2.032   6.403  0.00  0.00    +0.000 N 
ATOM     11  C   UNL     1      47.288   1.423   6.924  0.00  0.00    +0.000 C 
ATOM     12  O   UNL     1      47.095   0.226   6.769  0.00  0.00    +0.000 OA
ATOM     13  H   UNL     1      49.071   1.424   5.953  0.00  0.00    +0.000 HD
ATOM     14  H   UNL     1      48.721   2.936   6.715  0.00  0.00    +0.000 HD
ENDBRANCH   2  11
ENDBRANCH   1   6
BRANCH   1  15
ATOM     15  C   UNL     1      44.535   5.191  11.983  0.00  0.00    +0.000 A 
ATOM     16  C   UNL     1      44.926   4.266  12.946  0.00  0.00    +0.000 A 
ATOM     17  C   UNL     1      46.028   4.552  13.742  0.00  0.00    +0.000 A 
ATOM     18  C   UNL     1      46.721   5.743  13.547  0.00  0.00    +0.000 A 
ATOM     19  C   UNL     1      46.296   6.625  12.555  0.00  0.00    +0.000 A 
ATOM     20  N   UNL     1      45.206   6.359  11.787  0.00  0.00    +0.000 NA
BRANCH  19  21
ATOM     21  C   UNL     1      47.011   7.879  12.237  0.00  0.00    +0.000 A 
ATOM     22  C   UNL     1      48.377   7.865  11.892  0.00  0.00    +0.000 A 
ATOM     23  C   UNL     1      49.077   9.045  11.608  0.00  0.00    +0.000 A 
ATOM     24  C   UNL     1      48.422  10.270  11.669  0.00  0.00    +0.000 A 
ATOM     25  C   UNL     1      47.077  10.303  12.009  0.00  0.00    +0.000 A 
ATOM     26  F   UNL     1      46.443  11.481  12.078  0.00  0.00    +0.000 F 
ATOM     27  C   UNL     1      46.375   9.132  12.291  0.00  0.00    +0.000 A 
ENDBRANCH  19  21
ENDBRANCH   1  15
TORSDOF 4
ENDMDL
MODEL 2
REMARK VINA RESULT:    -8.586      1.393      1.735
REMARK INTER + INTRA:         -11.381
REMARK INTER:                 -10.623
REMARK INTRA:                  -0.758
REMARK UNBOUND:                -0.786
REMARK  Name = 
REMARK  4 active torsions:
REMARK  status: ('A' for Active; 'I' for Inactive)
REMARK    1  A    between atoms: C_2  and  C_4
REMARK    2  A    between atoms: N_8  and  C_9
REMARK    3  A    between atoms: C_9  and  C_10
REMARK    4  A    between atoms: C_14  and  C_15
REMARK                            x       y       z     vdW  Elec       q    Type
REMARK                         _______ _______ _______ _____ _____    ______ ____
ROOT
ATOM      1  C   UNL     1      44.109   4.915  11.423  0.00  0.00    +0.000 C 
ENDROOT
BRANCH   1   6
ATOM      2  C   UNL     1      46.478   2.514   7.530  0.00  0.00    +0.000 A 
ATOM      3  C   UNL     1      45.767   1.964   8.592  0.00  0.00    +0.000 A 
ATOM      4  C   UNL     1      45.076   2.813   9.463  0.00  0.00    +0.000 A 
ATOM      5  C   UNL     1      45.116   4.189   9.267  0.00  0.00    +0.000 A 
ATOM      6  N   UNL     1      44.396   5.096  10.009  0.00  0.00    +0.000 N 
ATOM      7  N   UNL     1      45.809   4.731   8.245  0.00  0.00    +0.000 NA
ATOM      8  C   UNL     1      46.479   3.894   7.409  0.00  0.00    +0.000 A 
ATOM      9  H   UNL     1      44.687   6.027   9.728  0.00  0.00    +0.000 HD
BRANCH   2  11
ATOM     10  N   UNL     1      48.025   2.377   5.658  0.00  0.00    +0.000 N 
ATOM     11  C   UNL     1      47.235   1.707   6.551  0.00  0.00    +0.000 C 
ATOM     12  O   UNL     1      47.190   0.485   6.559  0.00  0.00    +0.000 OA
ATOM     13  H   UNL     1      48.614   1.806   5.064  0.00  0.00    +0.000 HD
ATOM     14  H   UNL     1      48.288   3.345   5.780  0.00  0.00    +0.000 HD
ENDBRANCH   2  11
ENDBRANCH   1   6
BRANCH   1  15
ATOM     15  C   UNL     1      45.273   5.233  12.343  0.00  0.00    +0.000 A 
ATOM     16  C   UNL     1      45.585   4.389  13.404  0.00  0.00    +0.000 A 
ATOM     17  C   UNL     1      46.716   4.659  14.165  0.00  0.00    +0.000 A 
ATOM     18  C   UNL     1      47.513   5.752  13.839  0.00  0.00    +0.000 A 
ATOM     19  C   UNL     1      47.163   6.553  12.754  0.00  0.00    +0.000 A 
ATOM     20  N   UNL     1      46.047   6.304  12.018  0.00  0.00    +0.000 NA
BRANCH  19  21
ATOM     21  C   UNL     1      47.987   7.693  12.299  0.00  0.00    +0.000 A 
ATOM     22  C   UNL     1      47.434   8.984  12.182  0.00  0.00    +0.000 A 
ATOM     23  C   UNL     1      48.192  10.072  11.732  0.00  0.00    +0.000 A 
ATOM     24  C   UNL     1      49.526   9.889  11.384  0.00  0.00    +0.000 A 
ATOM     25  C   UNL     1      50.087   8.625  11.491  0.00  0.00    +0.000 A 
ATOM     26  F   UNL     1      51.369   8.441  11.149  0.00  0.00    +0.000 F 
ATOM     27  C   UNL     1      49.338   7.538  11.939  0.00  0.00    +0.000 A 
ENDBRANCH  19  21
ENDBRANCH   1  15
TORSDOF 4
ENDMDL
MODEL 3
REMARK VINA RESULT:    -7.958      2.465      3.881
REMARK INTER + INTRA:         -10.605
REMARK INTER:                  -9.948
REMARK INTRA:                  -0.657
REMARK UNBOUND:                -0.786
REMARK  Name = 
REMARK  4 active torsions:
REMARK  status: ('A' for Active; 'I' for Inactive)
REMARK    1  A    between atoms: C_2  and  C_4
REMARK    2  A    between atoms: N_8  and  C_9
REMARK    3  A    between atoms: C_9  and  C_10
REMARK    4  A    between atoms: C_14  and  C_15
REMARK                            x       y       z     vdW  Elec       q    Type
REMARK                         _______ _______ _______ _____ _____    ______ ____
ROOT
ATOM      1  C   UNL     1      44.301   5.158  11.305  0.00  0.00    +0.000 C 
ENDROOT
BRANCH   1   6
ATOM      2  C   UNL     1      46.480   2.334   7.589  0.00  0.00    +0.000 A 
ATOM      3  C   UNL     1      45.954   1.917   8.808  0.00  0.00    +0.000 A 
ATOM      4  C   UNL     1      45.273   2.839   9.609  0.00  0.00    +0.000 A 
ATOM      5  C   UNL     1      45.140   4.158   9.187  0.00  0.00    +0.000 A 
ATOM      6  N   UNL     1      44.411   5.113   9.856  0.00  0.00    +0.000 N 
ATOM      7  N   UNL     1      45.653   4.572   8.011  0.00  0.00    +0.000 NA
ATOM      8  C   UNL     1      46.316   3.665   7.244  0.00  0.00    +0.000 A 
ATOM      9  H   UNL     1      44.564   6.002   9.392  0.00  0.00    +0.000 HD
BRANCH   2  11
ATOM     10  N   UNL     1      48.202   1.992   5.906  0.00  0.00    +0.000 N 
ATOM     11  C   UNL     1      47.210   1.439   6.667  0.00  0.00    +0.000 C 
ATOM     12  O   UNL     1      46.965   0.242   6.610  0.00  0.00    +0.000 OA
ATOM     13  H   UNL     1      48.759   1.347   5.358  0.00  0.00    +0.000 HD
ATOM     14  H   UNL     1      48.603   2.898   6.104  0.00  0.00    +0.000 HD
ENDBRANCH   2  11
ENDBRANCH   1   6
BRANCH   1  15
ATOM     15  C   UNL     1      45.420   5.919  11.993  0.00  0.00    +0.000 A 
ATOM     16  C   UNL     1      45.718   7.226  11.620  0.00  0.00    +0.000 A 
ATOM     17  C   UNL     1      46.683   7.924  12.336  0.00  0.00    +0.000 A 
ATOM     18  C   UNL     1      47.312   7.307  13.413  0.00  0.00    +0.000 A 
ATOM     19  C   UNL     1      46.961   6.002  13.753  0.00  0.00    +0.000 A 
ATOM     20  N   UNL     1      46.032   5.308  13.043  0.00  0.00    +0.000 NA
BRANCH  19  21
ATOM     21  C   UNL     1      47.532   5.296  14.920  0.00  0.00    +0.000 A 
ATOM     22  C   UNL     1      47.186   3.957  15.195  0.00  0.00    +0.000 A 
ATOM     23  C   UNL     1      47.699   3.278  16.307  0.00  0.00    +0.000 A 
ATOM     24  C   UNL     1      48.571   3.928  17.174  0.00  0.00    +0.000 A 
ATOM     25  C   UNL     1      48.921   5.246  16.919  0.00  0.00    +0.000 A 
ATOM     26  F   UNL     1      49.753   5.881  17.756  0.00  0.00    +0.000 F 
ATOM     27  C   UNL     1      48.415   5.927  15.814  0.00  0.00    +0.000 A 
ENDBRANCH  19  21
ENDBRANCH   1  15
TORSDOF 4
ENDMDL
MODEL 4
REMARK VINA RESULT:    -7.900      4.966      8.002
REMARK INTER + INTRA:         -10.533
REMARK INTER:                 -10.048
REMARK INTRA:                  -0.486
REMARK UNBOUND:                -0.786
REMARK  Name = 
REMARK  4 active torsions:
REMARK  status: ('A' for Active; 'I' for Inactive)
REMARK    1  A    between atoms: C_2  and  C_4
REMARK    2  A    between atoms: N_8  and  C_9
REMARK    3  A    between atoms: C_9  and  C_10
REMARK    4  A    between atoms: C_14  and  C_15
REMARK                            x       y       z     vdW  Elec       q    Type
REMARK                         _______ _______ _______ _____ _____    ______ ____
ROOT
ATOM      1  C   UNL     1      46.012   5.277  13.663  0.00  0.00    +0.000 C 
ENDROOT
BRANCH   1   6
ATOM      2  C   UNL     1      49.412   3.782  17.232  0.00  0.00    +0.000 A 
ATOM      3  C   UNL     1      48.912   5.056  16.981  0.00  0.00    +0.000 A 
ATOM      4  C   UNL     1      47.879   5.213  16.052  0.00  0.00    +0.000 A 
ATOM      5  C   UNL     1      47.373   4.103  15.384  0.00  0.00    +0.000 A 
ATOM      6  N   UNL     1      46.299   4.142  14.526  0.00  0.00    +0.000 N 
ATOM      7  N   UNL     1      47.856   2.866  15.615  0.00  0.00    +0.000 NA
ATOM      8  C   UNL     1      48.864   2.729  16.518  0.00  0.00    +0.000 A 
ATOM      9  H   UNL     1      46.207   3.225  14.103  0.00  0.00    +0.000 HD
BRANCH   2  11
ATOM     10  N   UNL     1      51.170   2.324  18.068  0.00  0.00    +0.000 N 
ATOM     11  C   UNL     1      50.497   3.507  18.197  0.00  0.00    +0.000 C 
ATOM     12  O   UNL     1      50.808   4.318  19.057  0.00  0.00    +0.000 OA
ATOM     13  H   UNL     1      51.975   2.198  18.670  0.00  0.00    +0.000 HD
ATOM     14  H   UNL     1      51.121   1.755  17.234  0.00  0.00    +0.000 HD
ENDBRANCH   2  11
ENDBRANCH   1   6
BRANCH   1  15
ATOM     15  C   UNL     1      45.054   4.970  12.526  0.00  0.00    +0.000 A 
ATOM     16  C   UNL     1      43.742   5.433  12.564  0.00  0.00    +0.000 A 
ATOM     17  C   UNL     1      42.923   5.216  11.462  0.00  0.00    +0.000 A 
ATOM     18  C   UNL     1      43.437   4.559  10.349  0.00  0.00    +0.000 A 
ATOM     19  C   UNL     1      44.764   4.133  10.359  0.00  0.00    +0.000 A 
ATOM     20  N   UNL     1      45.563   4.325  11.442  0.00  0.00    +0.000 NA
BRANCH  19  21
ATOM     21  C   UNL     1      45.408   3.486   9.196  0.00  0.00    +0.000 A 
ATOM     22  C   UNL     1      45.834   4.248   8.089  0.00  0.00    +0.000 A 
ATOM     23  C   UNL     1      46.427   3.652   6.969  0.00  0.00    +0.000 A 
ATOM     24  C   UNL     1      46.603   2.273   6.931  0.00  0.00    +0.000 A 
ATOM     25  C   UNL     1      46.188   1.507   8.011  0.00  0.00    +0.000 A 
ATOM     26  F   UNL     1      46.347   0.177   7.976  0.00  0.00    +0.000 F 
ATOM     27  C   UNL     1      45.599   2.095   9.129  0.00  0.00    +0.000 A 
ENDBRANCH  19  21
ENDBRANCH   1  15
TORSDOF 4
ENDMDL
MODEL 5
REMARK VINA RESULT:    -7.831      4.067      7.433
REMARK INTER + INTRA:         -10.448
REMARK INTER:                 -10.358
REMARK INTRA:                  -0.089
REMARK UNBOUND:                -0.786
REMARK  Name = 
REMARK  4 active torsions:
REMARK  status: ('A' for Active; 'I' for Inactive)
REMARK    1  A    between atoms: C_2  and  C_4
REMARK    2  A    between atoms: N_8  and  C_9
REMARK    3  A    between atoms: C_9  and  C_10
REMARK    4  A    between atoms: C_14  and  C_15
REMARK                            x       y       z     vdW  Elec       q    Type
REMARK                         _______ _______ _______ _____ _____    ______ ____
ROOT
ATOM      1  C   UNL     1      45.363   7.023  11.444  0.00  0.00    +0.000 C 
ENDROOT
BRANCH   1   6
ATOM      2  C   UNL     1      47.762   5.046  15.551  0.00  0.00    +0.000 A 
ATOM      3  C   UNL     1      46.753   4.485  14.775  0.00  0.00    +0.000 A 
ATOM      4  C   UNL     1      46.345   5.139  13.609  0.00  0.00    +0.000 A 
ATOM      5  C   UNL     1      46.939   6.343  13.245  0.00  0.00    +0.000 A 
ATOM      6  N   UNL     1      46.674   7.012  12.074  0.00  0.00    +0.000 N 
ATOM      7  N   UNL     1      47.912   6.898  13.996  0.00  0.00    +0.000 NA
ATOM      8  C   UNL     1      48.296   6.252  15.129  0.00  0.00    +0.000 A 
ATOM      9  H   UNL     1      47.159   7.902  12.108  0.00  0.00    +0.000 HD
BRANCH   2  11
ATOM     10  N   UNL     1      47.369   4.203  17.798  0.00  0.00    +0.000 N 
ATOM     11  C   UNL     1      48.270   4.433  16.796  0.00  0.00    +0.000 C 
ATOM     12  O   UNL     1      49.443   4.108  16.917  0.00  0.00    +0.000 OA
ATOM     13  H   UNL     1      47.713   3.690  18.602  0.00  0.00    +0.000 HD
ATOM     14  H   UNL     1      46.370   4.215  17.649  0.00  0.00    +0.000 HD
ENDBRANCH   2  11
ENDBRANCH   1   6
BRANCH   1  15
ATOM     15  C   UNL     1      44.825   5.646  11.100  0.00  0.00    +0.000 A 
ATOM     16  C   UNL     1      43.649   5.182  11.682  0.00  0.00    +0.000 A 
ATOM     17  C   UNL     1      43.135   3.958  11.270  0.00  0.00    +0.000 A 
ATOM     18  C   UNL     1      43.796   3.239  10.280  0.00  0.00    +0.000 A 
ATOM     19  C   UNL     1      44.960   3.761   9.718  0.00  0.00    +0.000 A 
ATOM     20  N   UNL     1      45.478   4.948  10.132  0.00  0.00    +0.000 NA
BRANCH  19  21
ATOM     21  C   UNL     1      45.689   3.095   8.618  0.00  0.00    +0.000 A 
ATOM     22  C   UNL     1      46.147   3.830   7.505  0.00  0.00    +0.000 A 
ATOM     23  C   UNL     1      46.820   3.215   6.442  0.00  0.00    +0.000 A 
ATOM     24  C   UNL     1      47.047   1.843   6.468  0.00  0.00    +0.000 A 
ATOM     25  C   UNL     1      46.602   1.104   7.555  0.00  0.00    +0.000 A 
ATOM     26  F   UNL     1      46.809  -0.220   7.581  0.00  0.00    +0.000 F 
ATOM     27  C   UNL     1      45.933   1.710   8.616  0.00  0.00    +0.000 A 
ENDBRANCH  19  21
ENDBRANCH   1  15
TORSDOF 4
ENDMDL
MODEL 6
REMARK VINA RESULT:    -7.827      3.883      7.168
REMARK INTER + INTRA:         -10.444
REMARK INTER:                 -10.009
REMARK INTRA:                  -0.435
REMARK UNBOUND:                -0.786
REMARK  Name = 
REMARK  4 active torsions:
REMARK  status: ('A' for Active; 'I' for Inactive)
REMARK    1  A    between atoms: C_2  and  C_4
REMARK    2  A    between atoms: N_8  and  C_9
REMARK    3  A    between atoms: C_9  and  C_10
REMARK    4  A    between atoms: C_14  and  C_15
REMARK                            x       y       z     vdW  Elec       q    Type
REMARK                         _______ _______ _______ _____ _____    ______ ____
ROOT
ATOM      1  C   UNL     1      43.942   6.600  11.375  0.00  0.00    +0.000 C 
ENDROOT
BRANCH   1   6
ATOM      2  C   UNL     1      48.501   7.206  13.693  0.00  0.00    +0.000 A 
ATOM      3  C   UNL     1      47.686   6.080  13.652  0.00  0.00    +0.000 A 
ATOM      4  C   UNL     1      46.550   6.089  12.836  0.00  0.00    +0.000 A 
ATOM      5  C   UNL     1      46.242   7.221  12.088  0.00  0.00    +0.000 A 
ATOM      6  N   UNL     1      45.206   7.294  11.189  0.00  0.00    +0.000 N 
ATOM      7  N   UNL     1      47.024   8.320  12.129  0.00  0.00    +0.000 NA
ATOM      8  C   UNL     1      48.122   8.298  12.929  0.00  0.00    +0.000 A 
ATOM      9  H   UNL     1      45.144   8.253  10.863  0.00  0.00    +0.000 HD
BRANCH   2  11
ATOM     10  N   UNL     1      50.622   8.282  14.206  0.00  0.00    +0.000 N 
ATOM     11  C   UNL     1      49.725   7.297  14.517  0.00  0.00    +0.000 C 
ATOM     12  O   UNL     1      49.917   6.546  15.462  0.00  0.00    +0.000 OA
ATOM     13  H   UNL     1      51.402   8.394  14.843  0.00  0.00    +0.000 HD
ATOM     14  H   UNL     1      50.388   9.067  13.615  0.00  0.00    +0.000 HD
ENDBRANCH   2  11
ENDBRANCH   1   6
BRANCH   1  15
ATOM     15  C   UNL     1      44.019   5.097  11.176  0.00  0.00    +0.000 A 
ATOM     16  C   UNL     1      43.252   4.241  11.960  0.00  0.00    +0.000 A 
ATOM     17  C   UNL     1      43.276   2.879  11.684  0.00  0.00    +0.000 A 
ATOM     18  C   UNL     1      44.050   2.409  10.628  0.00  0.00    +0.000 A 
ATOM     19  C   UNL     1      44.785   3.315   9.865  0.00  0.00    +0.000 A 
ATOM     20  N   UNL     1      44.780   4.646  10.143  0.00  0.00    +0.000 NA
BRANCH  19  21
ATOM     21  C   UNL     1      45.581   2.911   8.686  0.00  0.00    +0.000 A 
ATOM     22  C   UNL     1      45.970   3.859   7.718  0.00  0.00    +0.000 A 
ATOM     23  C   UNL     1      46.706   3.492   6.584  0.00  0.00    +0.000 A 
ATOM     24  C   UNL     1      47.066   2.162   6.392  0.00  0.00    +0.000 A 
ATOM     25  C   UNL     1      46.690   1.217   7.335  0.00  0.00    +0.000 A 
ATOM     26  F   UNL     1      47.026  -0.068   7.150  0.00  0.00    +0.000 F 
ATOM     27  C   UNL     1      45.959   1.575   8.466  0.00  0.00    +0.000 A 
ENDBRANCH  19  21
ENDBRANCH   1  15
TORSDOF 4
ENDMDL
MODEL 7
REMARK VINA RESULT:    -7.725      2.252      2.767
REMARK INTER + INTRA:         -10.317
REMARK INTER:                  -9.693
REMARK INTRA:                  -0.624
REMARK UNBOUND:                -0.786
REMARK  Name = 
REMARK  4 active torsions:
REMARK  status: ('A' for Active; 'I' for Inactive)
REMARK    1  A    between atoms: C_2  and  C_4
REMARK    2  A    between atoms: N_8  and  C_9
REMARK    3  A    between atoms: C_9  and  C_10
REMARK    4  A    between atoms: C_14  and  C_15
REMARK                            x       y       z     vdW  Elec       q    Type
REMARK                         _______ _______ _______ _____ _____    ______ ____
ROOT
ATOM      1  C   UNL     1      43.522   4.145  11.105  0.00  0.00    +0.000 C 
ENDROOT
BRANCH   1   6
ATOM      2  C   UNL     1      46.609   2.593   7.286  0.00  0.00    +0.000 A 
ATOM      3  C   UNL     1      46.414   3.877   7.783  0.00  0.00    +0.000 A 
ATOM      4  C   UNL     1      45.634   4.053   8.930  0.00  0.00    +0.000 A 
ATOM      5  C   UNL     1      45.054   2.951   9.550  0.00  0.00    +0.000 A 
ATOM      6  N   UNL     1      44.351   3.010  10.730  0.00  0.00    +0.000 N 
ATOM      7  N   UNL     1      45.232   1.704   9.070  0.00  0.00    +0.000 NA
ATOM      8  C   UNL     1      45.990   1.548   7.952  0.00  0.00    +0.000 A 
ATOM      9  H   UNL     1      43.955   2.092  10.902  0.00  0.00    +0.000 HD
BRANCH   2  11
ATOM     10  N   UNL     1      47.282   3.132   5.011  0.00  0.00    +0.000 N 
ATOM     11  C   UNL     1      47.420   2.298   6.086  0.00  0.00    +0.000 C 
ATOM     12  O   UNL     1      48.212   1.367   6.062  0.00  0.00    +0.000 OA
ATOM     13  H   UNL     1      47.918   2.977   4.238  0.00  0.00    +0.000 HD
ATOM     14  H   UNL     1      46.844   4.041   5.077  0.00  0.00    +0.000 HD
ENDBRANCH   2  11
ENDBRANCH   1   6
BRANCH   1  15
ATOM     15  C   UNL     1      44.276   5.270  11.790  0.00  0.00    +0.000 A 
ATOM     16  C   UNL     1      45.292   4.988  12.699  0.00  0.00    +0.000 A 
ATOM     17  C   UNL     1      46.024   6.042  13.232  0.00  0.00    +0.000 A 
ATOM     18  C   UNL     1      45.737   7.343  12.836  0.00  0.00    +0.000 A 
ATOM     19  C   UNL     1      44.720   7.565  11.908  0.00  0.00    +0.000 A 
ATOM     20  N   UNL     1      43.987   6.540  11.398  0.00  0.00    +0.000 NA
BRANCH  19  21
ATOM     21  C   UNL     1      44.392   8.908  11.383  0.00  0.00    +0.000 A 
ATOM     22  C   UNL     1      45.252  10.002  11.609  0.00  0.00    +0.000 A 
ATOM     23  C   UNL     1      44.948  11.286  11.138  0.00  0.00    +0.000 A 
ATOM     24  C   UNL     1      43.770  11.504  10.432  0.00  0.00    +0.000 A 
ATOM     25  C   UNL     1      42.911  10.439  10.203  0.00  0.00    +0.000 A 
ATOM     26  F   UNL     1      41.770  10.645   9.532  0.00  0.00    +0.000 F 
ATOM     27  C   UNL     1      43.208   9.159  10.667  0.00  0.00    +0.000 A 
ENDBRANCH  19  21
ENDBRANCH   1  15
TORSDOF 4
ENDMDL
MODEL 8
REMARK VINA RESULT:    -7.602      4.053      7.280
REMARK INTER + INTRA:         -10.166
REMARK INTER:                  -9.547
REMARK INTRA:                  -0.619
REMARK UNBOUND:                -0.786
REMARK  Name = 
REMARK  4 active torsions:
REMARK  status: ('A' for Active; 'I' for Inactive)
REMARK    1  A    between atoms: C_2  and  C_4
REMARK    2  A    between atoms: N_8  and  C_9
REMARK    3  A    between atoms: C_9  and  C_10
REMARK    4  A    between atoms: C_14  and  C_15
REMARK                            x       y       z     vdW  Elec       q    Type
REMARK                         _______ _______ _______ _____ _____    ______ ____
ROOT
ATOM      1  C   UNL     1      44.782   6.589  12.253  0.00  0.00    +0.000 C 
ENDROOT
BRANCH   1   6
ATOM      2  C   UNL     1      49.629   8.299  12.595  0.00  0.00    +0.000 A 
ATOM      3  C   UNL     1      48.570   8.817  11.856  0.00  0.00    +0.000 A 
ATOM      4  C   UNL     1      47.291   8.277  12.024  0.00  0.00    +0.000 A 
ATOM      5  C   UNL     1      47.094   7.227  12.915  0.00  0.00    +0.000 A 
ATOM      6  N   UNL     1      45.864   6.693  13.219  0.00  0.00    +0.000 N 
ATOM      7  N   UNL     1      48.116   6.714  13.630  0.00  0.00    +0.000 NA
ATOM      8  C   UNL     1      49.355   7.246  13.452  0.00  0.00    +0.000 A 
ATOM      9  H   UNL     1      46.015   5.882  13.809  0.00  0.00    +0.000 HD
BRANCH   2  11
ATOM     10  N   UNL     1      51.969   7.931  12.044  0.00  0.00    +0.000 N 
ATOM     11  C   UNL     1      51.015   8.801  12.496  0.00  0.00    +0.000 C 
ATOM     12  O   UNL     1      51.298   9.958  12.771  0.00  0.00    +0.000 OA
ATOM     13  H   UNL     1      52.891   8.321  11.885  0.00  0.00    +0.000 HD
ATOM     14  H   UNL     1      51.742   7.068  11.572  0.00  0.00    +0.000 HD
ENDBRANCH   2  11
ENDBRANCH   1   6
BRANCH   1  15
ATOM     15  C   UNL     1      44.489   5.172  11.795  0.00  0.00    +0.000 A 
ATOM     16  C   UNL     1      43.500   4.418  12.420  0.00  0.00    +0.000 A 
ATOM     17  C   UNL     1      43.193   3.162  11.911  0.00  0.00    +0.000 A 
ATOM     18  C   UNL     1      43.866   2.697  10.787  0.00  0.00    +0.000 A 
ATOM     19  C   UNL     1      44.835   3.503  10.190  0.00  0.00    +0.000 A 
ATOM     20  N   UNL     1      45.154   4.724  10.696  0.00  0.00    +0.000 NA
BRANCH  19  21
ATOM     21  C   UNL     1      45.552   3.115   8.957  0.00  0.00    +0.000 A 
ATOM     22  C   UNL     1      45.941   4.086   8.011  0.00  0.00    +0.000 A 
ATOM     23  C   UNL     1      46.602   3.737   6.827  0.00  0.00    +0.000 A 
ATOM     24  C   UNL     1      46.885   2.402   6.560  0.00  0.00    +0.000 A 
ATOM     25  C   UNL     1      46.509   1.433   7.479  0.00  0.00    +0.000 A 
ATOM     26  F   UNL     1      46.771   0.144   7.222  0.00  0.00    +0.000 F 
ATOM     27  C   UNL     1      45.852   1.774   8.659  0.00  0.00    +0.000 A 
ENDBRANCH  19  21
ENDBRANCH   1  15
TORSDOF 4
ENDMDL
MODEL 9
REMARK VINA RESULT:    -7.462      3.853      7.098
REMARK INTER + INTRA:          -9.994
REMARK INTER:                  -9.301
REMARK INTRA:                  -0.693
REMARK UNBOUND:                -0.786
REMARK  Name = 
REMARK  4 active torsions:
REMARK  status: ('A' for Active; 'I' for Inactive)
REMARK    1  A    between atoms: C_2  and  C_4
REMARK    2  A    between atoms: N_8  and  C_9
REMARK    3  A    between atoms: C_9  and  C_10
REMARK    4  A    between atoms: C_14  and  C_15
REMARK                            x       y       z     vdW  Elec       q    Type
REMARK                         _______ _______ _______ _____ _____    ______ ____
ROOT
ATOM      1  C   UNL     1      45.673   4.678  13.915  0.00  0.00    +0.000 C 
ENDROOT
BRANCH   1   6
ATOM      2  C   UNL     1      48.323   8.705  12.102  0.00  0.00    +0.000 A 
ATOM      3  C   UNL     1      47.094   8.690  12.752  0.00  0.00    +0.000 A 
ATOM      4  C   UNL     1      46.622   7.490  13.295  0.00  0.00    +0.000 A 
ATOM      5  C   UNL     1      47.377   6.329  13.168  0.00  0.00    +0.000 A 
ATOM      6  N   UNL     1      47.046   5.126  13.745  0.00  0.00    +0.000 N 
ATOM      7  N   UNL     1      48.566   6.332  12.532  0.00  0.00    +0.000 NA
ATOM      8  C   UNL     1      49.010   7.506  12.006  0.00  0.00    +0.000 A 
ATOM      9  H   UNL     1      47.704   4.430  13.412  0.00  0.00    +0.000 HD
BRANCH   2  11
ATOM     10  N   UNL     1      50.276   9.974  11.401  0.00  0.00    +0.000 N 
ATOM     11  C   UNL     1      48.913   9.919  11.501  0.00  0.00    +0.000 C 
ATOM     12  O   UNL     1      48.213  10.826  11.075  0.00  0.00    +0.000 OA
ATOM     13  H   UNL     1      50.656  10.765  10.894  0.00  0.00    +0.000 HD
ATOM     14  H   UNL     1      50.865   9.159  11.499  0.00  0.00    +0.000 HD
ENDBRANCH   2  11
ENDBRANCH   1   6
BRANCH   1  15
ATOM     15  C   UNL     1      44.849   4.691  12.641  0.00  0.00    +0.000 A 
ATOM     16  C   UNL     1      43.661   5.413  12.575  0.00  0.00    +0.000 A 
ATOM     17  C   UNL     1      42.985   5.481  11.363  0.00  0.00    +0.000 A 
ATOM     18  C   UNL     1      43.516   4.843  10.247  0.00  0.00    +0.000 A 
ATOM     19  C   UNL     1      44.719   4.149  10.367  0.00  0.00    +0.000 A 
ATOM     20  N   UNL     1      45.375   4.063  11.555  0.00  0.00    +0.000 NA
BRANCH  19  21
ATOM     21  C   UNL     1      45.387   3.498   9.219  0.00  0.00    +0.000 A 
ATOM     22  C   UNL     1      45.886   4.262   8.144  0.00  0.00    +0.000 A 
ATOM     23  C   UNL     1      46.502   3.663   7.039  0.00  0.00    +0.000 A 
ATOM     24  C   UNL     1      46.630   2.279   6.983  0.00  0.00    +0.000 A 
ATOM     25  C   UNL     1      46.143   1.512   8.032  0.00  0.00    +0.000 A 
ATOM     26  F   UNL     1      46.255   0.177   7.980  0.00  0.00    +0.000 F 
ATOM     27  C   UNL     1      45.530   2.102   9.135  0.00  0.00    +0.000 A 
ENDBRANCH  19  21
ENDBRANCH   1  15
TORSDOF 4
ENDMDL
