MODEL 1
REMARK VINA RESULT:    -9.112      0.000      0.000
REMARK INTER + INTRA:         -13.297
REMARK INTER:                 -12.308
REMARK INTRA:                  -0.989
REMARK UNBOUND:                -0.989
REMARK  Name = 
REMARK  6 active torsions:
REMARK  status: ('A' for Active; 'I' for Inactive)
REMARK    1  A    between atoms: C_2  and  C_4
REMARK    2  A    between atoms: N_8  and  C_9
REMARK    3  A    between atoms: C_9  and  C_10
REMARK    4  A    between atoms: C_10  and  C_13
REMARK    5  A    between atoms: C_17  and  O_18
REMARK    6  A    between atoms: O_18  and  C_19
REMARK                            x       y       z     vdW  Elec       q    Type
REMARK                         _______ _______ _______ _____ _____    ______ ____
ROOT
ATOM      1  C   UNL     1      43.267   4.378  11.088  0.00  0.00    +0.000 C 
ENDROOT
BRANCH   1   6
ATOM      2  C   UNL     1      46.506   2.652   7.472  0.00  0.00    +0.000 A 
ATOM      3  C   UNL     1      46.069   3.939   7.766  0.00  0.00    +0.000 A 
ATOM      4  C   UNL     1      45.155   4.125   8.805  0.00  0.00    +0.000 A 
ATOM      5  C   UNL     1      44.692   3.029   9.528  0.00  0.00    +0.000 A 
ATOM      6  N   UNL     1      43.791   3.128  10.551  0.00  0.00    +0.000 N 
ATOM      7  N   UNL     1      45.104   1.779   9.242  0.00  0.00    +0.000 NA
ATOM      8  C   UNL     1      45.988   1.611   8.222  0.00  0.00    +0.000 A 
ATOM      9  H   UNL     1      43.554   2.246  10.994  0.00  0.00    +0.000 HD
BRANCH   2  11
ATOM     10  N   UNL     1      47.465   3.186   5.303  0.00  0.00    +0.000 N 
ATOM     11  C   UNL     1      47.467   2.357   6.389  0.00  0.00    +0.000 C 
ATOM     12  O   UNL     1      48.252   1.421   6.470  0.00  0.00    +0.000 OA
ATOM     13  H   UNL     1      48.193   3.027   4.618  0.00  0.00    +0.000 HD
ATOM     14  H   UNL     1      47.020   4.093   5.308  0.00  0.00    +0.000 HD
ENDBRANCH   2  11
ENDBRANCH   1   6
BRANCH   1  15
ATOM     15  C   UNL     1      43.640   4.626  12.572  0.00  0.00    +0.000 C 
ATOM     16  F   UNL     1      42.720   5.476  13.119  0.00  0.00    +0.000 F 
ATOM     17  F   UNL     1      43.501   3.454  13.259  0.00  0.00    +0.000 F 
BRANCH  15  18
ATOM     18  C   UNL     1      45.051   5.177  12.662  0.00  0.00    +0.000 A 
ATOM     19  C   UNL     1      45.523   6.105  11.724  0.00  0.00    +0.000 A 
ATOM     20  C   UNL     1      46.804   6.649  11.854  0.00  0.00    +0.000 A 
ATOM     21  C   UNL     1      47.630   6.267  12.914  0.00  0.00    +0.000 A 
ATOM     22  C   UNL     1      47.175   5.333  13.842  0.00  0.00    +0.000 A 
ATOM     23  C   UNL     1      45.891   4.796  13.719  0.00  0.00    +0.000 A 
BRANCH  22  24
ATOM     24  O   UNL     1      47.881   4.900  14.935  0.00  0.00    +0.000 OA
BRANCH  24  25
ATOM     25  C   UNL     1      47.247   3.994  15.864  0.00  0.00    +0.000 C 
ATOM     26  C   UNL     1      47.194   4.388  17.347  0.00  0.00    +0.000 C 
ATOM     27  O   UNL     1      47.860   3.168  17.749  0.00  0.00    +0.000 OA
ATOM     28  C   UNL     1      48.142   2.852  16.366  0.00  0.00    +0.000 C 
ENDBRANCH  24  25
ENDBRANCH  22  24
ENDBRANCH  15  18
ENDBRANCH   1  15
TORSDOF 6
ENDMDL
MODEL 2
REMARK VINA RESULT:    -8.554      1.130      1.272
REMARK INTER + INTRA:         -12.544
REMARK INTER:                 -11.607
REMARK INTRA:                  -0.938
REMARK UNBOUND:                -0.989
REMARK  Name = 
REMARK  6 active torsions:
REMARK  status: ('A' for Active; 'I' for Inactive)
REMARK    1  A    between atoms: C_2  and  C_4
REMARK    2  A    between atoms: N_8  and  C_9
REMARK    3  A    between atoms: C_9  and  C_10
REMARK    4  A    between atoms: C_10  and  C_13
REMARK    5  A    between atoms: C_17  and  O_18
REMARK    6  A    between atoms: O_18  and  C_19
REMARK                            x       y       z     vdW  Elec       q    Type
REMARK                         _______ _______ _______ _____ _____    ______ ____
ROOT
ATOM      1  C   UNL     1      43.256   4.378  11.064  0.00  0.00    +0.000 C 
ENDROOT
BRANCH   1   6
ATOM      2  C   UNL     1      46.509   2.640   7.466  0.00  0.00    +0.000 A 
ATOM      3  C   UNL     1      46.074   3.928   7.756  0.00  0.00    +0.000 A 
ATOM      4  C   UNL     1      45.155   4.118   8.791  0.00  0.00    +0.000 A 
ATOM      5  C   UNL     1      44.685   3.024   9.513  0.00  0.00    +0.000 A 
ATOM      6  N   UNL     1      43.780   3.126  10.531  0.00  0.00    +0.000 N 
ATOM      7  N   UNL     1      45.096   1.773   9.231  0.00  0.00    +0.000 NA
ATOM      8  C   UNL     1      45.984   1.601   8.216  0.00  0.00    +0.000 A 
ATOM      9  H   UNL     1      43.539   2.246  10.975  0.00  0.00    +0.000 HD
BRANCH   2  11
ATOM     10  N   UNL     1      47.470   3.160   5.295  0.00  0.00    +0.000 N 
ATOM     11  C   UNL     1      47.475   2.340   6.389  0.00  0.00    +0.000 C 
ATOM     12  O   UNL     1      48.265   1.411   6.481  0.00  0.00    +0.000 OA
ATOM     13  H   UNL     1      48.201   2.999   4.613  0.00  0.00    +0.000 HD
ATOM     14  H   UNL     1      47.019   4.063   5.291  0.00  0.00    +0.000 HD
ENDBRANCH   2  11
ENDBRANCH   1   6
BRANCH   1  15
ATOM     15  C   UNL     1      43.646   4.642  12.540  0.00  0.00    +0.000 C 
ATOM     16  F   UNL     1      42.688   5.430  13.114  0.00  0.00    +0.000 F 
ATOM     17  F   UNL     1      43.597   3.460  13.223  0.00  0.00    +0.000 F 
BRANCH  15  18
ATOM     18  C   UNL     1      45.022   5.280  12.603  0.00  0.00    +0.000 A 
ATOM     19  C   UNL     1      45.397   6.273  11.689  0.00  0.00    +0.000 A 
ATOM     20  C   UNL     1      46.645   6.894  11.795  0.00  0.00    +0.000 A 
ATOM     21  C   UNL     1      47.533   6.525  12.808  0.00  0.00    +0.000 A 
ATOM     22  C   UNL     1      47.176   5.527  13.711  0.00  0.00    +0.000 A 
ATOM     23  C   UNL     1      45.925   4.913  13.612  0.00  0.00    +0.000 A 
BRANCH  22  24
ATOM     24  O   UNL     1      47.950   5.099  14.759  0.00  0.00    +0.000 OA
BRANCH  24  25
ATOM     25  C   UNL     1      48.288   6.034  15.807  0.00  0.00    +0.000 C 
ATOM     26  C   UNL     1      49.700   6.639  15.817  0.00  0.00    +0.000 C 
ATOM     27  O   UNL     1      49.948   6.169  17.163  0.00  0.00    +0.000 OA
ATOM     28  C   UNL     1      48.731   5.390  17.129  0.00  0.00    +0.000 C 
ENDBRANCH  24  25
ENDBRANCH  22  24
ENDBRANCH  15  18
ENDBRANCH   1  15
TORSDOF 6
ENDMDL
MODEL 3
REMARK VINA RESULT:    -8.349      2.209      3.629
REMARK INTER + INTRA:         -12.267
REMARK INTER:                 -11.334
REMARK INTRA:                  -0.933
REMARK UNBOUND:                -0.989
REMARK  Name = 
REMARK  6 active torsions:
REMARK  status: ('A' for Active; 'I' for Inactive)
REMARK    1  A    between atoms: C_2  and  C_4
REMARK    2  A    between atoms: N_8  and  C_9
REMARK    3  A    between atoms: C_9  and  C_10
REMARK    4  A    between atoms: C_10  and  C_13
REMARK    5  A    between atoms: C_17  and  O_18
REMARK    6  A    between atoms: O_18  and  C_19
REMARK                            x       y       z     vdW  Elec       q    Type
REMARK                         _______ _______ _______ _____ _____    ______ ____
ROOT
ATOM      1  C   UNL     1      43.186   4.761  10.796  0.00  0.00    +0.000 C 
ENDROOT
BRANCH   1   6
ATOM      2  C   UNL     1      46.503   2.349   7.677  0.00  0.00    +0.000 A 
ATOM      3  C   UNL     1      45.728   1.872   8.728  0.00  0.00    +0.000 A 
ATOM      4  C   UNL     1      44.917   2.764   9.433  0.00  0.00    +0.000 A 
ATOM      5  C   UNL     1      44.894   4.111   9.081  0.00  0.00    +0.000 A 
ATOM      6  N   UNL     1      44.136   5.046   9.726  0.00  0.00    +0.000 N 
ATOM      7  N   UNL     1      45.649   4.581   8.069  0.00  0.00    +0.000 NA
ATOM      8  C   UNL     1      46.440   3.703   7.396  0.00  0.00    +0.000 A 
ATOM      9  H   UNL     1      44.211   5.986   9.351  0.00  0.00    +0.000 HD
BRANCH   2  11
ATOM     10  N   UNL     1      48.562   2.031   6.424  0.00  0.00    +0.000 N 
ATOM     11  C   UNL     1      47.394   1.483   6.876  0.00  0.00    +0.000 C 
ATOM     12  O   UNL     1      47.110   0.315   6.646  0.00  0.00    +0.000 OA
ATOM     13  H   UNL     1      49.202   1.397   5.962  0.00  0.00    +0.000 HD
ATOM     14  H   UNL     1      48.941   2.890   6.794  0.00  0.00    +0.000 HD
ENDBRANCH   2  11
ENDBRANCH   1   6
BRANCH   1  15
ATOM     15  C   UNL     1      43.293   5.729  12.001  0.00  0.00    +0.000 C 
ATOM     16  F   UNL     1      43.020   6.997  11.571  0.00  0.00    +0.000 F 
ATOM     17  F   UNL     1      42.300   5.430  12.891  0.00  0.00    +0.000 F 
BRANCH  15  18
ATOM     18  C   UNL     1      44.671   5.622  12.627  0.00  0.00    +0.000 A 
ATOM     19  C   UNL     1      45.187   4.380  13.023  0.00  0.00    +0.000 A 
ATOM     20  C   UNL     1      46.481   4.288  13.543  0.00  0.00    +0.000 A 
ATOM     21  C   UNL     1      47.271   5.433  13.680  0.00  0.00    +0.000 A 
ATOM     22  C   UNL     1      46.760   6.673  13.304  0.00  0.00    +0.000 A 
ATOM     23  C   UNL     1      45.470   6.765  12.775  0.00  0.00    +0.000 A 
BRANCH  22  24
ATOM     24  O   UNL     1      47.446   7.859  13.368  0.00  0.00    +0.000 OA
BRANCH  24  25
ATOM     25  C   UNL     1      47.893   8.476  12.140  0.00  0.00    +0.000 C 
ATOM     26  C   UNL     1      49.310   9.066  12.094  0.00  0.00    +0.000 C 
ATOM     27  O   UNL     1      48.810  10.368  11.706  0.00  0.00    +0.000 OA
ATOM     28  C   UNL     1      47.453   9.935  11.952  0.00  0.00    +0.000 C 
ENDBRANCH  24  25
ENDBRANCH  22  24
ENDBRANCH  15  18
ENDBRANCH   1  15
TORSDOF 6
ENDMDL
MODEL 4
REMARK VINA RESULT:    -8.334      2.149      3.658
REMARK INTER + INTRA:         -12.247
REMARK INTER:                 -11.342
REMARK INTRA:                  -0.905
REMARK UNBOUND:                -0.989
REMARK  Name = 
REMARK  6 active torsions:
REMARK  status: ('A' for Active; 'I' for Inactive)
REMARK    1  A    between atoms: C_2  and  C_4
REMARK    2  A    between atoms: N_8  and  C_9
REMARK    3  A    between atoms: C_9  and  C_10
REMARK    4  A    between atoms: C_10  and  C_13
REMARK    5  A    between atoms: C_17  and  O_18
REMARK    6  A    between atoms: O_18  and  C_19
REMARK                            x       y       z     vdW  Elec       q    Type
REMARK                         _______ _______ _______ _____ _____    ______ ____
ROOT
ATOM      1  C   UNL     1      43.236   4.287  11.165  0.00  0.00    +0.000 C 
ENDROOT
BRANCH   1   6
ATOM      2  C   UNL     1      46.475   2.662   7.502  0.00  0.00    +0.000 A 
ATOM      3  C   UNL     1      46.015   3.937   7.813  0.00  0.00    +0.000 A 
ATOM      4  C   UNL     1      45.107   4.095   8.863  0.00  0.00    +0.000 A 
ATOM      5  C   UNL     1      44.674   2.982   9.580  0.00  0.00    +0.000 A 
ATOM      6  N   UNL     1      43.781   3.053  10.612  0.00  0.00    +0.000 N 
ATOM      7  N   UNL     1      45.108   1.744   9.278  0.00  0.00    +0.000 NA
ATOM      8  C   UNL     1      45.986   1.604   8.248  0.00  0.00    +0.000 A 
ATOM      9  H   UNL     1      43.567   2.162  11.049  0.00  0.00    +0.000 HD
BRANCH   2  11
ATOM     10  N   UNL     1      47.367   3.204   5.307  0.00  0.00    +0.000 N 
ATOM     11  C   UNL     1      47.432   2.397   6.408  0.00  0.00    +0.000 C 
ATOM     12  O   UNL     1      48.266   1.506   6.492  0.00  0.00    +0.000 OA
ATOM     13  H   UNL     1      48.091   3.070   4.612  0.00  0.00    +0.000 HD
ATOM     14  H   UNL     1      46.874   4.085   5.304  0.00  0.00    +0.000 HD
ENDBRANCH   2  11
ENDBRANCH   1   6
BRANCH   1  15
ATOM     15  C   UNL     1      43.518   4.472  12.678  0.00  0.00    +0.000 C 
ATOM     16  F   UNL     1      42.532   5.250  13.217  0.00  0.00    +0.000 F 
ATOM     17  F   UNL     1      43.398   3.259  13.296  0.00  0.00    +0.000 F 
BRANCH  15  18
ATOM     18  C   UNL     1      44.895   5.078  12.875  0.00  0.00    +0.000 A 
ATOM     19  C   UNL     1      45.890   4.390  13.582  0.00  0.00    +0.000 A 
ATOM     20  C   UNL     1      47.172   4.933  13.705  0.00  0.00    +0.000 A 
ATOM     21  C   UNL     1      47.472   6.171  13.130  0.00  0.00    +0.000 A 
ATOM     22  C   UNL     1      46.486   6.869  12.439  0.00  0.00    +0.000 A 
ATOM     23  C   UNL     1      45.207   6.322  12.307  0.00  0.00    +0.000 A 
BRANCH  22  24
ATOM     24  O   UNL     1      46.666   8.076  11.813  0.00  0.00    +0.000 OA
BRANCH  24  25
ATOM     25  C   UNL     1      46.260   9.285  12.492  0.00  0.00    +0.000 C 
ATOM     26  C   UNL     1      45.016  10.025  11.980  0.00  0.00    +0.000 C 
ATOM     27  O   UNL     1      45.759  11.253  11.795  0.00  0.00    +0.000 OA
ATOM     28  C   UNL     1      47.000  10.555  12.048  0.00  0.00    +0.000 C 
ENDBRANCH  24  25
ENDBRANCH  22  24
ENDBRANCH  15  18
ENDBRANCH   1  15
TORSDOF 6
ENDMDL
MODEL 5
REMARK VINA RESULT:    -8.310      1.971      2.336
REMARK INTER + INTRA:         -12.214
REMARK INTER:                 -11.193
REMARK INTRA:                  -1.021
REMARK UNBOUND:                -0.989
REMARK  Name = 
REMARK  6 active torsions:
REMARK  status: ('A' for Active; 'I' for Inactive)
REMARK    1  A    between atoms: C_2  and  C_4
REMARK    2  A    between atoms: N_8  and  C_9
REMARK    3  A    between atoms: C_9  and  C_10
REMARK    4  A    between atoms: C_10  and  C_13
REMARK    5  A    between atoms: C_17  and  O_18
REMARK    6  A    between atoms: O_18  and  C_19
REMARK                            x       y       z     vdW  Elec       q    Type
REMARK                         _______ _______ _______ _____ _____    ______ ____
ROOT
ATOM      1  C   UNL     1      43.410   3.523  11.271  0.00  0.00    +0.000 C 
ENDROOT
BRANCH   1   6
ATOM      2  C   UNL     1      46.548   2.733   7.262  0.00  0.00    +0.000 A 
ATOM      3  C   UNL     1      45.929   3.890   7.721  0.00  0.00    +0.000 A 
ATOM      4  C   UNL     1      45.096   3.816   8.840  0.00  0.00    +0.000 A 
ATOM      5  C   UNL     1      44.893   2.595   9.476  0.00  0.00    +0.000 A 
ATOM      6  N   UNL     1      44.087   2.439  10.568  0.00  0.00    +0.000 N 
ATOM      7  N   UNL     1      45.483   1.469   9.031  0.00  0.00    +0.000 NA
ATOM      8  C   UNL     1      46.285   1.553   7.936  0.00  0.00    +0.000 A 
ATOM      9  H   UNL     1      44.045   1.493  10.934  0.00  0.00    +0.000 HD
BRANCH   2  11
ATOM     10  N   UNL     1      48.764   2.442   6.306  0.00  0.00    +0.000 N 
ATOM     11  C   UNL     1      47.442   2.712   6.085  0.00  0.00    +0.000 C 
ATOM     12  O   UNL     1      47.014   2.904   4.955  0.00  0.00    +0.000 OA
ATOM     13  H   UNL     1      49.342   2.337   5.481  0.00  0.00    +0.000 HD
ATOM     14  H   UNL     1      49.104   2.041   7.168  0.00  0.00    +0.000 HD
ENDBRANCH   2  11
ENDBRANCH   1   6
BRANCH   1  15
ATOM     15  C   UNL     1      44.171   4.029  12.523  0.00  0.00    +0.000 C 
ATOM     16  F   UNL     1      43.359   3.897  13.614  0.00  0.00    +0.000 F 
ATOM     17  F   UNL     1      45.228   3.195  12.757  0.00  0.00    +0.000 F 
BRANCH  15  18
ATOM     18  C   UNL     1      44.614   5.464  12.310  0.00  0.00    +0.000 A 
ATOM     19  C   UNL     1      43.918   6.310  11.435  0.00  0.00    +0.000 A 
ATOM     20  C   UNL     1      44.301   7.647  11.294  0.00  0.00    +0.000 A 
ATOM     21  C   UNL     1      45.385   8.152  12.017  0.00  0.00    +0.000 A 
ATOM     22  C   UNL     1      46.092   7.315  12.876  0.00  0.00    +0.000 A 
ATOM     23  C   UNL     1      45.704   5.981  13.026  0.00  0.00    +0.000 A 
BRANCH  22  24
ATOM     24  O   UNL     1      47.153   7.700  13.655  0.00  0.00    +0.000 OA
BRANCH  24  25
ATOM     25  C   UNL     1      48.224   6.760  13.894  0.00  0.00    +0.000 C 
ATOM     26  C   UNL     1      48.715   6.564  15.336  0.00  0.00    +0.000 C 
ATOM     27  O   UNL     1      50.075   6.898  14.972  0.00  0.00    +0.000 OA
ATOM     28  C   UNL     1      49.636   7.315  13.659  0.00  0.00    +0.000 C 
ENDBRANCH  24  25
ENDBRANCH  22  24
ENDBRANCH  15  18
ENDBRANCH   1  15
TORSDOF 6
ENDMDL
MODEL 6
REMARK VINA RESULT:    -7.479      2.864      7.953
REMARK INTER + INTRA:         -11.092
REMARK INTER:                 -10.593
REMARK INTRA:                  -0.499
REMARK UNBOUND:                -0.989
REMARK  Name = 
REMARK  6 active torsions:
REMARK  status: ('A' for Active; 'I' for Inactive)
REMARK    1  A    between atoms: C_2  and  C_4
REMARK    2  A    between atoms: N_8  and  C_9
REMARK    3  A    between atoms: C_9  and  C_10
REMARK    4  A    between atoms: C_10  and  C_13
REMARK    5  A    between atoms: C_17  and  O_18
REMARK    6  A    between atoms: O_18  and  C_19
REMARK                            x       y       z     vdW  Elec       q    Type
REMARK                         _______ _______ _______ _____ _____    ______ ____
ROOT
ATOM      1  C   UNL     1      46.599   6.004  12.445  0.00  0.00    +0.000 C 
ENDROOT
BRANCH   1   6
ATOM      2  C   UNL     1      48.410   4.317  16.964  0.00  0.00    +0.000 A 
ATOM      3  C   UNL     1      48.476   5.570  16.366  0.00  0.00    +0.000 A 
ATOM      4  C   UNL     1      47.910   5.751  15.102  0.00  0.00    +0.000 A 
ATOM      5  C   UNL     1      47.293   4.681  14.458  0.00  0.00    +0.000 A 
ATOM      6  N   UNL     1      46.725   4.774  13.219  0.00  0.00    +0.000 N 
ATOM      7  N   UNL     1      47.235   3.462  15.028  0.00  0.00    +0.000 NA
ATOM      8  C   UNL     1      47.797   3.299  16.255  0.00  0.00    +0.000 A 
ATOM      9  H   UNL     1      46.302   3.916  12.880  0.00  0.00    +0.000 HD
BRANCH   2  11
ATOM     10  N   UNL     1      48.312   3.145  19.091  0.00  0.00    +0.000 N 
ATOM     11  C   UNL     1      48.984   4.030  18.295  0.00  0.00    +0.000 C 
ATOM     12  O   UNL     1      50.031   4.545  18.664  0.00  0.00    +0.000 OA
ATOM     13  H   UNL     1      48.769   2.887  19.958  0.00  0.00    +0.000 HD
ATOM     14  H   UNL     1      47.599   2.523  18.737  0.00  0.00    +0.000 HD
ENDBRANCH   2  11
ENDBRANCH   1   6
BRANCH   1  15
ATOM     15  C   UNL     1      45.247   6.139  11.700  0.00  0.00    +0.000 C 
ATOM     16  F   UNL     1      44.246   6.255  12.624  0.00  0.00    +0.000 F 
ATOM     17  F   UNL     1      45.242   7.320  11.014  0.00  0.00    +0.000 F 
BRANCH  15  18
ATOM     18  C   UNL     1      45.043   4.946  10.784  0.00  0.00    +0.000 A 
ATOM     19  C   UNL     1      44.214   3.882  11.163  0.00  0.00    +0.000 A 
ATOM     20  C   UNL     1      43.988   2.818  10.284  0.00  0.00    +0.000 A 
ATOM     21  C   UNL     1      44.592   2.801   9.025  0.00  0.00    +0.000 A 
ATOM     22  C   UNL     1      45.431   3.846   8.647  0.00  0.00    +0.000 A 
ATOM     23  C   UNL     1      45.649   4.915   9.520  0.00  0.00    +0.000 A 
BRANCH  22  24
ATOM     24  O   UNL     1      46.058   3.954   7.432  0.00  0.00    +0.000 OA
BRANCH  24  25
ATOM     25  C   UNL     1      46.321   2.754   6.672  0.00  0.00    +0.000 C 
ATOM     26  C   UNL     1      47.429   1.809   7.160  0.00  0.00    +0.000 C 
ATOM     27  O   UNL     1      48.123   1.885   5.893  0.00  0.00    +0.000 OA
ATOM     28  C   UNL     1      47.243   2.947   5.459  0.00  0.00    +0.000 C 
ENDBRANCH  24  25
ENDBRANCH  22  24
ENDBRANCH  15  18
ENDBRANCH   1  15
TORSDOF 6
ENDMDL
MODEL 7
REMARK VINA RESULT:    -7.423      3.197      8.126
REMARK INTER + INTRA:         -11.016
REMARK INTER:                 -10.531
REMARK INTRA:                  -0.485
REMARK UNBOUND:                -0.989
REMARK  Name = 
REMARK  6 active torsions:
REMARK  status: ('A' for Active; 'I' for Inactive)
REMARK    1  A    between atoms: C_2  and  C_4
REMARK    2  A    between atoms: N_8  and  C_9
REMARK    3  A    between atoms: C_9  and  C_10
REMARK    4  A    between atoms: C_10  and  C_13
REMARK    5  A    between atoms: C_17  and  O_18
REMARK    6  A    between atoms: O_18  and  C_19
REMARK                            x       y       z     vdW  Elec       q    Type
REMARK                         _______ _______ _______ _____ _____    ______ ____
ROOT
ATOM      1  C   UNL     1      45.654   5.498  12.907  0.00  0.00    +0.000 C 
ENDROOT
BRANCH   1   6
ATOM      2  C   UNL     1      48.556   4.437  17.030  0.00  0.00    +0.000 A 
ATOM      3  C   UNL     1      47.427   3.804  16.521  0.00  0.00    +0.000 A 
ATOM      4  C   UNL     1      46.812   4.324  15.380  0.00  0.00    +0.000 A 
ATOM      5  C   UNL     1      47.330   5.463  14.770  0.00  0.00    +0.000 A 
ATOM      6  N   UNL     1      46.782   6.037  13.658  0.00  0.00    +0.000 N 
ATOM      7  N   UNL     1      48.418   6.086  15.263  0.00  0.00    +0.000 NA
ATOM      8  C   UNL     1      49.001   5.574  16.379  0.00  0.00    +0.000 A 
ATOM      9  H   UNL     1      47.274   6.856  13.317  0.00  0.00    +0.000 HD
BRANCH   2  11
ATOM     10  N   UNL     1      48.546   3.269  19.162  0.00  0.00    +0.000 N 
ATOM     11  C   UNL     1      49.270   3.963  18.233  0.00  0.00    +0.000 C 
ATOM     12  O   UNL     1      50.469   4.162  18.384  0.00  0.00    +0.000 OA
ATOM     13  H   UNL     1      49.071   2.870  19.930  0.00  0.00    +0.000 HD
ATOM     14  H   UNL     1      47.637   2.876  18.964  0.00  0.00    +0.000 HD
ENDBRANCH   2  11
ENDBRANCH   1   6
BRANCH   1  15
ATOM     15  C   UNL     1      45.635   5.923  11.416  0.00  0.00    +0.000 C 
ATOM     16  F   UNL     1      44.751   6.954  11.264  0.00  0.00    +0.000 F 
ATOM     17  F   UNL     1      46.856   6.446  11.096  0.00  0.00    +0.000 F 
BRANCH  15  18
ATOM     18  C   UNL     1      45.280   4.731  10.546  0.00  0.00    +0.000 A 
ATOM     19  C   UNL     1      44.504   3.679  11.050  0.00  0.00    +0.000 A 
ATOM     20  C   UNL     1      44.134   2.616  10.220  0.00  0.00    +0.000 A 
ATOM     21  C   UNL     1      44.539   2.589   8.883  0.00  0.00    +0.000 A 
ATOM     22  C   UNL     1      45.324   3.623   8.379  0.00  0.00    +0.000 A 
ATOM     23  C   UNL     1      45.686   4.691   9.204  0.00  0.00    +0.000 A 
BRANCH  22  24
ATOM     24  O   UNL     1      45.760   3.720   7.082  0.00  0.00    +0.000 OA
BRANCH  24  25
ATOM     25  C   UNL     1      47.114   3.324   6.768  0.00  0.00    +0.000 C 
ATOM     26  C   UNL     1      47.399   2.744   5.374  0.00  0.00    +0.000 C 
ATOM     27  O   UNL     1      47.954   1.532   5.937  0.00  0.00    +0.000 OA
ATOM     28  C   UNL     1      47.506   1.921   7.255  0.00  0.00    +0.000 C 
ENDBRANCH  24  25
ENDBRANCH  22  24
ENDBRANCH  15  18
ENDBRANCH   1  15
TORSDOF 6
ENDMDL
MODEL 8
REMARK VINA RESULT:    -7.026      3.184      7.439
REMARK INTER + INTRA:         -10.479
REMARK INTER:                  -9.481
REMARK INTRA:                  -0.998
REMARK UNBOUND:                -0.989
REMARK  Name = 
REMARK  6 active torsions:
REMARK  status: ('A' for Active; 'I' for Inactive)
REMARK    1  A    between atoms: C_2  and  C_4
REMARK    2  A    between atoms: N_8  and  C_9
REMARK    3  A    between atoms: C_9  and  C_10
REMARK    4  A    between atoms: C_10  and  C_13
REMARK    5  A    between atoms: C_17  and  O_18
REMARK    6  A    between atoms: O_18  and  C_19
REMARK                            x       y       z     vdW  Elec       q    Type
REMARK                         _______ _______ _______ _____ _____    ______ ____
ROOT
ATOM      1  C   UNL     1      47.211   7.021  12.109  0.00  0.00    +0.000 C 
ENDROOT
BRANCH   1   6
ATOM      2  C   UNL     1      47.908   4.181  16.351  0.00  0.00    +0.000 A 
ATOM      3  C   UNL     1      47.133   3.955  15.219  0.00  0.00    +0.000 A 
ATOM      4  C   UNL     1      47.109   4.918  14.208  0.00  0.00    +0.000 A 
ATOM      5  C   UNL     1      47.853   6.087  14.345  0.00  0.00    +0.000 A 
ATOM      6  N   UNL     1      47.875   7.080  13.406  0.00  0.00    +0.000 N 
ATOM      7  N   UNL     1      48.599   6.317  15.443  0.00  0.00    +0.000 NA
ATOM      8  C   UNL     1      48.607   5.374  16.422  0.00  0.00    +0.000 A 
ATOM      9  H   UNL     1      48.472   7.868  13.636  0.00  0.00    +0.000 HD
BRANCH   2  11
ATOM     10  N   UNL     1      46.834   2.616  17.870  0.00  0.00    +0.000 N 
ATOM     11  C   UNL     1      47.993   3.222  17.472  0.00  0.00    +0.000 C 
ATOM     12  O   UNL     1      49.062   2.962  18.009  0.00  0.00    +0.000 OA
ATOM     13  H   UNL     1      46.927   1.893  18.573  0.00  0.00    +0.000 HD
ATOM     14  H   UNL     1      45.998   2.613  17.305  0.00  0.00    +0.000 HD
ENDBRANCH   2  11
ENDBRANCH   1   6
BRANCH   1  15
ATOM     15  C   UNL     1      45.722   7.450  12.148  0.00  0.00    +0.000 C 
ATOM     16  F   UNL     1      45.469   8.048  13.350  0.00  0.00    +0.000 F 
ATOM     17  F   UNL     1      45.524   8.425  11.212  0.00  0.00    +0.000 F 
BRANCH  15  18
ATOM     18  C   UNL     1      44.833   6.243  11.911  0.00  0.00    +0.000 A 
ATOM     19  C   UNL     1      43.885   5.850  12.865  0.00  0.00    +0.000 A 
ATOM     20  C   UNL     1      43.032   4.772  12.607  0.00  0.00    +0.000 A 
ATOM     21  C   UNL     1      43.121   4.073  11.401  0.00  0.00    +0.000 A 
ATOM     22  C   UNL     1      44.071   4.447  10.455  0.00  0.00    +0.000 A 
ATOM     23  C   UNL     1      44.917   5.530  10.706  0.00  0.00    +0.000 A 
BRANCH  22  24
ATOM     24  O   UNL     1      44.237   3.855   9.228  0.00  0.00    +0.000 OA
BRANCH  24  25
ATOM     25  C   UNL     1      45.557   3.421   8.833  0.00  0.00    +0.000 C 
ATOM     26  C   UNL     1      45.936   3.501   7.347  0.00  0.00    +0.000 C 
ATOM     27  O   UNL     1      46.259   2.091   7.301  0.00  0.00    +0.000 OA
ATOM     28  C   UNL     1      45.703   1.907   8.624  0.00  0.00    +0.000 C 
ENDBRANCH  24  25
ENDBRANCH  22  24
ENDBRANCH  15  18
ENDBRANCH   1  15
TORSDOF 6
ENDMDL
MODEL 9
REMARK VINA RESULT:    -6.743      3.604      8.253
REMARK INTER + INTRA:         -10.097
REMARK INTER:                  -9.461
REMARK INTRA:                  -0.636
REMARK UNBOUND:                -0.989
REMARK  Name = 
REMARK  6 active torsions:
REMARK  status: ('A' for Active; 'I' for Inactive)
REMARK    1  A    between atoms: C_2  and  C_4
REMARK    2  A    between atoms: N_8  and  C_9
REMARK    3  A    between atoms: C_9  and  C_10
REMARK    4  A    between atoms: C_10  and  C_13
REMARK    5  A    between atoms: C_17  and  O_18
REMARK    6  A    between atoms: O_18  and  C_19
REMARK                            x       y       z     vdW  Elec       q    Type
REMARK                         _______ _______ _______ _____ _____    ______ ____
ROOT
ATOM      1  C   UNL     1      46.836   6.637  11.620  0.00  0.00    +0.000 C 
ENDROOT
BRANCH   1   6
ATOM      2  C   UNL     1      48.870   7.865  16.192  0.00  0.00    +0.000 A 
ATOM      3  C   UNL     1      48.377   8.667  15.169  0.00  0.00    +0.000 A 
ATOM      4  C   UNL     1      47.895   8.063  14.005  0.00  0.00    +0.000 A 
ATOM      5  C   UNL     1      47.916   6.676  13.882  0.00  0.00    +0.000 A 
ATOM      6  N   UNL     1      47.472   6.011  12.774  0.00  0.00    +0.000 N 
ATOM      7  N   UNL     1      48.401   5.894  14.866  0.00  0.00    +0.000 NA
ATOM      8  C   UNL     1      48.874   6.496  15.990  0.00  0.00    +0.000 A 
ATOM      9  H   UNL     1      47.537   5.000  12.831  0.00  0.00    +0.000 HD
BRANCH   2  11
ATOM     10  N   UNL     1      49.622   9.761  17.514  0.00  0.00    +0.000 N 
ATOM     11  C   UNL     1      49.404   8.413  17.456  0.00  0.00    +0.000 C 
ATOM     12  O   UNL     1      49.621   7.694  18.422  0.00  0.00    +0.000 OA
ATOM     13  H   UNL     1      49.895  10.131  18.417  0.00  0.00    +0.000 HD
ATOM     14  H   UNL     1      49.231  10.407  16.845  0.00  0.00    +0.000 HD
ENDBRANCH   2  11
ENDBRANCH   1   6
BRANCH   1  15
ATOM     15  C   UNL     1      45.322   6.330  11.497  0.00  0.00    +0.000 C 
ATOM     16  F   UNL     1      44.800   6.185  12.752  0.00  0.00    +0.000 F 
ATOM     17  F   UNL     1      44.696   7.424  10.970  0.00  0.00    +0.000 F 
BRANCH  15  18
ATOM     18  C   UNL     1      45.116   5.090  10.646  0.00  0.00    +0.000 A 
ATOM     19  C   UNL     1      44.315   4.033  11.097  0.00  0.00    +0.000 A 
ATOM     20  C   UNL     1      44.086   2.924  10.278  0.00  0.00    +0.000 A 
ATOM     21  C   UNL     1      44.659   2.854   9.006  0.00  0.00    +0.000 A 
ATOM     22  C   UNL     1      45.470   3.892   8.556  0.00  0.00    +0.000 A 
ATOM     23  C   UNL     1      45.692   5.006   9.370  0.00  0.00    +0.000 A 
BRANCH  22  24
ATOM     24  O   UNL     1      46.066   3.949   7.322  0.00  0.00    +0.000 OA
BRANCH  24  25
ATOM     25  C   UNL     1      46.353   2.716   6.626  0.00  0.00    +0.000 C 
ATOM     26  C   UNL     1      47.455   1.803   7.186  0.00  0.00    +0.000 C 
ATOM     27  O   UNL     1      48.179   1.823   5.933  0.00  0.00    +0.000 OA
ATOM     28  C   UNL     1      47.303   2.857   5.428  0.00  0.00    +0.000 C 
ENDBRANCH  24  25
ENDBRANCH  22  24
ENDBRANCH  15  18
ENDBRANCH   1  15
TORSDOF 6
ENDMDL
