MODEL 1
REMARK VINA RESULT:    -9.391      0.000      0.000
REMARK INTER + INTRA:         -11.973
REMARK INTER:                 -11.587
REMARK INTRA:                  -0.387
REMARK UNBOUND:                -0.387
REMARK  Name = 
REMARK  5 active torsions:
REMARK  status: ('A' for Active; 'I' for Inactive)
REMARK    1  A    between atoms: C_1  and  C_2
REMARK    2  A    between atoms: C_4  and  C_5
REMARK    3  A    between atoms: N_10  and  C_11
REMARK    4  A    between atoms: C_11  and  C_12
REMARK    5  A    between atoms: C_16  and  C_17
REMARK                            x       y       z     vdW  Elec       q    Type
REMARK                         _______ _______ _______ _____ _____    ______ ____
ROOT
ATOM      1  C   UNL     1      48.409   9.063  13.470  0.00  0.00    +0.000 C 
ATOM      2  C   UNL     1      47.542   7.852  13.319  0.00  0.00    +0.000 A 
ATOM      3  C   UNL     1      47.772   6.715  14.052  0.00  0.00    +0.000 A 
ATOM      4  C   UNL     1      46.904   5.675  13.804  0.00  0.00    +0.000 A 
ATOM      5  N   UNL     1      45.884   5.719  12.912  0.00  0.00    +0.000 NA
ATOM      6  C   UNL     1      45.750   6.864  12.240  0.00  0.00    +0.000 A 
ATOM      7  N   UNL     1      44.795   7.005  11.258  0.00  0.00    +0.000 N 
ATOM      8  N   UNL     1      46.536   7.933  12.421  0.00  0.00    +0.000 NA
ATOM      9  H   UNL     1      44.699   7.995  11.062  0.00  0.00    +0.000 HD
ENDROOT
BRANCH   4  10
ATOM     10  C   UNL     1      47.075   4.394  14.555  0.00  0.00    +0.000 C 
ATOM     11  N   UNL     1      47.040   4.495  15.918  0.00  0.00    +0.000 N 
ATOM     12  O   UNL     1      47.236   3.318  13.992  0.00  0.00    +0.000 OA
ATOM     13  H   UNL     1      46.841   5.390  16.353  0.00  0.00    +0.000 HD
ATOM     14  H   UNL     1      47.100   3.658  16.478  0.00  0.00    +0.000 HD
ENDBRANCH   4  10
BRANCH   7  15
ATOM     15  C   UNL     1      43.575   6.238  11.342  0.00  0.00    +0.000 C 
BRANCH  15  16
ATOM     16  C   UNL     1      43.782   4.818  10.895  0.00  0.00    +0.000 A 
ATOM     17  C   UNL     1      43.140   3.767  11.536  0.00  0.00    +0.000 A 
ATOM     18  N   UNL     1      43.279   2.472  11.185  0.00  0.00    +0.000 NA
ATOM     19  C   UNL     1      44.109   2.210  10.145  0.00  0.00    +0.000 A 
ATOM     20  C   UNL     1      44.815   3.169   9.413  0.00  0.00    +0.000 A 
ATOM     21  C   UNL     1      44.631   4.499   9.825  0.00  0.00    +0.000 A 
BRANCH  20  22
ATOM     22  C   UNL     1      45.698   2.806   8.281  0.00  0.00    +0.000 A 
ATOM     23  C   UNL     1      46.270   1.520   8.175  0.00  0.00    +0.000 A 
ATOM     24  C   UNL     1      47.113   1.183   7.110  0.00  0.00    +0.000 A 
ATOM     25  C   UNL     1      47.387   2.123   6.129  0.00  0.00    +0.000 A 
ATOM     26  F   UNL     1      48.190   1.800   5.108  0.00  0.00    +0.000 F 
ATOM     27  C   UNL     1      46.837   3.394   6.193  0.00  0.00    +0.000 A 
ATOM     28  C   UNL     1      46.004   3.734   7.264  0.00  0.00    +0.000 A 
ENDBRANCH  20  22
ENDBRANCH  15  16
ENDBRANCH   7  15
TORSDOF 4
ENDMDL
MODEL 2
REMARK VINA RESULT:    -8.916      1.663      2.062
REMARK INTER + INTRA:         -11.387
REMARK INTER:                 -10.773
REMARK INTRA:                  -0.614
REMARK UNBOUND:                -0.387
REMARK  Name = 
REMARK  5 active torsions:
REMARK  status: ('A' for Active; 'I' for Inactive)
REMARK    1  A    between atoms: C_1  and  C_2
REMARK    2  A    between atoms: C_4  and  C_5
REMARK    3  A    between atoms: N_10  and  C_11
REMARK    4  A    between atoms: C_11  and  C_12
REMARK    5  A    between atoms: C_16  and  C_17
REMARK                            x       y       z     vdW  Elec       q    Type
REMARK                         _______ _______ _______ _____ _____    ______ ____
ROOT
ATOM      1  C   UNL     1      50.016   7.280  15.092  0.00  0.00    +0.000 C 
ATOM      2  C   UNL     1      48.873   6.319  15.199  0.00  0.00    +0.000 A 
ATOM      3  C   UNL     1      48.686   5.556  16.323  0.00  0.00    +0.000 A 
ATOM      4  C   UNL     1      47.602   4.709  16.281  0.00  0.00    +0.000 A 
ATOM      5  N   UNL     1      46.752   4.597  15.230  0.00  0.00    +0.000 NA
ATOM      6  C   UNL     1      47.025   5.372  14.180  0.00  0.00    +0.000 A 
ATOM      7  N   UNL     1      46.275   5.298  13.026  0.00  0.00    +0.000 N 
ATOM      8  N   UNL     1      48.048   6.235  14.133  0.00  0.00    +0.000 NA
ATOM      9  H   UNL     1      46.482   6.120  12.471  0.00  0.00    +0.000 HD
ENDROOT
BRANCH   4  10
ATOM     10  C   UNL     1      47.317   3.837  17.461  0.00  0.00    +0.000 C 
ATOM     11  N   UNL     1      48.008   4.136  18.602  0.00  0.00    +0.000 N 
ATOM     12  O   UNL     1      46.514   2.912  17.418  0.00  0.00    +0.000 OA
ATOM     13  H   UNL     1      48.616   4.948  18.625  0.00  0.00    +0.000 HD
ATOM     14  H   UNL     1      47.821   3.614  19.445  0.00  0.00    +0.000 HD
ENDBRANCH   4  10
BRANCH   7  15
ATOM     15  C   UNL     1      44.889   4.901  13.107  0.00  0.00    +0.000 C 
BRANCH  15  16
ATOM     16  C   UNL     1      44.542   3.886  12.055  0.00  0.00    +0.000 A 
ATOM     17  C   UNL     1      43.472   3.017  12.227  0.00  0.00    +0.000 A 
ATOM     18  N   UNL     1      43.105   2.086  11.323  0.00  0.00    +0.000 NA
ATOM     19  C   UNL     1      43.849   2.011  10.192  0.00  0.00    +0.000 A 
ATOM     20  C   UNL     1      44.948   2.820   9.891  0.00  0.00    +0.000 A 
ATOM     21  C   UNL     1      45.283   3.770  10.870  0.00  0.00    +0.000 A 
BRANCH  20  22
ATOM     22  C   UNL     1      45.708   2.684   8.628  0.00  0.00    +0.000 A 
ATOM     23  C   UNL     1      46.273   1.452   8.236  0.00  0.00    +0.000 A 
ATOM     24  C   UNL     1      47.000   1.328   7.047  0.00  0.00    +0.000 A 
ATOM     25  C   UNL     1      47.162   2.432   6.226  0.00  0.00    +0.000 A 
ATOM     26  F   UNL     1      47.854   2.313   5.086  0.00  0.00    +0.000 F 
ATOM     27  C   UNL     1      46.615   3.658   6.571  0.00  0.00    +0.000 A 
ATOM     28  C   UNL     1      45.898   3.783   7.766  0.00  0.00    +0.000 A 
ENDBRANCH  20  22
ENDBRANCH  15  16
ENDBRANCH   7  15
TORSDOF 4
ENDMDL
MODEL 3
REMARK VINA RESULT:    -8.713      2.219      3.006
REMARK INTER + INTRA:         -11.137
REMARK INTER:                 -10.425
REMARK INTRA:                  -0.713
REMARK UNBOUND:                -0.387
REMARK  Name = 
REMARK  5 active torsions:
REMARK  status: ('A' for Active; 'I' for Inactive)
REMARK    1  A    between atoms: C_1  and  C_2
REMARK    2  A    between atoms: C_4  and  C_5
REMARK    3  A    between atoms: N_10  and  C_11
REMARK    4  A    between atoms: C_11  and  C_12
REMARK    5  A    between atoms: C_16  and  C_17
REMARK                            x       y       z     vdW  Elec       q    Type
REMARK                         _______ _______ _______ _____ _____    ______ ____
ROOT
ATOM      1  C   UNL     1      50.035   7.696  11.438  0.00  0.00    +0.000 C 
ATOM      2  C   UNL     1      48.595   7.811  11.836  0.00  0.00    +0.000 A 
ATOM      3  C   UNL     1      47.934   9.011  11.777  0.00  0.00    +0.000 A 
ATOM      4  C   UNL     1      46.619   8.973  12.182  0.00  0.00    +0.000 A 
ATOM      5  N   UNL     1      45.978   7.860  12.617  0.00  0.00    +0.000 NA
ATOM      6  C   UNL     1      46.711   6.746  12.650  0.00  0.00    +0.000 A 
ATOM      7  N   UNL     1      46.192   5.567  13.139  0.00  0.00    +0.000 N 
ATOM      8  N   UNL     1      47.991   6.681  12.264  0.00  0.00    +0.000 NA
ATOM      9  H   UNL     1      46.806   4.815  12.846  0.00  0.00    +0.000 HD
ENDROOT
BRANCH   4  10
ATOM     10  C   UNL     1      45.815  10.233  12.152  0.00  0.00    +0.000 C 
ATOM     11  N   UNL     1      44.498  10.106  12.500  0.00  0.00    +0.000 N 
ATOM     12  O   UNL     1      46.298  11.315  11.839  0.00  0.00    +0.000 OA
ATOM     13  H   UNL     1      44.144   9.210  12.817  0.00  0.00    +0.000 HD
ATOM     14  H   UNL     1      43.918  10.931  12.547  0.00  0.00    +0.000 HD
ENDBRANCH   4  10
BRANCH   7  15
ATOM     15  C   UNL     1      44.772   5.323  13.039  0.00  0.00    +0.000 C 
BRANCH  15  16
ATOM     16  C   UNL     1      44.470   4.211  12.074  0.00  0.00    +0.000 A 
ATOM     17  C   UNL     1      43.438   3.315  12.318  0.00  0.00    +0.000 A 
ATOM     18  N   UNL     1      43.111   2.298  11.495  0.00  0.00    +0.000 NA
ATOM     19  C   UNL     1      43.858   2.163  10.371  0.00  0.00    +0.000 A 
ATOM     20  C   UNL     1      44.922   2.992  10.002  0.00  0.00    +0.000 A 
ATOM     21  C   UNL     1      45.215   4.032  10.900  0.00  0.00    +0.000 A 
BRANCH  20  22
ATOM     22  C   UNL     1      45.687   2.786   8.751  0.00  0.00    +0.000 A 
ATOM     23  C   UNL     1      46.168   1.512   8.383  0.00  0.00    +0.000 A 
ATOM     24  C   UNL     1      46.901   1.321   7.206  0.00  0.00    +0.000 A 
ATOM     25  C   UNL     1      47.152   2.400   6.374  0.00  0.00    +0.000 A 
ATOM     26  F   UNL     1      47.850   2.219   5.246  0.00  0.00    +0.000 F 
ATOM     27  C   UNL     1      46.689   3.667   6.697  0.00  0.00    +0.000 A 
ATOM     28  C   UNL     1      45.967   3.858   7.880  0.00  0.00    +0.000 A 
ENDBRANCH  20  22
ENDBRANCH  15  16
ENDBRANCH   7  15
TORSDOF 4
ENDMDL
MODEL 4
REMARK VINA RESULT:    -8.583      1.644      2.035
REMARK INTER + INTRA:         -10.977
REMARK INTER:                 -10.222
REMARK INTRA:                  -0.756
REMARK UNBOUND:                -0.387
REMARK  Name = 
REMARK  5 active torsions:
REMARK  status: ('A' for Active; 'I' for Inactive)
REMARK    1  A    between atoms: C_1  and  C_2
REMARK    2  A    between atoms: C_4  and  C_5
REMARK    3  A    between atoms: N_10  and  C_11
REMARK    4  A    between atoms: C_11  and  C_12
REMARK    5  A    between atoms: C_16  and  C_17
REMARK                            x       y       z     vdW  Elec       q    Type
REMARK                         _______ _______ _______ _____ _____    ______ ____
ROOT
ATOM      1  C   UNL     1      46.462  11.037  11.456  0.00  0.00    +0.000 C 
ATOM      2  C   UNL     1      46.596   9.601  11.858  0.00  0.00    +0.000 A 
ATOM      3  C   UNL     1      47.795   9.091  12.289  0.00  0.00    +0.000 A 
ATOM      4  C   UNL     1      47.777   7.754  12.616  0.00  0.00    +0.000 A 
ATOM      5  N   UNL     1      46.685   6.956  12.534  0.00  0.00    +0.000 NA
ATOM      6  C   UNL     1      45.571   7.541  12.093  0.00  0.00    +0.000 A 
ATOM      7  N   UNL     1      44.414   6.818  11.900  0.00  0.00    +0.000 N 
ATOM      8  N   UNL     1      45.487   8.837  11.763  0.00  0.00    +0.000 NA
ATOM      9  H   UNL     1      43.650   7.477  11.811  0.00  0.00    +0.000 HD
ENDROOT
BRANCH   4  10
ATOM     10  C   UNL     1      49.037   7.109  13.097  0.00  0.00    +0.000 C 
ATOM     11  N   UNL     1      50.153   7.350  12.344  0.00  0.00    +0.000 N 
ATOM     12  O   UNL     1      49.076   6.408  14.101  0.00  0.00    +0.000 OA
ATOM     13  H   UNL     1      50.102   7.986  11.556  0.00  0.00    +0.000 HD
ATOM     14  H   UNL     1      51.043   6.982  12.647  0.00  0.00    +0.000 HD
ENDBRANCH   4  10
BRANCH   7  15
ATOM     15  C   UNL     1      44.170   5.646  12.707  0.00  0.00    +0.000 C 
BRANCH  15  16
ATOM     16  C   UNL     1      44.082   4.404  11.866  0.00  0.00    +0.000 A 
ATOM     17  C   UNL     1      43.197   3.384  12.189  0.00  0.00    +0.000 A 
ATOM     18  N   UNL     1      43.065   2.246  11.476  0.00  0.00    +0.000 NA
ATOM     19  C   UNL     1      43.865   2.114  10.389  0.00  0.00    +0.000 A 
ATOM     20  C   UNL     1      44.797   3.060   9.951  0.00  0.00    +0.000 A 
ATOM     21  C   UNL     1      44.889   4.223  10.733  0.00  0.00    +0.000 A 
BRANCH  20  22
ATOM     22  C   UNL     1      45.630   2.848   8.745  0.00  0.00    +0.000 A 
ATOM     23  C   UNL     1      46.104   1.567   8.392  0.00  0.00    +0.000 A 
ATOM     24  C   UNL     1      46.900   1.371   7.258  0.00  0.00    +0.000 A 
ATOM     25  C   UNL     1      47.224   2.452   6.454  0.00  0.00    +0.000 A 
ATOM     26  F   UNL     1      47.983   2.265   5.367  0.00  0.00    +0.000 F 
ATOM     27  C   UNL     1      46.771   3.726   6.762  0.00  0.00    +0.000 A 
ATOM     28  C   UNL     1      45.984   3.922   7.903  0.00  0.00    +0.000 A 
ENDBRANCH  20  22
ENDBRANCH  15  16
ENDBRANCH   7  15
TORSDOF 4
ENDMDL
MODEL 5
REMARK VINA RESULT:    -8.421      2.686      4.016
REMARK INTER + INTRA:         -10.776
REMARK INTER:                 -10.258
REMARK INTRA:                  -0.518
REMARK UNBOUND:                -0.387
REMARK  Name = 
REMARK  5 active torsions:
REMARK  status: ('A' for Active; 'I' for Inactive)
REMARK    1  A    between atoms: C_1  and  C_2
REMARK    2  A    between atoms: C_4  and  C_5
REMARK    3  A    between atoms: N_10  and  C_11
REMARK    4  A    between atoms: C_11  and  C_12
REMARK    5  A    between atoms: C_16  and  C_17
REMARK                            x       y       z     vdW  Elec       q    Type
REMARK                         _______ _______ _______ _____ _____    ______ ____
ROOT
ATOM      1  C   UNL     1      50.398   1.725  17.011  0.00  0.00    +0.000 C 
ATOM      2  C   UNL     1      49.284   2.725  16.985  0.00  0.00    +0.000 A 
ATOM      3  C   UNL     1      49.022   3.528  18.066  0.00  0.00    +0.000 A 
ATOM      4  C   UNL     1      47.963   4.394  17.907  0.00  0.00    +0.000 A 
ATOM      5  N   UNL     1      47.203   4.485  16.788  0.00  0.00    +0.000 NA
ATOM      6  C   UNL     1      47.530   3.653  15.797  0.00  0.00    +0.000 A 
ATOM      7  N   UNL     1      46.788   3.603  14.637  0.00  0.00    +0.000 N 
ATOM      8  N   UNL     1      48.549   2.787  15.854  0.00  0.00    +0.000 NA
ATOM      9  H   UNL     1      47.337   3.110  13.942  0.00  0.00    +0.000 HD
ENDROOT
BRANCH   4  10
ATOM     10  C   UNL     1      47.602   5.310  19.032  0.00  0.00    +0.000 C 
ATOM     11  N   UNL     1      46.350   5.858  18.973  0.00  0.00    +0.000 N 
ATOM     12  O   UNL     1      48.372   5.558  19.952  0.00  0.00    +0.000 OA
ATOM     13  H   UNL     1      45.713   5.583  18.233  0.00  0.00    +0.000 HD
ATOM     14  H   UNL     1      46.031   6.445  19.730  0.00  0.00    +0.000 HD
ENDBRANCH   4  10
BRANCH   7  15
ATOM     15  C   UNL     1      46.087   4.785  14.193  0.00  0.00    +0.000 C 
BRANCH  15  16
ATOM     16  C   UNL     1      45.202   4.492  13.014  0.00  0.00    +0.000 A 
ATOM     17  C   UNL     1      43.823   4.617  13.109  0.00  0.00    +0.000 A 
ATOM     18  N   UNL     1      42.972   4.374  12.091  0.00  0.00    +0.000 NA
ATOM     19  C   UNL     1      43.526   3.977  10.918  0.00  0.00    +0.000 A 
ATOM     20  C   UNL     1      44.894   3.811  10.685  0.00  0.00    +0.000 A 
ATOM     21  C   UNL     1      45.729   4.078  11.783  0.00  0.00    +0.000 A 
BRANCH  20  22
ATOM     22  C   UNL     1      45.426   3.381   9.372  0.00  0.00    +0.000 A 
ATOM     23  C   UNL     1      45.590   2.016   9.053  0.00  0.00    +0.000 A 
ATOM     24  C   UNL     1      46.102   1.612   7.816  0.00  0.00    +0.000 A 
ATOM     25  C   UNL     1      46.447   2.568   6.873  0.00  0.00    +0.000 A 
ATOM     26  F   UNL     1      46.934   2.183   5.687  0.00  0.00    +0.000 F 
ATOM     27  C   UNL     1      46.292   3.919   7.144  0.00  0.00    +0.000 A 
ATOM     28  C   UNL     1      45.790   4.321   8.387  0.00  0.00    +0.000 A 
ENDBRANCH  20  22
ENDBRANCH  15  16
ENDBRANCH   7  15
TORSDOF 4
ENDMDL
MODEL 6
REMARK VINA RESULT:    -7.927      1.839      2.438
REMARK INTER + INTRA:         -10.168
REMARK INTER:                  -9.522
REMARK INTRA:                  -0.646
REMARK UNBOUND:                -0.387
REMARK  Name = 
REMARK  5 active torsions:
REMARK  status: ('A' for Active; 'I' for Inactive)
REMARK    1  A    between atoms: C_1  and  C_2
REMARK    2  A    between atoms: C_4  and  C_5
REMARK    3  A    between atoms: N_10  and  C_11
REMARK    4  A    between atoms: C_11  and  C_12
REMARK    5  A    between atoms: C_16  and  C_17
REMARK                            x       y       z     vdW  Elec       q    Type
REMARK                         _______ _______ _______ _____ _____    ______ ____
ROOT
ATOM      1  C   UNL     1      51.325   8.826  13.006  0.00  0.00    +0.000 C 
ATOM      2  C   UNL     1      50.135   8.068  13.508  0.00  0.00    +0.000 A 
ATOM      3  C   UNL     1      50.165   7.412  14.713  0.00  0.00    +0.000 A 
ATOM      4  C   UNL     1      49.005   6.748  15.044  0.00  0.00    +0.000 A 
ATOM      5  N   UNL     1      47.891   6.711  14.273  0.00  0.00    +0.000 NA
ATOM      6  C   UNL     1      47.966   7.368  13.115  0.00  0.00    +0.000 A 
ATOM      7  N   UNL     1      46.923   7.345  12.215  0.00  0.00    +0.000 N 
ATOM      8  N   UNL     1      49.044   8.053  12.713  0.00  0.00    +0.000 NA
ATOM      9  H   UNL     1      47.079   8.089  11.544  0.00  0.00    +0.000 HD
ENDROOT
BRANCH   4  10
ATOM     10  C   UNL     1      48.942   6.005  16.340  0.00  0.00    +0.000 C 
ATOM     11  N   UNL     1      47.885   6.314  17.151  0.00  0.00    +0.000 N 
ATOM     12  O   UNL     1      49.778   5.169  16.661  0.00  0.00    +0.000 OA
ATOM     13  H   UNL     1      47.175   6.962  16.829  0.00  0.00    +0.000 HD
ATOM     14  H   UNL     1      47.762   5.809  18.017  0.00  0.00    +0.000 HD
ENDBRANCH   4  10
BRANCH   7  15
ATOM     15  C   UNL     1      45.573   7.180  12.700  0.00  0.00    +0.000 C 
BRANCH  15  16
ATOM     16  C   UNL     1      44.855   6.080  11.970  0.00  0.00    +0.000 A 
ATOM     17  C   UNL     1      43.550   5.737  12.301  0.00  0.00    +0.000 A 
ATOM     18  N   UNL     1      42.847   4.764  11.687  0.00  0.00    +0.000 NA
ATOM     19  C   UNL     1      43.482   4.091  10.694  0.00  0.00    +0.000 A 
ATOM     20  C   UNL     1      44.788   4.332  10.260  0.00  0.00    +0.000 A 
ATOM     21  C   UNL     1      45.469   5.356  10.938  0.00  0.00    +0.000 A 
BRANCH  20  22
ATOM     22  C   UNL     1      45.411   3.560   9.160  0.00  0.00    +0.000 A 
ATOM     23  C   UNL     1      46.004   4.202   8.053  0.00  0.00    +0.000 A 
ATOM     24  C   UNL     1      46.583   3.471   7.010  0.00  0.00    +0.000 A 
ATOM     25  C   UNL     1      46.587   2.086   7.065  0.00  0.00    +0.000 A 
ATOM     26  F   UNL     1      47.143   1.386   6.069  0.00  0.00    +0.000 F 
ATOM     27  C   UNL     1      46.022   1.418   8.141  0.00  0.00    +0.000 A 
ATOM     28  C   UNL     1      45.433   2.151   9.177  0.00  0.00    +0.000 A 
ENDBRANCH  20  22
ENDBRANCH  15  16
ENDBRANCH   7  15
TORSDOF 4
ENDMDL
MODEL 7
REMARK VINA RESULT:    -7.861      2.064      3.134
REMARK INTER + INTRA:         -10.085
REMARK INTER:                  -9.559
REMARK INTRA:                  -0.527
REMARK UNBOUND:                -0.387
REMARK  Name = 
REMARK  5 active torsions:
REMARK  status: ('A' for Active; 'I' for Inactive)
REMARK    1  A    between atoms: C_1  and  C_2
REMARK    2  A    between atoms: C_4  and  C_5
REMARK    3  A    between atoms: N_10  and  C_11
REMARK    4  A    between atoms: C_11  and  C_12
REMARK    5  A    between atoms: C_16  and  C_17
REMARK                            x       y       z     vdW  Elec       q    Type
REMARK                         _______ _______ _______ _____ _____    ______ ____
ROOT
ATOM      1  C   UNL     1      48.357   2.887  17.705  0.00  0.00    +0.000 C 
ATOM      2  C   UNL     1      48.099   3.983  16.717  0.00  0.00    +0.000 A 
ATOM      3  C   UNL     1      48.909   5.087  16.650  0.00  0.00    +0.000 A 
ATOM      4  C   UNL     1      48.549   6.019  15.703  0.00  0.00    +0.000 A 
ATOM      5  N   UNL     1      47.481   5.903  14.875  0.00  0.00    +0.000 NA
ATOM      6  C   UNL     1      46.748   4.799  15.027  0.00  0.00    +0.000 A 
ATOM      7  N   UNL     1      45.599   4.602  14.292  0.00  0.00    +0.000 N 
ATOM      8  N   UNL     1      47.027   3.832  15.910  0.00  0.00    +0.000 NA
ATOM      9  H   UNL     1      45.347   3.623  14.373  0.00  0.00    +0.000 HD
ENDROOT
BRANCH   4  10
ATOM     10  C   UNL     1      49.373   7.257  15.555  0.00  0.00    +0.000 C 
ATOM     11  N   UNL     1      50.644   7.073  15.085  0.00  0.00    +0.000 N 
ATOM     12  O   UNL     1      48.944   8.371  15.832  0.00  0.00    +0.000 OA
ATOM     13  H   UNL     1      50.948   6.147  14.804  0.00  0.00    +0.000 HD
ATOM     14  H   UNL     1      51.231   7.877  14.917  0.00  0.00    +0.000 HD
ENDBRANCH   4  10
BRANCH   7  15
ATOM     15  C   UNL     1      45.487   5.195  12.981  0.00  0.00    +0.000 C 
BRANCH  15  16
ATOM     16  C   UNL     1      44.965   4.211  11.972  0.00  0.00    +0.000 A 
ATOM     17  C   UNL     1      43.788   3.511  12.200  0.00  0.00    +0.000 A 
ATOM     18  N   UNL     1      43.263   2.617  11.337  0.00  0.00    +0.000 NA
ATOM     19  C   UNL     1      43.953   2.404  10.189  0.00  0.00    +0.000 A 
ATOM     20  C   UNL     1      45.146   3.038   9.833  0.00  0.00    +0.000 A 
ATOM     21  C   UNL     1      45.644   3.957  10.772  0.00  0.00    +0.000 A 
BRANCH  20  22
ATOM     22  C   UNL     1      45.839   2.758   8.554  0.00  0.00    +0.000 A 
ATOM     23  C   UNL     1      46.283   1.460   8.225  0.00  0.00    +0.000 A 
ATOM     24  C   UNL     1      46.947   1.200   7.021  0.00  0.00    +0.000 A 
ATOM     25  C   UNL     1      47.165   2.232   6.123  0.00  0.00    +0.000 A 
ATOM     26  F   UNL     1      47.796   1.984   4.969  0.00  0.00    +0.000 F 
ATOM     27  C   UNL     1      46.735   3.521   6.406  0.00  0.00    +0.000 A 
ATOM     28  C   UNL     1      46.082   3.781   7.615  0.00  0.00    +0.000 A 
ENDBRANCH  20  22
ENDBRANCH  15  16
ENDBRANCH   7  15
TORSDOF 4
ENDMDL
MODEL 8
REMARK VINA RESULT:    -7.818      2.917      5.263
REMARK INTER + INTRA:         -10.033
REMARK INTER:                  -9.285
REMARK INTRA:                  -0.748
REMARK UNBOUND:                -0.387
REMARK  Name = 
REMARK  5 active torsions:
REMARK  status: ('A' for Active; 'I' for Inactive)
REMARK    1  A    between atoms: C_1  and  C_2
REMARK    2  A    between atoms: C_4  and  C_5
REMARK    3  A    between atoms: N_10  and  C_11
REMARK    4  A    between atoms: C_11  and  C_12
REMARK    5  A    between atoms: C_16  and  C_17
REMARK                            x       y       z     vdW  Elec       q    Type
REMARK                         _______ _______ _______ _____ _____    ______ ____
ROOT
ATOM      1  C   UNL     1      47.332   5.938  19.992  0.00  0.00    +0.000 C 
ATOM      2  C   UNL     1      48.036   5.533  18.733  0.00  0.00    +0.000 A 
ATOM      3  C   UNL     1      48.433   4.237  18.525  0.00  0.00    +0.000 A 
ATOM      4  C   UNL     1      49.077   4.009  17.330  0.00  0.00    +0.000 A 
ATOM      5  N   UNL     1      49.328   4.959  16.396  0.00  0.00    +0.000 NA
ATOM      6  C   UNL     1      48.914   6.191  16.697  0.00  0.00    +0.000 A 
ATOM      7  N   UNL     1      49.174   7.254  15.860  0.00  0.00    +0.000 N 
ATOM      8  N   UNL     1      48.268   6.507  17.827  0.00  0.00    +0.000 NA
ATOM      9  H   UNL     1      48.573   8.020  16.141  0.00  0.00    +0.000 HD
ENDROOT
BRANCH   4  10
ATOM     10  C   UNL     1      49.547   2.625  17.012  0.00  0.00    +0.000 C 
ATOM     11  N   UNL     1      50.509   2.119  17.842  0.00  0.00    +0.000 N 
ATOM     12  O   UNL     1      49.102   1.979  16.071  0.00  0.00    +0.000 OA
ATOM     13  H   UNL     1      50.811   2.653  18.649  0.00  0.00    +0.000 HD
ATOM     14  H   UNL     1      50.830   1.172  17.707  0.00  0.00    +0.000 HD
ENDBRANCH   4  10
BRANCH   7  15
ATOM     15  C   UNL     1      49.310   7.020  14.441  0.00  0.00    +0.000 C 
BRANCH  15  16
ATOM     16  C   UNL     1      47.999   7.187  13.726  0.00  0.00    +0.000 A 
ATOM     17  C   UNL     1      47.251   8.349  13.867  0.00  0.00    +0.000 A 
ATOM     18  N   UNL     1      46.070   8.565  13.253  0.00  0.00    +0.000 NA
ATOM     19  C   UNL     1      45.606   7.565  12.462  0.00  0.00    +0.000 A 
ATOM     20  C   UNL     1      46.253   6.349  12.231  0.00  0.00    +0.000 A 
ATOM     21  C   UNL     1      47.478   6.182  12.899  0.00  0.00    +0.000 A 
BRANCH  20  22
ATOM     22  C   UNL     1      45.686   5.307  11.345  0.00  0.00    +0.000 A 
ATOM     23  C   UNL     1      45.133   4.117  11.865  0.00  0.00    +0.000 A 
ATOM     24  C   UNL     1      44.608   3.129  11.026  0.00  0.00    +0.000 A 
ATOM     25  C   UNL     1      44.617   3.322   9.653  0.00  0.00    +0.000 A 
ATOM     26  F   UNL     1      44.111   2.379   8.849  0.00  0.00    +0.000 F 
ATOM     27  C   UNL     1      45.143   4.481   9.103  0.00  0.00    +0.000 A 
ATOM     28  C   UNL     1      45.679   5.463   9.944  0.00  0.00    +0.000 A 
ENDBRANCH  20  22
ENDBRANCH  15  16
ENDBRANCH   7  15
TORSDOF 4
ENDMDL
MODEL 9
REMARK VINA RESULT:    -7.494      3.523      7.327
REMARK INTER + INTRA:          -9.633
REMARK INTER:                  -8.815
REMARK INTRA:                  -0.818
REMARK UNBOUND:                -0.387
REMARK  Name = 
REMARK  5 active torsions:
REMARK  status: ('A' for Active; 'I' for Inactive)
REMARK    1  A    between atoms: C_1  and  C_2
REMARK    2  A    between atoms: C_4  and  C_5
REMARK    3  A    between atoms: N_10  and  C_11
REMARK    4  A    between atoms: C_11  and  C_12
REMARK    5  A    between atoms: C_16  and  C_17
REMARK                            x       y       z     vdW  Elec       q    Type
REMARK                         _______ _______ _______ _____ _____    ______ ____
ROOT
ATOM      1  C   UNL     1      46.087   2.960   7.546  0.00  0.00    +0.000 C 
ATOM      2  C   UNL     1      45.466   3.510   8.793  0.00  0.00    +0.000 A 
ATOM      3  C   UNL     1      44.734   2.712   9.635  0.00  0.00    +0.000 A 
ATOM      4  C   UNL     1      44.213   3.352  10.737  0.00  0.00    +0.000 A 
ATOM      5  N   UNL     1      44.379   4.668  11.014  0.00  0.00    +0.000 NA
ATOM      6  C   UNL     1      45.096   5.361  10.128  0.00  0.00    +0.000 A 
ATOM      7  N   UNL     1      45.274   6.720  10.264  0.00  0.00    +0.000 N 
ATOM      8  N   UNL     1      45.653   4.825   9.035  0.00  0.00    +0.000 NA
ATOM      9  H   UNL     1      46.034   6.994   9.650  0.00  0.00    +0.000 HD
ENDROOT
BRANCH   4  10
ATOM     10  C   UNL     1      43.400   2.565  11.715  0.00  0.00    +0.000 C 
ATOM     11  N   UNL     1      43.414   3.021  13.003  0.00  0.00    +0.000 N 
ATOM     12  O   UNL     1      42.758   1.573  11.389  0.00  0.00    +0.000 OA
ATOM     13  H   UNL     1      43.902   3.881  13.228  0.00  0.00    +0.000 HD
ATOM     14  H   UNL     1      42.845   2.560  13.698  0.00  0.00    +0.000 HD
ENDBRANCH   4  10
BRANCH   7  15
ATOM     15  C   UNL     1      45.262   7.308  11.583  0.00  0.00    +0.000 C 
BRANCH  15  16
ATOM     16  C   UNL     1      46.576   7.112  12.287  0.00  0.00    +0.000 A 
ATOM     17  C   UNL     1      47.752   7.630  11.761  0.00  0.00    +0.000 A 
ATOM     18  N   UNL     1      48.962   7.494  12.341  0.00  0.00    +0.000 NA
ATOM     19  C   UNL     1      49.002   6.798  13.505  0.00  0.00    +0.000 A 
ATOM     20  C   UNL     1      47.899   6.225  14.143  0.00  0.00    +0.000 A 
ATOM     21  C   UNL     1      46.667   6.399  13.491  0.00  0.00    +0.000 A 
BRANCH  20  22
ATOM     22  C   UNL     1      48.021   5.485  15.420  0.00  0.00    +0.000 A 
ATOM     23  C   UNL     1      47.182   4.391  15.721  0.00  0.00    +0.000 A 
ATOM     24  C   UNL     1      47.291   3.700  16.933  0.00  0.00    +0.000 A 
ATOM     25  C   UNL     1      48.250   4.084  17.856  0.00  0.00    +0.000 A 
ATOM     26  F   UNL     1      48.359   3.421  19.014  0.00  0.00    +0.000 F 
ATOM     27  C   UNL     1      49.100   5.149  17.594  0.00  0.00    +0.000 A 
ATOM     28  C   UNL     1      48.981   5.846  16.387  0.00  0.00    +0.000 A 
ENDBRANCH  20  22
ENDBRANCH  15  16
ENDBRANCH   7  15
TORSDOF 4
ENDMDL
