MODEL 1
REMARK VINA RESULT:    -9.434      0.000      0.000
REMARK INTER + INTRA:         -14.528
REMARK INTER:                 -13.295
REMARK INTRA:                  -1.233
REMARK UNBOUND:                -1.233
REMARK  Name = 
REMARK  7 active torsions:
REMARK  status: ('A' for Active; 'I' for Inactive)
REMARK    1  A    between atoms: C_2  and  C_4
REMARK    2  A    between atoms: C_7  and  N_8
REMARK    3  A    between atoms: N_8  and  C_9
REMARK    4  A    between atoms: C_9  and  C_10
REMARK    5  A    between atoms: C_10  and  C_13
REMARK    6  A    between atoms: C_15  and  C_16
REMARK    7  A    between atoms: C_19  and  C_20
REMARK                            x       y       z     vdW  Elec       q    Type
REMARK                         _______ _______ _______ _____ _____    ______ ____
ROOT
ATOM      1  C   UNL     1      43.286   5.452  12.077  0.00  0.00    +0.000 C 
ATOM      2  F   UNL     1      42.588   6.575  11.723  0.00  0.00    +0.000 F 
ATOM      3  F   UNL     1      42.687   5.016  13.232  0.00  0.00    +0.000 F 
ENDROOT
BRANCH   1   4
ATOM      4  C   UNL     1      44.765   5.757  12.293  0.00  0.00    +0.000 A 
ATOM      5  C   UNL     1      45.381   5.290  13.453  0.00  0.00    +0.000 A 
ATOM      6  C   UNL     1      46.743   5.541  13.680  0.00  0.00    +0.000 A 
ATOM      7  C   UNL     1      47.425   6.295  12.718  0.00  0.00    +0.000 A 
ATOM      8  C   UNL     1      46.750   6.728  11.592  0.00  0.00    +0.000 A 
ATOM      9  N   UNL     1      45.449   6.468  11.356  0.00  0.00    +0.000 NA
BRANCH   6  10
ATOM     10  C   UNL     1      47.438   5.038  14.879  0.00  0.00    +0.000 A 
ATOM     11  C   UNL     1      48.223   5.853  15.692  0.00  0.00    +0.000 A 
ATOM     12  C   UNL     1      48.860   5.301  16.802  0.00  0.00    +0.000 A 
ATOM     13  C   UNL     1      48.700   3.946  17.090  0.00  0.00    +0.000 A 
ATOM     14  C   UNL     1      47.891   3.208  16.241  0.00  0.00    +0.000 A 
ATOM     15  N   UNL     1      47.258   3.721  15.159  0.00  0.00    +0.000 NA
BRANCH  13  16
ATOM     16  C   UNL     1      49.360   3.285  18.257  0.00  0.00    +0.000 C 
ATOM     17  F   UNL     1      50.139   4.131  18.988  0.00  0.00    +0.000 F 
ATOM     18  F   UNL     1      48.464   2.756  19.132  0.00  0.00    +0.000 F 
ATOM     19  F   UNL     1      50.173   2.259  17.885  0.00  0.00    +0.000 F 
ENDBRANCH  13  16
ENDBRANCH   6  10
ENDBRANCH   1   4
BRANCH   1  20
ATOM     20  C   UNL     1      43.093   4.369  10.996  0.00  0.00    +0.000 C 
BRANCH  20  21
ATOM     21  N   UNL     1      43.614   4.736   9.663  0.00  0.00    +0.000 N 
ATOM     22  H   UNL     1      42.902   5.042   9.003  0.00  0.00    +0.000 HD
BRANCH  21  26
ATOM     23  C   UNL     1      46.453   2.231   7.797  0.00  0.00    +0.000 A 
ATOM     24  C   UNL     1      46.485   3.604   7.555  0.00  0.00    +0.000 A 
ATOM     25  C   UNL     1      45.563   4.444   8.184  0.00  0.00    +0.000 A 
ATOM     26  C   UNL     1      44.611   3.946   9.085  0.00  0.00    +0.000 A 
ATOM     27  C   UNL     1      44.577   2.560   9.294  0.00  0.00    +0.000 A 
ATOM     28  C   UNL     1      45.486   1.707   8.657  0.00  0.00    +0.000 A 
BRANCH  23  30
ATOM     29  N   UNL     1      48.460   1.877   6.468  0.00  0.00    +0.000 N 
ATOM     30  C   UNL     1      47.401   1.309   7.121  0.00  0.00    +0.000 C 
ATOM     31  O   UNL     1      47.265   0.093   7.166  0.00  0.00    +0.000 OA
ATOM     32  H   UNL     1      49.150   1.243   6.088  0.00  0.00    +0.000 HD
ATOM     33  H   UNL     1      48.737   2.837   6.618  0.00  0.00    +0.000 HD
ENDBRANCH  23  30
ENDBRANCH  21  26
ENDBRANCH  20  21
ENDBRANCH   1  20
TORSDOF 7
ENDMDL
MODEL 2
REMARK VINA RESULT:    -9.338      0.672      1.321
REMARK INTER + INTRA:         -14.393
REMARK INTER:                 -13.155
REMARK INTRA:                  -1.238
REMARK UNBOUND:                -1.233
REMARK  Name = 
REMARK  7 active torsions:
REMARK  status: ('A' for Active; 'I' for Inactive)
REMARK    1  A    between atoms: C_2  and  C_4
REMARK    2  A    between atoms: C_7  and  N_8
REMARK    3  A    between atoms: N_8  and  C_9
REMARK    4  A    between atoms: C_9  and  C_10
REMARK    5  A    between atoms: C_10  and  C_13
REMARK    6  A    between atoms: C_15  and  C_16
REMARK    7  A    between atoms: C_19  and  C_20
REMARK                            x       y       z     vdW  Elec       q    Type
REMARK                         _______ _______ _______ _____ _____    ______ ____
ROOT
ATOM      1  C   UNL     1      43.412   5.780  11.936  0.00  0.00    +0.000 C 
ATOM      2  F   UNL     1      42.821   6.919  11.463  0.00  0.00    +0.000 F 
ATOM      3  F   UNL     1      42.747   5.496  13.102  0.00  0.00    +0.000 F 
ENDROOT
BRANCH   1   4
ATOM      4  C   UNL     1      44.906   5.983  12.179  0.00  0.00    +0.000 A 
ATOM      5  C   UNL     1      45.459   5.512  13.369  0.00  0.00    +0.000 A 
ATOM      6  C   UNL     1      46.830   5.670  13.621  0.00  0.00    +0.000 A 
ATOM      7  C   UNL     1      47.588   6.339  12.653  0.00  0.00    +0.000 A 
ATOM      8  C   UNL     1      46.972   6.781  11.497  0.00  0.00    +0.000 A 
ATOM      9  N   UNL     1      45.660   6.609  11.237  0.00  0.00    +0.000 NA
BRANCH   6  10
ATOM     10  C   UNL     1      47.459   5.159  14.853  0.00  0.00    +0.000 A 
ATOM     11  C   UNL     1      48.279   5.944  15.661  0.00  0.00    +0.000 A 
ATOM     12  C   UNL     1      48.849   5.385  16.804  0.00  0.00    +0.000 A 
ATOM     13  C   UNL     1      48.588   4.055  17.129  0.00  0.00    +0.000 A 
ATOM     14  C   UNL     1      47.750   3.347  16.282  0.00  0.00    +0.000 A 
ATOM     15  N   UNL     1      47.181   3.867  15.168  0.00  0.00    +0.000 NA
BRANCH  13  16
ATOM     16  C   UNL     1      49.171   3.387  18.333  0.00  0.00    +0.000 C 
ATOM     17  F   UNL     1      48.277   2.610  19.006  0.00  0.00    +0.000 F 
ATOM     18  F   UNL     1      50.214   2.572  18.023  0.00  0.00    +0.000 F 
ATOM     19  F   UNL     1      49.649   4.279  19.244  0.00  0.00    +0.000 F 
ENDBRANCH  13  16
ENDBRANCH   6  10
ENDBRANCH   1   4
BRANCH   1  20
ATOM     20  C   UNL     1      43.162   4.625  10.946  0.00  0.00    +0.000 C 
BRANCH  20  21
ATOM     21  N   UNL     1      43.705   4.852   9.591  0.00  0.00    +0.000 N 
ATOM     22  H   UNL     1      43.056   5.303   8.948  0.00  0.00    +0.000 HD
BRANCH  21  26
ATOM     23  C   UNL     1      46.241   1.938   7.891  0.00  0.00    +0.000 A 
ATOM     24  C   UNL     1      45.262   1.548   8.804  0.00  0.00    +0.000 A 
ATOM     25  C   UNL     1      44.404   2.502   9.357  0.00  0.00    +0.000 A 
ATOM     26  C   UNL     1      44.481   3.854   8.996  0.00  0.00    +0.000 A 
ATOM     27  C   UNL     1      45.489   4.231   8.098  0.00  0.00    +0.000 A 
ATOM     28  C   UNL     1      46.364   3.286   7.550  0.00  0.00    +0.000 A 
BRANCH  23  30
ATOM     29  N   UNL     1      46.933  -0.370   7.554  0.00  0.00    +0.000 N 
ATOM     30  C   UNL     1      47.187   0.951   7.310  0.00  0.00    +0.000 C 
ATOM     31  O   UNL     1      48.135   1.295   6.617  0.00  0.00    +0.000 OA
ATOM     32  H   UNL     1      47.526  -1.040   7.082  0.00  0.00    +0.000 HD
ATOM     33  H   UNL     1      46.042  -0.696   7.901  0.00  0.00    +0.000 HD
ENDBRANCH  23  30
ENDBRANCH  21  26
ENDBRANCH  20  21
ENDBRANCH   1  20
TORSDOF 7
ENDMDL
MODEL 3
REMARK VINA RESULT:    -8.550      2.601      3.383
REMARK INTER + INTRA:         -13.282
REMARK INTER:                 -11.977
REMARK INTRA:                  -1.305
REMARK UNBOUND:                -1.233
REMARK  Name = 
REMARK  7 active torsions:
REMARK  status: ('A' for Active; 'I' for Inactive)
REMARK    1  A    between atoms: C_2  and  C_4
REMARK    2  A    between atoms: C_7  and  N_8
REMARK    3  A    between atoms: N_8  and  C_9
REMARK    4  A    between atoms: C_9  and  C_10
REMARK    5  A    between atoms: C_10  and  C_13
REMARK    6  A    between atoms: C_15  and  C_16
REMARK    7  A    between atoms: C_19  and  C_20
REMARK                            x       y       z     vdW  Elec       q    Type
REMARK                         _______ _______ _______ _____ _____    ______ ____
ROOT
ATOM      1  C   UNL     1      43.937   4.738  12.435  0.00  0.00    +0.000 C 
ATOM      2  F   UNL     1      43.082   4.744  13.504  0.00  0.00    +0.000 F 
ATOM      3  F   UNL     1      44.811   3.712  12.690  0.00  0.00    +0.000 F 
ENDROOT
BRANCH   1   4
ATOM      4  C   UNL     1      44.665   6.072  12.292  0.00  0.00    +0.000 A 
ATOM      5  C   UNL     1      45.945   6.196  12.829  0.00  0.00    +0.000 A 
ATOM      6  C   UNL     1      46.649   7.403  12.706  0.00  0.00    +0.000 A 
ATOM      7  C   UNL     1      45.999   8.462  12.060  0.00  0.00    +0.000 A 
ATOM      8  C   UNL     1      44.727   8.269  11.554  0.00  0.00    +0.000 A 
ATOM      9  N   UNL     1      44.056   7.103  11.646  0.00  0.00    +0.000 NA
BRANCH   6  10
ATOM     10  C   UNL     1      48.017   7.564  13.232  0.00  0.00    +0.000 A 
ATOM     11  C   UNL     1      49.054   8.111  12.479  0.00  0.00    +0.000 A 
ATOM     12  C   UNL     1      50.325   8.218  13.042  0.00  0.00    +0.000 A 
ATOM     13  C   UNL     1      50.542   7.784  14.349  0.00  0.00    +0.000 A 
ATOM     14  C   UNL     1      49.455   7.267  15.035  0.00  0.00    +0.000 A 
ATOM     15  N   UNL     1      48.210   7.155  14.513  0.00  0.00    +0.000 NA
BRANCH  13  16
ATOM     16  C   UNL     1      51.879   7.860  15.014  0.00  0.00    +0.000 C 
ATOM     17  F   UNL     1      52.916   7.937  14.133  0.00  0.00    +0.000 F 
ATOM     18  F   UNL     1      51.998   8.944  15.825  0.00  0.00    +0.000 F 
ATOM     19  F   UNL     1      52.135   6.775  15.796  0.00  0.00    +0.000 F 
ENDBRANCH  13  16
ENDBRANCH   6  10
ENDBRANCH   1   4
BRANCH   1  20
ATOM     20  C   UNL     1      43.151   4.393  11.154  0.00  0.00    +0.000 C 
BRANCH  20  21
ATOM     21  N   UNL     1      43.785   4.858   9.904  0.00  0.00    +0.000 N 
ATOM     22  H   UNL     1      43.192   5.453   9.327  0.00  0.00    +0.000 HD
BRANCH  21  26
ATOM     23  C   UNL     1      46.335   2.254   7.775  0.00  0.00    +0.000 A 
ATOM     24  C   UNL     1      45.432   1.728   8.697  0.00  0.00    +0.000 A 
ATOM     25  C   UNL     1      44.569   2.579   9.392  0.00  0.00    +0.000 A 
ATOM     26  C   UNL     1      44.565   3.963   9.167  0.00  0.00    +0.000 A 
ATOM     27  C   UNL     1      45.499   4.476   8.256  0.00  0.00    +0.000 A 
ATOM     28  C   UNL     1      46.378   3.634   7.566  0.00  0.00    +0.000 A 
BRANCH  23  30
ATOM     29  N   UNL     1      48.417   1.967   6.550  0.00  0.00    +0.000 N 
ATOM     30  C   UNL     1      47.285   1.378   7.043  0.00  0.00    +0.000 C 
ATOM     31  O   UNL     1      47.088   0.177   6.910  0.00  0.00    +0.000 OA
ATOM     32  H   UNL     1      49.102   1.350   6.132  0.00  0.00    +0.000 HD
ATOM     33  H   UNL     1      48.728   2.880   6.849  0.00  0.00    +0.000 HD
ENDBRANCH  23  30
ENDBRANCH  21  26
ENDBRANCH  20  21
ENDBRANCH   1  20
TORSDOF 7
ENDMDL
MODEL 4
REMARK VINA RESULT:    -8.511      2.707      3.363
REMARK INTER + INTRA:         -13.226
REMARK INTER:                 -11.989
REMARK INTRA:                  -1.238
REMARK UNBOUND:                -1.233
REMARK  Name = 
REMARK  7 active torsions:
REMARK  status: ('A' for Active; 'I' for Inactive)
REMARK    1  A    between atoms: C_2  and  C_4
REMARK    2  A    between atoms: C_7  and  N_8
REMARK    3  A    between atoms: N_8  and  C_9
REMARK    4  A    between atoms: C_9  and  C_10
REMARK    5  A    between atoms: C_10  and  C_13
REMARK    6  A    between atoms: C_15  and  C_16
REMARK    7  A    between atoms: C_19  and  C_20
REMARK                            x       y       z     vdW  Elec       q    Type
REMARK                         _______ _______ _______ _____ _____    ______ ____
ROOT
ATOM      1  C   UNL     1      43.755   4.804  12.533  0.00  0.00    +0.000 C 
ATOM      2  F   UNL     1      42.752   4.959  13.451  0.00  0.00    +0.000 F 
ATOM      3  F   UNL     1      44.588   3.859  13.078  0.00  0.00    +0.000 F 
ENDROOT
BRANCH   1   4
ATOM      4  C   UNL     1      44.489   6.117  12.277  0.00  0.00    +0.000 A 
ATOM      5  C   UNL     1      45.785   6.265  12.768  0.00  0.00    +0.000 A 
ATOM      6  C   UNL     1      46.495   7.454  12.541  0.00  0.00    +0.000 A 
ATOM      7  C   UNL     1      45.835   8.471  11.842  0.00  0.00    +0.000 A 
ATOM      8  C   UNL     1      44.548   8.256  11.386  0.00  0.00    +0.000 A 
ATOM      9  N   UNL     1      43.870   7.107  11.578  0.00  0.00    +0.000 NA
BRANCH   6  10
ATOM     10  C   UNL     1      47.878   7.637  13.017  0.00  0.00    +0.000 A 
ATOM     11  C   UNL     1      48.873   8.220  12.234  0.00  0.00    +0.000 A 
ATOM     12  C   UNL     1      50.161   8.347  12.748  0.00  0.00    +0.000 A 
ATOM     13  C   UNL     1      50.439   7.896  14.038  0.00  0.00    +0.000 A 
ATOM     14  C   UNL     1      49.392   7.343  14.757  0.00  0.00    +0.000 A 
ATOM     15  N   UNL     1      48.131   7.211  14.282  0.00  0.00    +0.000 NA
BRANCH  13  16
ATOM     16  C   UNL     1      51.800   7.991  14.652  0.00  0.00    +0.000 C 
ATOM     17  F   UNL     1      51.991   9.135  15.367  0.00  0.00    +0.000 F 
ATOM     18  F   UNL     1      52.059   6.968  15.509  0.00  0.00    +0.000 F 
ATOM     19  F   UNL     1      52.794   7.963  13.722  0.00  0.00    +0.000 F 
ENDBRANCH  13  16
ENDBRANCH   6  10
ENDBRANCH   1   4
BRANCH   1  20
ATOM     20  C   UNL     1      43.167   4.231  11.227  0.00  0.00    +0.000 C 
BRANCH  20  21
ATOM     21  N   UNL     1      43.775   4.773   9.994  0.00  0.00    +0.000 N 
ATOM     22  H   UNL     1      43.124   5.267   9.387  0.00  0.00    +0.000 HD
BRANCH  21  26
ATOM     23  C   UNL     1      46.411   2.318   7.793  0.00  0.00    +0.000 A 
ATOM     24  C   UNL     1      46.446   3.700   7.611  0.00  0.00    +0.000 A 
ATOM     25  C   UNL     1      45.592   4.523   8.350  0.00  0.00    +0.000 A 
ATOM     26  C   UNL     1      44.708   3.997   9.302  0.00  0.00    +0.000 A 
ATOM     27  C   UNL     1      44.668   2.604   9.451  0.00  0.00    +0.000 A 
ATOM     28  C   UNL     1      45.508   1.769   8.705  0.00  0.00    +0.000 A 
BRANCH  23  30
ATOM     29  N   UNL     1      48.355   1.986   6.368  0.00  0.00    +0.000 N 
ATOM     30  C   UNL     1      47.284   1.416   7.001  0.00  0.00    +0.000 C 
ATOM     31  O   UNL     1      47.082   0.210   6.938  0.00  0.00    +0.000 OA
ATOM     32  H   UNL     1      48.996   1.355   5.907  0.00  0.00    +0.000 HD
ATOM     33  H   UNL     1      48.689   2.911   6.597  0.00  0.00    +0.000 HD
ENDBRANCH  23  30
ENDBRANCH  21  26
ENDBRANCH  20  21
ENDBRANCH   1  20
TORSDOF 7
ENDMDL
MODEL 5
REMARK VINA RESULT:    -8.416      3.492      4.413
REMARK INTER + INTRA:         -13.092
REMARK INTER:                 -11.713
REMARK INTRA:                  -1.379
REMARK UNBOUND:                -1.233
REMARK  Name = 
REMARK  7 active torsions:
REMARK  status: ('A' for Active; 'I' for Inactive)
REMARK    1  A    between atoms: C_2  and  C_4
REMARK    2  A    between atoms: C_7  and  N_8
REMARK    3  A    between atoms: N_8  and  C_9
REMARK    4  A    between atoms: C_9  and  C_10
REMARK    5  A    between atoms: C_10  and  C_13
REMARK    6  A    between atoms: C_15  and  C_16
REMARK    7  A    between atoms: C_19  and  C_20
REMARK                            x       y       z     vdW  Elec       q    Type
REMARK                         _______ _______ _______ _____ _____    ______ ____
ROOT
ATOM      1  C   UNL     1      43.460   5.519  12.061  0.00  0.00    +0.000 C 
ATOM      2  F   UNL     1      43.167   6.856  12.034  0.00  0.00    +0.000 F 
ATOM      3  F   UNL     1      42.492   4.963  12.858  0.00  0.00    +0.000 F 
ENDROOT
BRANCH   1   4
ATOM      4  C   UNL     1      44.858   5.263  12.617  0.00  0.00    +0.000 A 
ATOM      5  C   UNL     1      45.851   6.217  12.395  0.00  0.00    +0.000 A 
ATOM      6  C   UNL     1      47.144   6.021  12.902  0.00  0.00    +0.000 A 
ATOM      7  C   UNL     1      47.388   4.829  13.595  0.00  0.00    +0.000 A 
ATOM      8  C   UNL     1      46.356   3.927  13.776  0.00  0.00    +0.000 A 
ATOM      9  N   UNL     1      45.105   4.122  13.314  0.00  0.00    +0.000 NA
BRANCH   6  10
ATOM     10  C   UNL     1      48.212   7.019  12.715  0.00  0.00    +0.000 A 
ATOM     11  C   UNL     1      48.148   8.019  11.745  0.00  0.00    +0.000 A 
ATOM     12  C   UNL     1      49.204   8.919  11.621  0.00  0.00    +0.000 A 
ATOM     13  C   UNL     1      50.307   8.815  12.468  0.00  0.00    +0.000 A 
ATOM     14  C   UNL     1      50.286   7.804  13.416  0.00  0.00    +0.000 A 
ATOM     15  N   UNL     1      49.271   6.919  13.559  0.00  0.00    +0.000 NA
BRANCH  13  16
ATOM     16  C   UNL     1      51.479   9.740  12.386  0.00  0.00    +0.000 C 
ATOM     17  F   UNL     1      51.894   9.974  11.109  0.00  0.00    +0.000 F 
ATOM     18  F   UNL     1      51.218  10.962  12.923  0.00  0.00    +0.000 F 
ATOM     19  F   UNL     1      52.568   9.263  13.050  0.00  0.00    +0.000 F 
ENDBRANCH  13  16
ENDBRANCH   6  10
ENDBRANCH   1   4
BRANCH   1  20
ATOM     20  C   UNL     1      43.310   4.935  10.642  0.00  0.00    +0.000 C 
BRANCH  20  21
ATOM     21  N   UNL     1      43.829   3.560  10.489  0.00  0.00    +0.000 N 
ATOM     22  H   UNL     1      43.985   3.069  11.368  0.00  0.00    +0.000 HD
BRANCH  21  26
ATOM     23  C   UNL     1      46.635   2.678   7.462  0.00  0.00    +0.000 A 
ATOM     24  C   UNL     1      46.270   4.004   7.694  0.00  0.00    +0.000 A 
ATOM     25  C   UNL     1      45.357   4.308   8.707  0.00  0.00    +0.000 A 
ATOM     26  C   UNL     1      44.812   3.310   9.527  0.00  0.00    +0.000 A 
ATOM     27  C   UNL     1      45.170   1.982   9.261  0.00  0.00    +0.000 A 
ATOM     28  C   UNL     1      46.071   1.664   8.238  0.00  0.00    +0.000 A 
BRANCH  23  30
ATOM     29  N   UNL     1      47.529   3.077   5.234  0.00  0.00    +0.000 N 
ATOM     30  C   UNL     1      47.579   2.320   6.372  0.00  0.00    +0.000 C 
ATOM     31  O   UNL     1      48.390   1.411   6.491  0.00  0.00    +0.000 OA
ATOM     32  H   UNL     1      48.233   2.888   4.533  0.00  0.00    +0.000 HD
ATOM     33  H   UNL     1      47.058   3.971   5.198  0.00  0.00    +0.000 HD
ENDBRANCH  23  30
ENDBRANCH  21  26
ENDBRANCH  20  21
ENDBRANCH   1  20
TORSDOF 7
ENDMDL
MODEL 6
REMARK VINA RESULT:    -8.257      3.901      8.184
REMARK INTER + INTRA:         -12.869
REMARK INTER:                 -11.770
REMARK INTRA:                  -1.099
REMARK UNBOUND:                -1.233
REMARK  Name = 
REMARK  7 active torsions:
REMARK  status: ('A' for Active; 'I' for Inactive)
REMARK    1  A    between atoms: C_2  and  C_4
REMARK    2  A    between atoms: C_7  and  N_8
REMARK    3  A    between atoms: N_8  and  C_9
REMARK    4  A    between atoms: C_9  and  C_10
REMARK    5  A    between atoms: C_10  and  C_13
REMARK    6  A    between atoms: C_15  and  C_16
REMARK    7  A    between atoms: C_19  and  C_20
REMARK                            x       y       z     vdW  Elec       q    Type
REMARK                         _______ _______ _______ _____ _____    ______ ____
ROOT
ATOM      1  C   UNL     1      45.849   8.174  12.304  0.00  0.00    +0.000 C 
ATOM      2  F   UNL     1      45.470   8.539  13.567  0.00  0.00    +0.000 F 
ATOM      3  F   UNL     1      45.687   9.307  11.547  0.00  0.00    +0.000 F 
ENDROOT
BRANCH   1   4
ATOM      4  C   UNL     1      44.999   7.022  11.775  0.00  0.00    +0.000 A 
ATOM      5  C   UNL     1      45.548   6.174  10.813  0.00  0.00    +0.000 A 
ATOM      6  C   UNL     1      44.801   5.097  10.313  0.00  0.00    +0.000 A 
ATOM      7  C   UNL     1      43.495   4.943  10.795  0.00  0.00    +0.000 A 
ATOM      8  C   UNL     1      43.015   5.823  11.747  0.00  0.00    +0.000 A 
ATOM      9  N   UNL     1      43.737   6.844  12.251  0.00  0.00    +0.000 NA
BRANCH   6  10
ATOM     10  C   UNL     1      45.356   4.160   9.319  0.00  0.00    +0.000 A 
ATOM     11  C   UNL     1      45.191   2.779   9.412  0.00  0.00    +0.000 A 
ATOM     12  C   UNL     1      45.758   1.956   8.440  0.00  0.00    +0.000 A 
ATOM     13  C   UNL     1      46.475   2.521   7.387  0.00  0.00    +0.000 A 
ATOM     14  C   UNL     1      46.579   3.903   7.359  0.00  0.00    +0.000 A 
ATOM     15  N   UNL     1      46.036   4.724   8.288  0.00  0.00    +0.000 NA
BRANCH  13  16
ATOM     16  C   UNL     1      47.117   1.700   6.314  0.00  0.00    +0.000 C 
ATOM     17  F   UNL     1      46.736   2.061   5.057  0.00  0.00    +0.000 F 
ATOM     18  F   UNL     1      48.474   1.788   6.332  0.00  0.00    +0.000 F 
ATOM     19  F   UNL     1      46.825   0.376   6.426  0.00  0.00    +0.000 F 
ENDBRANCH  13  16
ENDBRANCH   6  10
ENDBRANCH   1   4
BRANCH   1  20
ATOM     20  C   UNL     1      47.346   7.806  12.305  0.00  0.00    +0.000 C 
BRANCH  20  21
ATOM     21  N   UNL     1      47.980   7.828  13.640  0.00  0.00    +0.000 N 
ATOM     22  H   UNL     1      48.868   8.326  13.675  0.00  0.00    +0.000 HD
BRANCH  21  26
ATOM     23  C   UNL     1      47.805   4.452  16.167  0.00  0.00    +0.000 A 
ATOM     24  C   UNL     1      47.114   4.440  14.956  0.00  0.00    +0.000 A 
ATOM     25  C   UNL     1      47.182   5.544  14.103  0.00  0.00    +0.000 A 
ATOM     26  C   UNL     1      47.957   6.668  14.419  0.00  0.00    +0.000 A 
ATOM     27  C   UNL     1      48.622   6.674  15.653  0.00  0.00    +0.000 A 
ATOM     28  C   UNL     1      48.548   5.579  16.522  0.00  0.00    +0.000 A 
BRANCH  23  30
ATOM     29  N   UNL     1      48.910   2.832  17.607  0.00  0.00    +0.000 N 
ATOM     30  C   UNL     1      47.728   3.306  17.109  0.00  0.00    +0.000 C 
ATOM     31  O   UNL     1      46.657   2.822  17.453  0.00  0.00    +0.000 OA
ATOM     32  H   UNL     1      48.846   2.113  18.316  0.00  0.00    +0.000 HD
ATOM     33  H   UNL     1      49.773   3.354  17.544  0.00  0.00    +0.000 HD
ENDBRANCH  23  30
ENDBRANCH  21  26
ENDBRANCH  20  21
ENDBRANCH   1  20
TORSDOF 7
ENDMDL
MODEL 7
REMARK VINA RESULT:    -7.440      4.434      5.674
REMARK INTER + INTRA:         -11.718
REMARK INTER:                 -10.122
REMARK INTRA:                  -1.596
REMARK UNBOUND:                -1.233
REMARK  Name = 
REMARK  7 active torsions:
REMARK  status: ('A' for Active; 'I' for Inactive)
REMARK    1  A    between atoms: C_2  and  C_4
REMARK    2  A    between atoms: C_7  and  N_8
REMARK    3  A    between atoms: N_8  and  C_9
REMARK    4  A    between atoms: C_9  and  C_10
REMARK    5  A    between atoms: C_10  and  C_13
REMARK    6  A    between atoms: C_15  and  C_16
REMARK    7  A    between atoms: C_19  and  C_20
REMARK                            x       y       z     vdW  Elec       q    Type
REMARK                         _______ _______ _______ _____ _____    ______ ____
ROOT
ATOM      1  C   UNL     1      45.857   4.829  13.267  0.00  0.00    +0.000 C 
ATOM      2  F   UNL     1      45.978   4.647  14.618  0.00  0.00    +0.000 F 
ATOM      3  F   UNL     1      46.781   3.979  12.713  0.00  0.00    +0.000 F 
ENDROOT
BRANCH   1   4
ATOM      4  C   UNL     1      46.120   6.279  12.870  0.00  0.00    +0.000 A 
ATOM      5  C   UNL     1      47.411   6.643  12.487  0.00  0.00    +0.000 A 
ATOM      6  C   UNL     1      47.687   7.964  12.104  0.00  0.00    +0.000 A 
ATOM      7  C   UNL     1      46.631   8.882  12.159  0.00  0.00    +0.000 A 
ATOM      8  C   UNL     1      45.378   8.452  12.551  0.00  0.00    +0.000 A 
ATOM      9  N   UNL     1      45.100   7.178  12.894  0.00  0.00    +0.000 NA
BRANCH   6  10
ATOM     10  C   UNL     1      49.030   8.381  11.663  0.00  0.00    +0.000 A 
ATOM     11  C   UNL     1      50.055   7.471  11.406  0.00  0.00    +0.000 A 
ATOM     12  C   UNL     1      51.303   7.943  11.005  0.00  0.00    +0.000 A 
ATOM     13  C   UNL     1      51.512   9.314  10.860  0.00  0.00    +0.000 A 
ATOM     14  C   UNL     1      50.438  10.151  11.120  0.00  0.00    +0.000 A 
ATOM     15  N   UNL     1      49.214   9.718  11.507  0.00  0.00    +0.000 NA
BRANCH  13  16
ATOM     16  C   UNL     1      52.826   9.892  10.443  0.00  0.00    +0.000 C 
ATOM     17  F   UNL     1      52.799  10.457   9.203  0.00  0.00    +0.000 F 
ATOM     18  F   UNL     1      53.260  10.866  11.287  0.00  0.00    +0.000 F 
ATOM     19  F   UNL     1      53.817   8.959  10.405  0.00  0.00    +0.000 F 
ENDBRANCH  13  16
ENDBRANCH   6  10
ENDBRANCH   1   4
BRANCH   1  20
ATOM     20  C   UNL     1      44.454   4.375  12.814  0.00  0.00    +0.000 C 
BRANCH  20  21
ATOM     21  N   UNL     1      44.068   4.836  11.465  0.00  0.00    +0.000 N 
ATOM     22  H   UNL     1      43.082   5.075  11.369  0.00  0.00    +0.000 HD
BRANCH  21  26
ATOM     23  C   UNL     1      45.884   2.933   8.164  0.00  0.00    +0.000 A 
ATOM     24  C   UNL     1      45.190   2.168   9.101  0.00  0.00    +0.000 A 
ATOM     25  C   UNL     1      44.568   2.791  10.186  0.00  0.00    +0.000 A 
ATOM     26  C   UNL     1      44.597   4.183  10.349  0.00  0.00    +0.000 A 
ATOM     27  C   UNL     1      45.322   4.932   9.412  0.00  0.00    +0.000 A 
ATOM     28  C   UNL     1      45.963   4.317   8.330  0.00  0.00    +0.000 A 
BRANCH  23  30
ATOM     29  N   UNL     1      47.231   1.120   7.262  0.00  0.00    +0.000 N 
ATOM     30  C   UNL     1      46.581   2.298   7.017  0.00  0.00    +0.000 C 
ATOM     31  O   UNL     1      46.554   2.783   5.893  0.00  0.00    +0.000 OA
ATOM     32  H   UNL     1      47.626   0.646   6.460  0.00  0.00    +0.000 HD
ATOM     33  H   UNL     1      47.069   0.574   8.096  0.00  0.00    +0.000 HD
ENDBRANCH  23  30
ENDBRANCH  21  26
ENDBRANCH  20  21
ENDBRANCH   1  20
TORSDOF 7
ENDMDL
MODEL 8
REMARK VINA RESULT:    -7.284      4.836      7.995
REMARK INTER + INTRA:         -11.497
REMARK INTER:                 -10.342
REMARK INTRA:                  -1.155
REMARK UNBOUND:                -1.233
REMARK  Name = 
REMARK  7 active torsions:
REMARK  status: ('A' for Active; 'I' for Inactive)
REMARK    1  A    between atoms: C_2  and  C_4
REMARK    2  A    between atoms: C_7  and  N_8
REMARK    3  A    between atoms: N_8  and  C_9
REMARK    4  A    between atoms: C_9  and  C_10
REMARK    5  A    between atoms: C_10  and  C_13
REMARK    6  A    between atoms: C_15  and  C_16
REMARK    7  A    between atoms: C_19  and  C_20
REMARK                            x       y       z     vdW  Elec       q    Type
REMARK                         _______ _______ _______ _____ _____    ______ ____
ROOT
ATOM      1  C   UNL     1      45.449   8.386  12.458  0.00  0.00    +0.000 C 
ATOM      2  F   UNL     1      44.483   9.249  12.900  0.00  0.00    +0.000 F 
ATOM      3  F   UNL     1      45.955   8.975  11.327  0.00  0.00    +0.000 F 
ENDROOT
BRANCH   1   4
ATOM      4  C   UNL     1      44.873   7.005  12.160  0.00  0.00    +0.000 A 
ATOM      5  C   UNL     1      45.358   6.302  11.057  0.00  0.00    +0.000 A 
ATOM      6  C   UNL     1      44.860   5.024  10.760  0.00  0.00    +0.000 A 
ATOM      7  C   UNL     1      43.853   4.519  11.590  0.00  0.00    +0.000 A 
ATOM      8  C   UNL     1      43.418   5.272  12.665  0.00  0.00    +0.000 A 
ATOM      9  N   UNL     1      43.911   6.489  12.971  0.00  0.00    +0.000 NA
BRANCH   6  10
ATOM     10  C   UNL     1      45.369   4.237   9.622  0.00  0.00    +0.000 A 
ATOM     11  C   UNL     1      45.235   2.852   9.545  0.00  0.00    +0.000 A 
ATOM     12  C   UNL     1      45.753   2.175   8.443  0.00  0.00    +0.000 A 
ATOM     13  C   UNL     1      46.393   2.889   7.430  0.00  0.00    +0.000 A 
ATOM     14  C   UNL     1      46.471   4.265   7.575  0.00  0.00    +0.000 A 
ATOM     15  N   UNL     1      45.973   4.946   8.634  0.00  0.00    +0.000 NA
BRANCH  13  16
ATOM     16  C   UNL     1      46.981   2.229   6.223  0.00  0.00    +0.000 C 
ATOM     17  F   UNL     1      46.378   2.598   5.058  0.00  0.00    +0.000 F 
ATOM     18  F   UNL     1      48.302   2.512   6.066  0.00  0.00    +0.000 F 
ATOM     19  F   UNL     1      46.891   0.872   6.276  0.00  0.00    +0.000 F 
ENDBRANCH  13  16
ENDBRANCH   6  10
ENDBRANCH   1   4
BRANCH   1  20
ATOM     20  C   UNL     1      46.579   8.304  13.504  0.00  0.00    +0.000 C 
BRANCH  20  21
ATOM     21  N   UNL     1      47.595   9.371  13.393  0.00  0.00    +0.000 N 
ATOM     22  H   UNL     1      47.213  10.297  13.205  0.00  0.00    +0.000 HD
BRANCH  21  26
ATOM     23  C   UNL     1      51.055   8.472  11.149  0.00  0.00    +0.000 A 
ATOM     24  C   UNL     1      50.743   9.802  11.428  0.00  0.00    +0.000 A 
ATOM     25  C   UNL     1      49.612  10.110  12.187  0.00  0.00    +0.000 A 
ATOM     26  C   UNL     1      48.783   9.106  12.708  0.00  0.00    +0.000 A 
ATOM     27  C   UNL     1      49.096   7.776  12.394  0.00  0.00    +0.000 A 
ATOM     28  C   UNL     1      50.219   7.458  11.621  0.00  0.00    +0.000 A 
BRANCH  23  30
ATOM     29  N   UNL     1      52.927   6.992  10.677  0.00  0.00    +0.000 N 
ATOM     30  C   UNL     1      52.234   8.115  10.319  0.00  0.00    +0.000 C 
ATOM     31  O   UNL     1      52.559   8.773   9.339  0.00  0.00    +0.000 OA
ATOM     32  H   UNL     1      53.672   6.703  10.057  0.00  0.00    +0.000 HD
ATOM     33  H   UNL     1      52.550   6.302  11.311  0.00  0.00    +0.000 HD
ENDBRANCH  23  30
ENDBRANCH  21  26
ENDBRANCH  20  21
ENDBRANCH   1  20
TORSDOF 7
ENDMDL
MODEL 9
REMARK VINA RESULT:    -7.204      4.013      8.969
REMARK INTER + INTRA:         -11.385
REMARK INTER:                 -10.120
REMARK INTRA:                  -1.265
REMARK UNBOUND:                -1.233
REMARK  Name = 
REMARK  7 active torsions:
REMARK  status: ('A' for Active; 'I' for Inactive)
REMARK    1  A    between atoms: C_2  and  C_4
REMARK    2  A    between atoms: C_7  and  N_8
REMARK    3  A    between atoms: N_8  and  C_9
REMARK    4  A    between atoms: C_9  and  C_10
REMARK    5  A    between atoms: C_10  and  C_13
REMARK    6  A    between atoms: C_15  and  C_16
REMARK    7  A    between atoms: C_19  and  C_20
REMARK                            x       y       z     vdW  Elec       q    Type
REMARK                         _______ _______ _______ _____ _____    ______ ____
ROOT
ATOM      1  C   UNL     1      48.271   4.638  18.099  0.00  0.00    +0.000 C 
ATOM      2  F   UNL     1      47.914   3.328  17.931  0.00  0.00    +0.000 F 
ATOM      3  F   UNL     1      47.337   5.149  18.964  0.00  0.00    +0.000 F 
ENDROOT
BRANCH   1   4
ATOM      4  C   UNL     1      48.276   5.392  16.771  0.00  0.00    +0.000 A 
ATOM      5  C   UNL     1      47.518   4.890  15.715  0.00  0.00    +0.000 A 
ATOM      6  C   UNL     1      47.489   5.563  14.484  0.00  0.00    +0.000 A 
ATOM      7  C   UNL     1      48.270   6.720  14.367  0.00  0.00    +0.000 A 
ATOM      8  C   UNL     1      48.999   7.159  15.456  0.00  0.00    +0.000 A 
ATOM      9  N   UNL     1      49.010   6.531  16.649  0.00  0.00    +0.000 NA
BRANCH   6  10
ATOM     10  C   UNL     1      46.676   5.082  13.353  0.00  0.00    +0.000 A 
ATOM     11  C   UNL     1      46.354   5.886  12.261  0.00  0.00    +0.000 A 
ATOM     12  C   UNL     1      45.569   5.364  11.235  0.00  0.00    +0.000 A 
ATOM     13  C   UNL     1      45.120   4.045  11.309  0.00  0.00    +0.000 A 
ATOM     14  C   UNL     1      45.497   3.308  12.420  0.00  0.00    +0.000 A 
ATOM     15  N   UNL     1      46.261   3.791  13.428  0.00  0.00    +0.000 NA
BRANCH  13  16
ATOM     16  C   UNL     1      44.267   3.421  10.251  0.00  0.00    +0.000 C 
ATOM     17  F   UNL     1      43.646   4.333   9.451  0.00  0.00    +0.000 F 
ATOM     18  F   UNL     1      44.977   2.616   9.416  0.00  0.00    +0.000 F 
ATOM     19  F   UNL     1      43.276   2.645  10.770  0.00  0.00    +0.000 F 
ENDBRANCH  13  16
ENDBRANCH   6  10
ENDBRANCH   1   4
BRANCH   1  20
ATOM     20  C   UNL     1      49.651   4.708  18.783  0.00  0.00    +0.000 C 
BRANCH  20  21
ATOM     21  N   UNL     1      50.798   4.603  17.858  0.00  0.00    +0.000 N 
ATOM     22  H   UNL     1      50.642   5.027  16.945  0.00  0.00    +0.000 HD
BRANCH  21  26
ATOM     23  C   UNL     1      52.986   0.994  17.932  0.00  0.00    +0.000 A 
ATOM     24  C   UNL     1      51.684   0.998  17.432  0.00  0.00    +0.000 A 
ATOM     25  C   UNL     1      50.959   2.191  17.384  0.00  0.00    +0.000 A 
ATOM     26  C   UNL     1      51.518   3.407  17.803  0.00  0.00    +0.000 A 
ATOM     27  C   UNL     1      52.817   3.378  18.328  0.00  0.00    +0.000 A 
ATOM     28  C   UNL     1      53.547   2.186  18.396  0.00  0.00    +0.000 A 
BRANCH  23  30
ATOM     29  N   UNL     1      54.288  -0.758  16.858  0.00  0.00    +0.000 N 
ATOM     30  C   UNL     1      53.771  -0.263  18.024  0.00  0.00    +0.000 C 
ATOM     31  O   UNL     1      53.978  -0.821  19.094  0.00  0.00    +0.000 OA
ATOM     32  H   UNL     1      54.896  -1.562  16.939  0.00  0.00    +0.000 HD
ATOM     33  H   UNL     1      54.350  -0.205  16.015  0.00  0.00    +0.000 HD
ENDBRANCH  23  30
ENDBRANCH  21  26
ENDBRANCH  20  21
ENDBRANCH   1  20
TORSDOF 7
ENDMDL
