MODEL 1
REMARK VINA RESULT:    -9.425      0.000      0.000
REMARK INTER + INTRA:         -13.200
REMARK INTER:                 -12.180
REMARK INTRA:                  -1.020
REMARK UNBOUND:                -1.020
REMARK  Name = 
REMARK  5 active torsions:
REMARK  status: ('A' for Active; 'I' for Inactive)
REMARK    1  A    between atoms: C_2  and  C_4
REMARK    2  A    between atoms: C_7  and  N_8
REMARK    3  A    between atoms: N_8  and  C_9
REMARK    4  A    between atoms: C_9  and  C_10
REMARK    5  A    between atoms: C_14  and  C_15
REMARK                            x       y       z     vdW  Elec       q    Type
REMARK                         _______ _______ _______ _____ _____    ______ ____
ROOT
ATOM      1  C   UNL     1      43.928   4.953  11.526  0.00  0.00    +0.000 C 
ATOM      2  C   UNL     1      42.707   5.119  12.425  0.00  0.00    +0.000 C 
ATOM      3  C   UNL     1      42.957   6.096  11.325  0.00  0.00    +0.000 C 
ENDROOT
BRANCH   1   4
ATOM      4  C   UNL     1      45.312   5.242  12.103  0.00  0.00    +0.000 A 
ATOM      5  C   UNL     1      46.096   6.309  11.638  0.00  0.00    +0.000 A 
ATOM      6  C   UNL     1      47.296   6.651  12.258  0.00  0.00    +0.000 A 
ATOM      7  C   UNL     1      47.723   5.953  13.388  0.00  0.00    +0.000 A 
ATOM      8  C   UNL     1      46.976   4.885  13.906  0.00  0.00    +0.000 A 
ATOM      9  C   UNL     1      45.807   4.521  13.210  0.00  0.00    +0.000 A 
BRANCH   8  10
ATOM     10  C   UNL     1      47.338   4.214  15.170  0.00  0.00    +0.000 A 
ATOM     11  C   UNL     1      47.083   4.798  16.414  0.00  0.00    +0.000 A 
ATOM     12  C   UNL     1      47.395   4.100  17.577  0.00  0.00    +0.000 A 
ATOM     13  C   UNL     1      47.951   2.834  17.480  0.00  0.00    +0.000 A 
ATOM     14  C   UNL     1      48.168   2.315  16.216  0.00  0.00    +0.000 A 
ATOM     15  N   UNL     1      47.871   2.969  15.068  0.00  0.00    +0.000 NA
ENDBRANCH   8  10
ENDBRANCH   1   4
BRANCH   1  16
ATOM     16  N   UNL     1      43.896   3.740  10.677  0.00  0.00    +0.000 N 
ATOM     17  H   UNL     1      43.656   2.891  11.184  0.00  0.00    +0.000 HD
BRANCH  16  21
ATOM     18  C   UNL     1      46.508   2.754   7.495  0.00  0.00    +0.000 A 
ATOM     19  C   UNL     1      46.158   4.089   7.704  0.00  0.00    +0.000 A 
ATOM     20  C   UNL     1      45.298   4.430   8.755  0.00  0.00    +0.000 A 
ATOM     21  C   UNL     1      44.816   3.464   9.643  0.00  0.00    +0.000 A 
ATOM     22  C   UNL     1      45.158   2.124   9.405  0.00  0.00    +0.000 A 
ATOM     23  C   UNL     1      45.991   1.768   8.337  0.00  0.00    +0.000 A 
BRANCH  18  25
ATOM     24  N   UNL     1      47.268   3.064   5.198  0.00  0.00    +0.000 N 
ATOM     25  C   UNL     1      47.365   2.341   6.355  0.00  0.00    +0.000 C 
ATOM     26  O   UNL     1      48.153   1.406   6.444  0.00  0.00    +0.000 OA
ATOM     27  H   UNL     1      47.911   2.821   4.459  0.00  0.00    +0.000 HD
ATOM     28  H   UNL     1      46.829   3.976   5.167  0.00  0.00    +0.000 HD
ENDBRANCH  18  25
ENDBRANCH  16  21
ENDBRANCH   1  16
TORSDOF 5
ENDMDL
MODEL 2
REMARK VINA RESULT:    -9.004      1.929      3.740
REMARK INTER + INTRA:         -12.656
REMARK INTER:                 -11.356
REMARK INTRA:                  -1.300
REMARK UNBOUND:                -1.020
REMARK  Name = 
REMARK  5 active torsions:
REMARK  status: ('A' for Active; 'I' for Inactive)
REMARK    1  A    between atoms: C_2  and  C_4
REMARK    2  A    between atoms: C_7  and  N_8
REMARK    3  A    between atoms: N_8  and  C_9
REMARK    4  A    between atoms: C_9  and  C_10
REMARK    5  A    between atoms: C_14  and  C_15
REMARK                            x       y       z     vdW  Elec       q    Type
REMARK                         _______ _______ _______ _____ _____    ______ ____
ROOT
ATOM      1  C   UNL     1      43.815   5.039  11.438  0.00  0.00    +0.000 C 
ATOM      2  C   UNL     1      42.472   5.336  12.099  0.00  0.00    +0.000 C 
ATOM      3  C   UNL     1      42.995   6.249  11.040  0.00  0.00    +0.000 C 
ENDROOT
BRANCH   1   4
ATOM      4  C   UNL     1      45.094   5.238  12.247  0.00  0.00    +0.000 A 
ATOM      5  C   UNL     1      45.582   4.245  13.109  0.00  0.00    +0.000 A 
ATOM      6  C   UNL     1      46.818   4.377  13.741  0.00  0.00    +0.000 A 
ATOM      7  C   UNL     1      47.615   5.494  13.491  0.00  0.00    +0.000 A 
ATOM      8  C   UNL     1      47.185   6.514  12.629  0.00  0.00    +0.000 A 
ATOM      9  C   UNL     1      45.900   6.382  12.067  0.00  0.00    +0.000 A 
BRANCH   8  10
ATOM     10  C   UNL     1      48.059   7.642  12.250  0.00  0.00    +0.000 A 
ATOM     11  C   UNL     1      49.410   7.455  11.939  0.00  0.00    +0.000 A 
ATOM     12  C   UNL     1      50.178   8.544  11.535  0.00  0.00    +0.000 A 
ATOM     13  C   UNL     1      49.587   9.795  11.447  0.00  0.00    +0.000 A 
ATOM     14  C   UNL     1      48.244   9.903  11.761  0.00  0.00    +0.000 A 
ATOM     15  N   UNL     1      47.472   8.863  12.152  0.00  0.00    +0.000 NA
ENDBRANCH   8  10
ENDBRANCH   1   4
BRANCH   1  16
ATOM     16  N   UNL     1      43.830   3.803  10.624  0.00  0.00    +0.000 N 
ATOM     17  H   UNL     1      43.591   2.964  11.148  0.00  0.00    +0.000 HD
BRANCH  16  21
ATOM     18  C   UNL     1      46.544   2.789   7.537  0.00  0.00    +0.000 A 
ATOM     19  C   UNL     1      46.233   4.132   7.762  0.00  0.00    +0.000 A 
ATOM     20  C   UNL     1      45.340   4.482   8.782  0.00  0.00    +0.000 A 
ATOM     21  C   UNL     1      44.785   3.515   9.625  0.00  0.00    +0.000 A 
ATOM     22  C   UNL     1      45.087   2.169   9.370  0.00  0.00    +0.000 A 
ATOM     23  C   UNL     1      45.954   1.805   8.332  0.00  0.00    +0.000 A 
BRANCH  18  25
ATOM     24  N   UNL     1      47.351   3.067   5.251  0.00  0.00    +0.000 N 
ATOM     25  C   UNL     1      47.435   2.370   6.426  0.00  0.00    +0.000 C 
ATOM     26  O   UNL     1      48.239   1.454   6.553  0.00  0.00    +0.000 OA
ATOM     27  H   UNL     1      48.016   2.821   4.533  0.00  0.00    +0.000 HD
ATOM     28  H   UNL     1      46.895   3.969   5.191  0.00  0.00    +0.000 HD
ENDBRANCH  18  25
ENDBRANCH  16  21
ENDBRANCH   1  16
TORSDOF 5
ENDMDL
MODEL 3
REMARK VINA RESULT:    -8.060      2.543      3.324
REMARK INTER + INTRA:         -11.436
REMARK INTER:                 -10.763
REMARK INTRA:                  -0.673
REMARK UNBOUND:                -1.020
REMARK  Name = 
REMARK  5 active torsions:
REMARK  status: ('A' for Active; 'I' for Inactive)
REMARK    1  A    between atoms: C_2  and  C_4
REMARK    2  A    between atoms: C_7  and  N_8
REMARK    3  A    between atoms: N_8  and  C_9
REMARK    4  A    between atoms: C_9  and  C_10
REMARK    5  A    between atoms: C_14  and  C_15
REMARK                            x       y       z     vdW  Elec       q    Type
REMARK                         _______ _______ _______ _____ _____    ______ ____
ROOT
ATOM      1  C   UNL     1      44.186   4.369  11.633  0.00  0.00    +0.000 C 
ATOM      2  C   UNL     1      44.780   3.384  12.634  0.00  0.00    +0.000 C 
ATOM      3  C   UNL     1      43.416   3.944  12.865  0.00  0.00    +0.000 C 
ENDROOT
BRANCH   1   4
ATOM      4  C   UNL     1      44.760   5.783  11.562  0.00  0.00    +0.000 A 
ATOM      5  C   UNL     1      43.940   6.901  11.352  0.00  0.00    +0.000 A 
ATOM      6  C   UNL     1      44.448   8.197  11.423  0.00  0.00    +0.000 A 
ATOM      7  C   UNL     1      45.789   8.405  11.748  0.00  0.00    +0.000 A 
ATOM      8  C   UNL     1      46.654   7.326  11.980  0.00  0.00    +0.000 A 
ATOM      9  C   UNL     1      46.124   6.031  11.827  0.00  0.00    +0.000 A 
BRANCH   8  10
ATOM     10  C   UNL     1      48.042   7.519  12.447  0.00  0.00    +0.000 A 
ATOM     11  C   UNL     1      49.081   7.824  11.562  0.00  0.00    +0.000 A 
ATOM     12  C   UNL     1      50.362   8.050  12.059  0.00  0.00    +0.000 A 
ATOM     13  C   UNL     1      50.583   7.972  13.425  0.00  0.00    +0.000 A 
ATOM     14  C   UNL     1      49.505   7.675  14.241  0.00  0.00    +0.000 A 
ATOM     15  N   UNL     1      48.250   7.454  13.787  0.00  0.00    +0.000 NA
ENDBRANCH   8  10
ENDBRANCH   1   4
BRANCH   1  16
ATOM     16  N   UNL     1      43.911   3.789  10.299  0.00  0.00    +0.000 N 
ATOM     17  H   UNL     1      43.177   3.083  10.303  0.00  0.00    +0.000 HD
BRANCH  16  21
ATOM     18  C   UNL     1      46.735   2.699   7.340  0.00  0.00    +0.000 A 
ATOM     19  C   UNL     1      46.407   4.046   7.511  0.00  0.00    +0.000 A 
ATOM     20  C   UNL     1      45.478   4.421   8.489  0.00  0.00    +0.000 A 
ATOM     21  C   UNL     1      44.901   3.477   9.343  0.00  0.00    +0.000 A 
ATOM     22  C   UNL     1      45.222   2.126   9.142  0.00  0.00    +0.000 A 
ATOM     23  C   UNL     1      46.126   1.736   8.147  0.00  0.00    +0.000 A 
BRANCH  18  25
ATOM     24  N   UNL     1      47.773   3.036   5.158  0.00  0.00    +0.000 N 
ATOM     25  C   UNL     1      47.667   2.252   6.274  0.00  0.00    +0.000 C 
ATOM     26  O   UNL     1      48.341   1.235   6.390  0.00  0.00    +0.000 OA
ATOM     27  H   UNL     1      48.466   2.761   4.478  0.00  0.00    +0.000 HD
ATOM     28  H   UNL     1      47.435   3.990   5.136  0.00  0.00    +0.000 HD
ENDBRANCH  18  25
ENDBRANCH  16  21
ENDBRANCH   1  16
TORSDOF 5
ENDMDL
MODEL 4
REMARK VINA RESULT:    -7.613      2.995      7.565
REMARK INTER + INTRA:         -10.858
REMARK INTER:                  -9.807
REMARK INTRA:                  -1.050
REMARK UNBOUND:                -1.020
REMARK  Name = 
REMARK  5 active torsions:
REMARK  status: ('A' for Active; 'I' for Inactive)
REMARK    1  A    between atoms: C_2  and  C_4
REMARK    2  A    between atoms: C_7  and  N_8
REMARK    3  A    between atoms: N_8  and  C_9
REMARK    4  A    between atoms: C_9  and  C_10
REMARK    5  A    between atoms: C_14  and  C_15
REMARK                            x       y       z     vdW  Elec       q    Type
REMARK                         _______ _______ _______ _____ _____    ______ ____
ROOT
ATOM      1  C   UNL     1      46.239   7.386  12.426  0.00  0.00    +0.000 C 
ATOM      2  C   UNL     1      46.397   8.763  11.788  0.00  0.00    +0.000 C 
ATOM      3  C   UNL     1      45.638   8.619  13.066  0.00  0.00    +0.000 C 
ENDROOT
BRANCH   1   4
ATOM      4  C   UNL     1      45.317   6.367  11.758  0.00  0.00    +0.000 A 
ATOM      5  C   UNL     1      43.924   6.420  11.916  0.00  0.00    +0.000 A 
ATOM      6  C   UNL     1      43.080   5.574  11.199  0.00  0.00    +0.000 A 
ATOM      7  C   UNL     1      43.612   4.677  10.273  0.00  0.00    +0.000 A 
ATOM      8  C   UNL     1      44.996   4.588  10.063  0.00  0.00    +0.000 A 
ATOM      9  C   UNL     1      45.822   5.405  10.858  0.00  0.00    +0.000 A 
BRANCH   8  10
ATOM     10  C   UNL     1      45.576   3.740   9.002  0.00  0.00    +0.000 A 
ATOM     11  C   UNL     1      45.567   2.344   9.087  0.00  0.00    +0.000 A 
ATOM     12  C   UNL     1      46.078   1.589   8.035  0.00  0.00    +0.000 A 
ATOM     13  C   UNL     1      46.583   2.236   6.919  0.00  0.00    +0.000 A 
ATOM     14  C   UNL     1      46.551   3.619   6.899  0.00  0.00    +0.000 A 
ATOM     15  N   UNL     1      46.058   4.379   7.905  0.00  0.00    +0.000 NA
ENDBRANCH   8  10
ENDBRANCH   1   4
BRANCH   1  16
ATOM     16  N   UNL     1      47.505   6.791  12.909  0.00  0.00    +0.000 N 
ATOM     17  H   UNL     1      48.041   6.321  12.183  0.00  0.00    +0.000 HD
BRANCH  16  21
ATOM     18  C   UNL     1      48.024   4.630  16.512  0.00  0.00    +0.000 A 
ATOM     19  C   UNL     1      48.670   5.857  16.351  0.00  0.00    +0.000 A 
ATOM     20  C   UNL     1      48.505   6.584  15.166  0.00  0.00    +0.000 A 
ATOM     21  C   UNL     1      47.658   6.134  14.149  0.00  0.00    +0.000 A 
ATOM     22  C   UNL     1      47.035   4.888  14.316  0.00  0.00    +0.000 A 
ATOM     23  C   UNL     1      47.219   4.137  15.483  0.00  0.00    +0.000 A 
BRANCH  18  25
ATOM     24  N   UNL     1      47.242   2.894  18.038  0.00  0.00    +0.000 N 
ATOM     25  C   UNL     1      48.223   3.796  17.725  0.00  0.00    +0.000 C 
ATOM     26  O   UNL     1      49.234   3.884  18.411  0.00  0.00    +0.000 OA
ATOM     27  H   UNL     1      47.426   2.282  18.819  0.00  0.00    +0.000 HD
ATOM     28  H   UNL     1      46.531   2.619  17.373  0.00  0.00    +0.000 HD
ENDBRANCH  18  25
ENDBRANCH  16  21
ENDBRANCH   1  16
TORSDOF 5
ENDMDL
MODEL 5
REMARK VINA RESULT:    -7.428      2.989      7.668
REMARK INTER + INTRA:         -10.620
REMARK INTER:                  -9.595
REMARK INTRA:                  -1.024
REMARK UNBOUND:                -1.020
REMARK  Name = 
REMARK  5 active torsions:
REMARK  status: ('A' for Active; 'I' for Inactive)
REMARK    1  A    between atoms: C_2  and  C_4
REMARK    2  A    between atoms: C_7  and  N_8
REMARK    3  A    between atoms: N_8  and  C_9
REMARK    4  A    between atoms: C_9  and  C_10
REMARK    5  A    between atoms: C_14  and  C_15
REMARK                            x       y       z     vdW  Elec       q    Type
REMARK                         _______ _______ _______ _____ _____    ______ ____
ROOT
ATOM      1  C   UNL     1      45.443   6.166  12.042  0.00  0.00    +0.000 C 
ATOM      2  C   UNL     1      45.006   7.442  11.328  0.00  0.00    +0.000 C 
ATOM      3  C   UNL     1      44.401   7.085  12.646  0.00  0.00    +0.000 C 
ENDROOT
BRANCH   1   4
ATOM      4  C   UNL     1      45.007   4.818  11.472  0.00  0.00    +0.000 A 
ATOM      5  C   UNL     1      43.858   4.159  11.935  0.00  0.00    +0.000 A 
ATOM      6  C   UNL     1      43.391   2.998  11.321  0.00  0.00    +0.000 A 
ATOM      7  C   UNL     1      44.045   2.490  10.199  0.00  0.00    +0.000 A 
ATOM      8  C   UNL     1      45.191   3.112   9.684  0.00  0.00    +0.000 A 
ATOM      9  C   UNL     1      45.677   4.239  10.374  0.00  0.00    +0.000 A 
BRANCH   8  10
ATOM     10  C   UNL     1      45.827   2.669   8.426  0.00  0.00    +0.000 A 
ATOM     11  C   UNL     1      46.025   3.543   7.353  0.00  0.00    +0.000 A 
ATOM     12  C   UNL     1      46.679   3.089   6.210  0.00  0.00    +0.000 A 
ATOM     13  C   UNL     1      47.124   1.778   6.159  0.00  0.00    +0.000 A 
ATOM     14  C   UNL     1      46.902   0.973   7.263  0.00  0.00    +0.000 A 
ATOM     15  N   UNL     1      46.274   1.387   8.388  0.00  0.00    +0.000 NA
ENDBRANCH   8  10
ENDBRANCH   1   4
BRANCH   1  16
ATOM     16  N   UNL     1      46.852   6.176  12.496  0.00  0.00    +0.000 N 
ATOM     17  H   UNL     1      47.505   5.801  11.812  0.00  0.00    +0.000 HD
BRANCH  16  21
ATOM     18  C   UNL     1      48.167   5.054  16.360  0.00  0.00    +0.000 A 
ATOM     19  C   UNL     1      48.667   6.221  15.779  0.00  0.00    +0.000 A 
ATOM     20  C   UNL     1      48.237   6.606  14.503  0.00  0.00    +0.000 A 
ATOM     21  C   UNL     1      47.272   5.872  13.809  0.00  0.00    +0.000 A 
ATOM     22  C   UNL     1      46.798   4.689  14.395  0.00  0.00    +0.000 A 
ATOM     23  C   UNL     1      47.244   4.277  15.657  0.00  0.00    +0.000 A 
BRANCH  18  25
ATOM     24  N   UNL     1      47.697   4.311  18.635  0.00  0.00    +0.000 N 
ATOM     25  C   UNL     1      48.643   4.575  17.682  0.00  0.00    +0.000 C 
ATOM     26  O   UNL     1      49.832   4.392  17.914  0.00  0.00    +0.000 OA
ATOM     27  H   UNL     1      48.029   3.913  19.502  0.00  0.00    +0.000 HD
ATOM     28  H   UNL     1      46.717   4.206  18.407  0.00  0.00    +0.000 HD
ENDBRANCH  18  25
ENDBRANCH  16  21
ENDBRANCH   1  16
TORSDOF 5
ENDMDL
MODEL 6
REMARK VINA RESULT:    -7.014      2.853      4.496
REMARK INTER + INTRA:         -10.084
REMARK INTER:                  -8.982
REMARK INTRA:                  -1.101
REMARK UNBOUND:                -1.020
REMARK  Name = 
REMARK  5 active torsions:
REMARK  status: ('A' for Active; 'I' for Inactive)
REMARK    1  A    between atoms: C_2  and  C_4
REMARK    2  A    between atoms: C_7  and  N_8
REMARK    3  A    between atoms: N_8  and  C_9
REMARK    4  A    between atoms: C_9  and  C_10
REMARK    5  A    between atoms: C_14  and  C_15
REMARK                            x       y       z     vdW  Elec       q    Type
REMARK                         _______ _______ _______ _____ _____    ______ ____
ROOT
ATOM      1  C   UNL     1      48.005   8.043  12.597  0.00  0.00    +0.000 C 
ATOM      2  C   UNL     1      48.635   9.150  11.757  0.00  0.00    +0.000 C 
ATOM      3  C   UNL     1      49.069   7.735  11.565  0.00  0.00    +0.000 C 
ENDROOT
BRANCH   1   4
ATOM      4  C   UNL     1      48.357   7.955  14.081  0.00  0.00    +0.000 A 
ATOM      5  C   UNL     1      48.330   9.084  14.913  0.00  0.00    +0.000 A 
ATOM      6  C   UNL     1      48.519   8.976  16.289  0.00  0.00    +0.000 A 
ATOM      7  C   UNL     1      48.701   7.722  16.873  0.00  0.00    +0.000 A 
ATOM      8  C   UNL     1      48.726   6.556  16.094  0.00  0.00    +0.000 A 
ATOM      9  C   UNL     1      48.605   6.711  14.699  0.00  0.00    +0.000 A 
BRANCH   8  10
ATOM     10  C   UNL     1      48.791   5.209  16.697  0.00  0.00    +0.000 A 
ATOM     11  C   UNL     1      47.652   4.410  16.839  0.00  0.00    +0.000 A 
ATOM     12  C   UNL     1      47.776   3.127  17.364  0.00  0.00    +0.000 A 
ATOM     13  C   UNL     1      49.028   2.664  17.736  0.00  0.00    +0.000 A 
ATOM     14  C   UNL     1      50.111   3.507  17.559  0.00  0.00    +0.000 A 
ATOM     15  N   UNL     1      50.022   4.756  17.047  0.00  0.00    +0.000 NA
ENDBRANCH   8  10
ENDBRANCH   1   4
BRANCH   1  16
ATOM     16  N   UNL     1      46.567   7.820  12.328  0.00  0.00    +0.000 N 
ATOM     17  H   UNL     1      45.948   8.309  12.972  0.00  0.00    +0.000 HD
BRANCH  16  21
ATOM     18  C   UNL     1      44.703   4.165  11.284  0.00  0.00    +0.000 A 
ATOM     19  C   UNL     1      45.221   4.981  10.277  0.00  0.00    +0.000 A 
ATOM     20  C   UNL     1      45.844   6.191  10.608  0.00  0.00    +0.000 A 
ATOM     21  C   UNL     1      46.008   6.583  11.940  0.00  0.00    +0.000 A 
ATOM     22  C   UNL     1      45.461   5.764  12.938  0.00  0.00    +0.000 A 
ATOM     23  C   UNL     1      44.808   4.567  12.617  0.00  0.00    +0.000 A 
BRANCH  18  25
ATOM     24  N   UNL     1      44.461   2.138   9.949  0.00  0.00    +0.000 N 
ATOM     25  C   UNL     1      43.980   2.906  10.974  0.00  0.00    +0.000 C 
ATOM     26  O   UNL     1      43.005   2.544  11.622  0.00  0.00    +0.000 OA
ATOM     27  H   UNL     1      44.006   1.249   9.800  0.00  0.00    +0.000 HD
ATOM     28  H   UNL     1      45.388   2.269   9.566  0.00  0.00    +0.000 HD
ENDBRANCH  18  25
ENDBRANCH  16  21
ENDBRANCH   1  16
TORSDOF 5
ENDMDL
MODEL 7
REMARK VINA RESULT:    -6.741      3.160      7.003
REMARK INTER + INTRA:          -9.731
REMARK INTER:                  -8.526
REMARK INTRA:                  -1.205
REMARK UNBOUND:                -1.020
REMARK  Name = 
REMARK  5 active torsions:
REMARK  status: ('A' for Active; 'I' for Inactive)
REMARK    1  A    between atoms: C_2  and  C_4
REMARK    2  A    between atoms: C_7  and  N_8
REMARK    3  A    between atoms: N_8  and  C_9
REMARK    4  A    between atoms: C_9  and  C_10
REMARK    5  A    between atoms: C_14  and  C_15
REMARK                            x       y       z     vdW  Elec       q    Type
REMARK                         _______ _______ _______ _____ _____    ______ ____
ROOT
ATOM      1  C   UNL     1      46.216   4.990  13.462  0.00  0.00    +0.000 C 
ATOM      2  C   UNL     1      45.979   4.262  14.781  0.00  0.00    +0.000 C 
ATOM      3  C   UNL     1      47.161   3.909  13.941  0.00  0.00    +0.000 C 
ENDROOT
BRANCH   1   4
ATOM      4  C   UNL     1      45.287   4.701  12.284  0.00  0.00    +0.000 A 
ATOM      5  C   UNL     1      44.021   5.297  12.181  0.00  0.00    +0.000 A 
ATOM      6  C   UNL     1      43.234   5.136  11.042  0.00  0.00    +0.000 A 
ATOM      7  C   UNL     1      43.717   4.403   9.958  0.00  0.00    +0.000 A 
ATOM      8  C   UNL     1      44.980   3.795   9.998  0.00  0.00    +0.000 A 
ATOM      9  C   UNL     1      45.715   3.916  11.193  0.00  0.00    +0.000 A 
BRANCH   8  10
ATOM     10  C   UNL     1      45.565   3.122   8.821  0.00  0.00    +0.000 A 
ATOM     11  C   UNL     1      45.939   3.833   7.676  0.00  0.00    +0.000 A 
ATOM     12  C   UNL     1      46.537   3.159   6.615  0.00  0.00    +0.000 A 
ATOM     13  C   UNL     1      46.752   1.794   6.713  0.00  0.00    +0.000 A 
ATOM     14  C   UNL     1      46.365   1.157   7.879  0.00  0.00    +0.000 A 
ATOM     15  N   UNL     1      45.786   1.786   8.929  0.00  0.00    +0.000 NA
ENDBRANCH   8  10
ENDBRANCH   1   4
BRANCH   1  16
ATOM     16  N   UNL     1      46.532   6.429  13.611  0.00  0.00    +0.000 N 
ATOM     17  H   UNL     1      45.726   7.040  13.498  0.00  0.00    +0.000 HD
BRANCH  16  21
ATOM     18  C   UNL     1      50.163   8.108  12.225  0.00  0.00    +0.000 A 
ATOM     19  C   UNL     1      49.124   7.882  11.320  0.00  0.00    +0.000 A 
ATOM     20  C   UNL     1      47.916   7.331  11.765  0.00  0.00    +0.000 A 
ATOM     21  C   UNL     1      47.702   7.046  13.117  0.00  0.00    +0.000 A 
ATOM     22  C   UNL     1      48.764   7.255  14.009  0.00  0.00    +0.000 A 
ATOM     23  C   UNL     1      49.987   7.776  13.570  0.00  0.00    +0.000 A 
BRANCH  18  25
ATOM     24  N   UNL     1      52.588   7.884  12.086  0.00  0.00    +0.000 N 
ATOM     25  C   UNL     1      51.481   8.631  11.785  0.00  0.00    +0.000 C 
ATOM     26  O   UNL     1      51.584   9.675  11.153  0.00  0.00    +0.000 OA
ATOM     27  H   UNL     1      53.467   8.213  11.714  0.00  0.00    +0.000 HD
ATOM     28  H   UNL     1      52.523   6.916  12.374  0.00  0.00    +0.000 HD
ENDBRANCH  18  25
ENDBRANCH  16  21
ENDBRANCH   1  16
TORSDOF 5
ENDMDL
MODEL 8
REMARK VINA RESULT:    -6.633      3.084      7.597
REMARK INTER + INTRA:          -9.592
REMARK INTER:                  -9.097
REMARK INTRA:                  -0.495
REMARK UNBOUND:                -1.020
REMARK  Name = 
REMARK  5 active torsions:
REMARK  status: ('A' for Active; 'I' for Inactive)
REMARK    1  A    between atoms: C_2  and  C_4
REMARK    2  A    between atoms: C_7  and  N_8
REMARK    3  A    between atoms: N_8  and  C_9
REMARK    4  A    between atoms: C_9  and  C_10
REMARK    5  A    between atoms: C_14  and  C_15
REMARK                            x       y       z     vdW  Elec       q    Type
REMARK                         _______ _______ _______ _____ _____    ______ ____
ROOT
ATOM      1  C   UNL     1      48.477   8.183  12.486  0.00  0.00    +0.000 C 
ATOM      2  C   UNL     1      49.314   8.911  11.439  0.00  0.00    +0.000 C 
ATOM      3  C   UNL     1      48.803   9.655  12.628  0.00  0.00    +0.000 C 
ENDROOT
BRANCH   1   4
ATOM      4  C   UNL     1      47.052   7.766  12.128  0.00  0.00    +0.000 A 
ATOM      5  C   UNL     1      45.961   8.625  12.328  0.00  0.00    +0.000 A 
ATOM      6  C   UNL     1      44.685   8.294  11.877  0.00  0.00    +0.000 A 
ATOM      7  C   UNL     1      44.478   7.105  11.176  0.00  0.00    +0.000 A 
ATOM      8  C   UNL     1      45.533   6.212  10.936  0.00  0.00    +0.000 A 
ATOM      9  C   UNL     1      46.792   6.545  11.471  0.00  0.00    +0.000 A 
BRANCH   8  10
ATOM     10  C   UNL     1      45.368   5.011  10.092  0.00  0.00    +0.000 A 
ATOM     11  C   UNL     1      44.665   3.888  10.538  0.00  0.00    +0.000 A 
ATOM     12  C   UNL     1      44.492   2.803   9.683  0.00  0.00    +0.000 A 
ATOM     13  C   UNL     1      45.018   2.858   8.402  0.00  0.00    +0.000 A 
ATOM     14  C   UNL     1      45.693   4.006   8.026  0.00  0.00    +0.000 A 
ATOM     15  N   UNL     1      45.874   5.077   8.833  0.00  0.00    +0.000 NA
ENDBRANCH   8  10
ENDBRANCH   1   4
BRANCH   1  16
ATOM     16  N   UNL     1      49.214   7.142  13.237  0.00  0.00    +0.000 N 
ATOM     17  H   UNL     1      49.749   6.510  12.644  0.00  0.00    +0.000 HD
BRANCH  16  21
ATOM     18  C   UNL     1      47.747   4.907  16.519  0.00  0.00    +0.000 A 
ATOM     19  C   UNL     1      48.716   5.888  16.737  0.00  0.00    +0.000 A 
ATOM     20  C   UNL     1      49.207   6.638  15.662  0.00  0.00    +0.000 A 
ATOM     21  C   UNL     1      48.710   6.463  14.367  0.00  0.00    +0.000 A 
ATOM     22  C   UNL     1      47.755   5.457  14.160  0.00  0.00    +0.000 A 
ATOM     23  C   UNL     1      47.280   4.679  15.223  0.00  0.00    +0.000 A 
BRANCH  18  25
ATOM     24  N   UNL     1      47.539   4.425  18.901  0.00  0.00    +0.000 N 
ATOM     25  C   UNL     1      47.246   4.046  17.620  0.00  0.00    +0.000 C 
ATOM     26  O   UNL     1      46.570   3.047  17.403  0.00  0.00    +0.000 OA
ATOM     27  H   UNL     1      47.127   3.875  19.640  0.00  0.00    +0.000 HD
ATOM     28  H   UNL     1      47.867   5.356  19.126  0.00  0.00    +0.000 HD
ENDBRANCH  18  25
ENDBRANCH  16  21
ENDBRANCH   1  16
TORSDOF 5
ENDMDL
MODEL 9
REMARK VINA RESULT:    -6.481      3.884      8.420
REMARK INTER + INTRA:          -9.395
REMARK INTER:                  -8.883
REMARK INTRA:                  -0.512
REMARK UNBOUND:                -1.020
REMARK  Name = 
REMARK  5 active torsions:
REMARK  status: ('A' for Active; 'I' for Inactive)
REMARK    1  A    between atoms: C_2  and  C_4
REMARK    2  A    between atoms: C_7  and  N_8
REMARK    3  A    between atoms: N_8  and  C_9
REMARK    4  A    between atoms: C_9  and  C_10
REMARK    5  A    between atoms: C_14  and  C_15
REMARK                            x       y       z     vdW  Elec       q    Type
REMARK                         _______ _______ _______ _____ _____    ______ ____
ROOT
ATOM      1  C   UNL     1      48.140   4.582  16.904  0.00  0.00    +0.000 C 
ATOM      2  C   UNL     1      47.139   4.695  18.050  0.00  0.00    +0.000 C 
ATOM      3  C   UNL     1      47.315   3.391  17.343  0.00  0.00    +0.000 C 
ENDROOT
BRANCH   1   4
ATOM      4  C   UNL     1      47.818   5.264  15.575  0.00  0.00    +0.000 A 
ATOM      5  C   UNL     1      48.628   6.284  15.056  0.00  0.00    +0.000 A 
ATOM      6  C   UNL     1      48.407   6.808  13.783  0.00  0.00    +0.000 A 
ATOM      7  C   UNL     1      47.388   6.292  12.982  0.00  0.00    +0.000 A 
ATOM      8  C   UNL     1      46.554   5.263  13.443  0.00  0.00    +0.000 A 
ATOM      9  C   UNL     1      46.759   4.810  14.761  0.00  0.00    +0.000 A 
BRANCH   8  10
ATOM     10  C   UNL     1      45.553   4.614  12.572  0.00  0.00    +0.000 A 
ATOM     11  C   UNL     1      45.484   4.884  11.202  0.00  0.00    +0.000 A 
ATOM     12  C   UNL     1      44.558   4.205  10.415  0.00  0.00    +0.000 A 
ATOM     13  C   UNL     1      43.721   3.271  11.006  0.00  0.00    +0.000 A 
ATOM     14  C   UNL     1      43.852   3.049  12.365  0.00  0.00    +0.000 A 
ATOM     15  N   UNL     1      44.746   3.690  13.154  0.00  0.00    +0.000 NA
ENDBRANCH   8  10
ENDBRANCH   1   4
BRANCH   1  16
ATOM     16  N   UNL     1      49.553   4.749  17.313  0.00  0.00    +0.000 N 
ATOM     17  H   UNL     1      49.986   5.598  16.956  0.00  0.00    +0.000 HD
BRANCH  16  21
ATOM     18  C   UNL     1      52.416   1.661  17.749  0.00  0.00    +0.000 A 
ATOM     19  C   UNL     1      51.139   1.350  17.276  0.00  0.00    +0.000 A 
ATOM     20  C   UNL     1      50.184   2.361  17.124  0.00  0.00    +0.000 A 
ATOM     21  C   UNL     1      50.494   3.699  17.385  0.00  0.00    +0.000 A 
ATOM     22  C   UNL     1      51.772   3.992  17.882  0.00  0.00    +0.000 A 
ATOM     23  C   UNL     1      52.726   2.984  18.070  0.00  0.00    +0.000 A 
BRANCH  18  25
ATOM     24  N   UNL     1      52.997  -0.619  18.391  0.00  0.00    +0.000 N 
ATOM     25  C   UNL     1      53.438   0.611  17.986  0.00  0.00    +0.000 C 
ATOM     26  O   UNL     1      54.632   0.818  17.803  0.00  0.00    +0.000 OA
ATOM     27  H   UNL     1      53.696  -1.344  18.473  0.00  0.00    +0.000 HD
ATOM     28  H   UNL     1      52.028  -0.898  18.308  0.00  0.00    +0.000 HD
ENDBRANCH  18  25
ENDBRANCH  16  21
ENDBRANCH   1  16
TORSDOF 5
ENDMDL
