MODEL 1
REMARK VINA RESULT:    -8.805      0.000      0.000
REMARK INTER + INTRA:         -11.462
REMARK INTER:                 -10.864
REMARK INTRA:                  -0.598
REMARK UNBOUND:                -0.598
REMARK  Name = 
REMARK  5 active torsions:
REMARK  status: ('A' for Active; 'I' for Inactive)
REMARK    1  A    between atoms: C_1  and  C_2
REMARK    2  A    between atoms: N_5  and  C_6
REMARK    3  A    between atoms: C_6  and  C_7
REMARK    4  A    between atoms: C_11  and  C_12
REMARK    5  A    between atoms: C_23  and  C_24
REMARK                            x       y       z     vdW  Elec       q    Type
REMARK                         _______ _______ _______ _____ _____    ______ ____
ROOT
ATOM      1  C   UNL     1      44.126   4.155  11.533  0.00  0.00    +0.000 C 
ENDROOT
BRANCH   1   6
ATOM      2  C   UNL     1      46.605   0.224   7.591  0.00  0.00    +0.000 C 
ATOM      3  C   UNL     1      46.269   1.626   8.012  0.00  0.00    +0.000 A 
ATOM      4  N   UNL     1      45.598   1.727   9.202  0.00  0.00    +0.000 NA
ATOM      5  C   UNL     1      45.242   2.941   9.664  0.00  0.00    +0.000 A 
ATOM      6  N   UNL     1      44.556   2.952  10.847  0.00  0.00    +0.000 N 
ATOM      7  C   UNL     1      45.554   4.089   8.953  0.00  0.00    +0.000 A 
ATOM      8  C   UNL     1      46.235   3.995   7.740  0.00  0.00    +0.000 A 
ATOM      9  C   UNL     1      46.595   2.743   7.241  0.00  0.00    +0.000 A 
ATOM     10  H   UNL     1      44.441   2.049  11.290  0.00  0.00    +0.000 HD
BRANCH   9  11
ATOM     11  C   UNL     1      47.319   2.634   5.945  0.00  0.00    +0.000 C 
ATOM     12  N   UNL     1      48.667   2.392   5.996  0.00  0.00    +0.000 N 
ATOM     13  O   UNL     1      46.766   2.762   4.863  0.00  0.00    +0.000 OA
ATOM     14  H   UNL     1      49.219   2.449   6.840  0.00  0.00    +0.000 HD
ATOM     15  H   UNL     1      49.158   2.390   5.111  0.00  0.00    +0.000 HD
ENDBRANCH   9  11
ENDBRANCH   1   6
BRANCH   1  16
ATOM     16  C   UNL     1      45.192   4.752  12.439  0.00  0.00    +0.000 A 
ATOM     17  N   UNL     1      45.515   4.071  13.556  0.00  0.00    +0.000 NA
ATOM     18  C   UNL     1      46.495   4.592  14.310  0.00  0.00    +0.000 A 
ATOM     19  C   UNL     1      47.159   5.752  13.996  0.00  0.00    +0.000 A 
ATOM     20  C   UNL     1      46.773   6.394  12.834  0.00  0.00    +0.000 A 
ATOM     21  N   UNL     1      45.781   5.905  12.054  0.00  0.00    +0.000 NA
BRANCH  20  22
ATOM     22  C   UNL     1      47.414   7.638  12.353  0.00  0.00    +0.000 A 
ATOM     23  C   UNL     1      48.754   7.643  11.925  0.00  0.00    +0.000 A 
ATOM     24  C   UNL     1      49.371   8.812  11.463  0.00  0.00    +0.000 A 
ATOM     25  C   UNL     1      48.661  10.011  11.426  0.00  0.00    +0.000 A 
ATOM     26 CL   UNL     1      49.476  11.418  10.845  0.00  0.00    +0.000 Cl
ATOM     27  C   UNL     1      47.334  10.037  11.857  0.00  0.00    +0.000 A 
ATOM     28 CL   UNL     1      46.385  11.481  11.853  0.00  0.00    +0.000 Cl
ATOM     29  C   UNL     1      46.722   8.863  12.317  0.00  0.00    +0.000 A 
ENDBRANCH  20  22
ENDBRANCH   1  16
TORSDOF 4
ENDMDL
MODEL 2
REMARK VINA RESULT:    -8.717      3.089      3.979
REMARK INTER + INTRA:         -11.353
REMARK INTER:                 -11.524
REMARK INTRA:                   0.170
REMARK UNBOUND:                -0.598
REMARK  Name = 
REMARK  5 active torsions:
REMARK  status: ('A' for Active; 'I' for Inactive)
REMARK    1  A    between atoms: C_1  and  C_2
REMARK    2  A    between atoms: N_5  and  C_6
REMARK    3  A    between atoms: C_6  and  C_7
REMARK    4  A    between atoms: C_11  and  C_12
REMARK    5  A    between atoms: C_23  and  C_24
REMARK                            x       y       z     vdW  Elec       q    Type
REMARK                         _______ _______ _______ _____ _____    ______ ____
ROOT
ATOM      1  C   UNL     1      43.559   3.804  11.410  0.00  0.00    +0.000 C 
ENDROOT
BRANCH   1   6
ATOM      2  C   UNL     1      46.782   0.240   7.661  0.00  0.00    +0.000 C 
ATOM      3  C   UNL     1      46.245   1.586   8.055  0.00  0.00    +0.000 A 
ATOM      4  N   UNL     1      45.484   1.594   9.193  0.00  0.00    +0.000 NA
ATOM      5  C   UNL     1      44.946   2.751   9.627  0.00  0.00    +0.000 A 
ATOM      6  N   UNL     1      44.184   2.668  10.758  0.00  0.00    +0.000 N 
ATOM      7  C   UNL     1      45.162   3.934   8.937  0.00  0.00    +0.000 A 
ATOM      8  C   UNL     1      45.934   3.934   7.776  0.00  0.00    +0.000 A 
ATOM      9  C   UNL     1      46.482   2.740   7.306  0.00  0.00    +0.000 A 
ATOM     10  H   UNL     1      44.151   1.755  11.194  0.00  0.00    +0.000 HD
BRANCH   9  11
ATOM     11  C   UNL     1      47.303   2.731   6.065  0.00  0.00    +0.000 C 
ATOM     12  N   UNL     1      48.657   2.569   6.208  0.00  0.00    +0.000 N 
ATOM     13  O   UNL     1      46.823   2.871   4.950  0.00  0.00    +0.000 OA
ATOM     14  H   UNL     1      49.141   2.623   7.092  0.00  0.00    +0.000 HD
ATOM     15  H   UNL     1      49.210   2.635   5.363  0.00  0.00    +0.000 HD
ENDBRANCH   9  11
ENDBRANCH   1   6
BRANCH   1  16
ATOM     16  C   UNL     1      44.535   4.917  11.757  0.00  0.00    +0.000 A 
ATOM     17  N   UNL     1      44.500   6.035  11.006  0.00  0.00    +0.000 NA
ATOM     18  C   UNL     1      45.335   7.022  11.366  0.00  0.00    +0.000 A 
ATOM     19  C   UNL     1      46.193   6.938  12.435  0.00  0.00    +0.000 A 
ATOM     20  C   UNL     1      46.171   5.759  13.159  0.00  0.00    +0.000 A 
ATOM     21  N   UNL     1      45.351   4.738  12.819  0.00  0.00    +0.000 NA
BRANCH  20  22
ATOM     22  C   UNL     1      47.019   5.534  14.350  0.00  0.00    +0.000 A 
ATOM     23  C   UNL     1      48.103   6.382  14.639  0.00  0.00    +0.000 A 
ATOM     24  C   UNL     1      48.910   6.182  15.766  0.00  0.00    +0.000 A 
ATOM     25  C   UNL     1      48.653   5.120  16.631  0.00  0.00    +0.000 A 
ATOM     26 CL   UNL     1      49.682   4.927  18.005  0.00  0.00    +0.000 Cl
ATOM     27  C   UNL     1      47.591   4.255  16.362  0.00  0.00    +0.000 A 
ATOM     28 CL   UNL     1      47.210   2.909  17.377  0.00  0.00    +0.000 Cl
ATOM     29  C   UNL     1      46.788   4.461  15.233  0.00  0.00    +0.000 A 
ENDBRANCH  20  22
ENDBRANCH   1  16
TORSDOF 4
ENDMDL
MODEL 3
REMARK VINA RESULT:    -8.290      4.286      7.300
REMARK INTER + INTRA:         -10.827
REMARK INTER:                 -10.102
REMARK INTRA:                  -0.725
REMARK UNBOUND:                -0.598
REMARK  Name = 
REMARK  5 active torsions:
REMARK  status: ('A' for Active; 'I' for Inactive)
REMARK    1  A    between atoms: C_1  and  C_2
REMARK    2  A    between atoms: N_5  and  C_6
REMARK    3  A    between atoms: C_6  and  C_7
REMARK    4  A    between atoms: C_11  and  C_12
REMARK    5  A    between atoms: C_23  and  C_24
REMARK                            x       y       z     vdW  Elec       q    Type
REMARK                         _______ _______ _______ _____ _____    ______ ____
ROOT
ATOM      1  C   UNL     1      44.562   6.325  12.750  0.00  0.00    +0.000 C 
ENDROOT
BRANCH   1   6
ATOM      2  C   UNL     1      50.202   7.338  14.825  0.00  0.00    +0.000 C 
ATOM      3  C   UNL     1      49.184   7.366  13.722  0.00  0.00    +0.000 A 
ATOM      4  N   UNL     1      47.941   6.907  14.070  0.00  0.00    +0.000 NA
ATOM      5  C   UNL     1      46.958   6.883  13.149  0.00  0.00    +0.000 A 
ATOM      6  N   UNL     1      45.755   6.392  13.573  0.00  0.00    +0.000 N 
ATOM      7  C   UNL     1      47.190   7.324  11.855  0.00  0.00    +0.000 A 
ATOM      8  C   UNL     1      48.452   7.790  11.492  0.00  0.00    +0.000 A 
ATOM      9  C   UNL     1      49.484   7.804  12.431  0.00  0.00    +0.000 A 
ATOM     10  H   UNL     1      45.705   6.154  14.556  0.00  0.00    +0.000 HD
BRANCH   9  11
ATOM     11  C   UNL     1      50.835   8.297  12.049  0.00  0.00    +0.000 C 
ATOM     12  N   UNL     1      51.673   7.414  11.418  0.00  0.00    +0.000 N 
ATOM     13  O   UNL     1      51.218   9.434  12.283  0.00  0.00    +0.000 OA
ATOM     14  H   UNL     1      51.496   6.422  11.349  0.00  0.00    +0.000 HD
ATOM     15  H   UNL     1      52.611   7.740  11.228  0.00  0.00    +0.000 HD
ENDBRANCH   9  11
ENDBRANCH   1   6
BRANCH   1  16
ATOM     16  C   UNL     1      44.319   4.952  12.143  0.00  0.00    +0.000 A 
ATOM     17  N   UNL     1      43.425   4.149  12.754  0.00  0.00    +0.000 NA
ATOM     18  C   UNL     1      43.190   2.965  12.169  0.00  0.00    +0.000 A 
ATOM     19  C   UNL     1      43.805   2.555  11.011  0.00  0.00    +0.000 A 
ATOM     20  C   UNL     1      44.709   3.434  10.442  0.00  0.00    +0.000 A 
ATOM     21  N   UNL     1      44.979   4.633  11.010  0.00  0.00    +0.000 NA
BRANCH  20  22
ATOM     22  C   UNL     1      45.427   3.143   9.182  0.00  0.00    +0.000 A 
ATOM     23  C   UNL     1      45.760   4.173   8.284  0.00  0.00    +0.000 A 
ATOM     24  C   UNL     1      46.444   3.910   7.090  0.00  0.00    +0.000 A 
ATOM     25  C   UNL     1      46.805   2.604   6.762  0.00  0.00    +0.000 A 
ATOM     26 CL   UNL     1      47.649   2.345   5.278  0.00  0.00    +0.000 Cl
ATOM     27  C   UNL     1      46.476   1.562   7.629  0.00  0.00    +0.000 A 
ATOM     28 CL   UNL     1      46.877  -0.086   7.296  0.00  0.00    +0.000 Cl
ATOM     29  C   UNL     1      45.792   1.831   8.822  0.00  0.00    +0.000 A 
ENDBRANCH  20  22
ENDBRANCH   1  16
TORSDOF 4
ENDMDL
MODEL 4
REMARK VINA RESULT:    -8.154      5.125      8.411
REMARK INTER + INTRA:         -10.658
REMARK INTER:                 -10.186
REMARK INTRA:                  -0.472
REMARK UNBOUND:                -0.598
REMARK  Name = 
REMARK  5 active torsions:
REMARK  status: ('A' for Active; 'I' for Inactive)
REMARK    1  A    between atoms: C_1  and  C_2
REMARK    2  A    between atoms: N_5  and  C_6
REMARK    3  A    between atoms: C_6  and  C_7
REMARK    4  A    between atoms: C_11  and  C_12
REMARK    5  A    between atoms: C_23  and  C_24
REMARK                            x       y       z     vdW  Elec       q    Type
REMARK                         _______ _______ _______ _____ _____    ______ ____
ROOT
ATOM      1  C   UNL     1      45.867   5.083  13.895  0.00  0.00    +0.000 C 
ENDROOT
BRANCH   1   6
ATOM      2  C   UNL     1      49.760   1.785  17.229  0.00  0.00    +0.000 C 
ATOM      3  C   UNL     1      49.104   3.092  16.887  0.00  0.00    +0.000 A 
ATOM      4  N   UNL     1      48.195   3.032  15.863  0.00  0.00    +0.000 NA
ATOM      5  C   UNL     1      47.558   4.153  15.472  0.00  0.00    +0.000 A 
ATOM      6  N   UNL     1      46.683   4.010  14.431  0.00  0.00    +0.000 N 
ATOM      7  C   UNL     1      47.807   5.364  16.100  0.00  0.00    +0.000 A 
ATOM      8  C   UNL     1      48.731   5.434  17.140  0.00  0.00    +0.000 A 
ATOM      9  C   UNL     1      49.412   4.284  17.544  0.00  0.00    +0.000 A 
ATOM     10  H   UNL     1      46.554   3.062  14.099  0.00  0.00    +0.000 HD
BRANCH   9  11
ATOM     11  C   UNL     1      50.403   4.352  18.651  0.00  0.00    +0.000 C 
ATOM     12  N   UNL     1      49.917   4.339  19.933  0.00  0.00    +0.000 N 
ATOM     13  O   UNL     1      51.608   4.427  18.460  0.00  0.00    +0.000 OA
ATOM     14  H   UNL     1      48.941   4.454  20.167  0.00  0.00    +0.000 HD
ATOM     15  H   UNL     1      50.596   4.455  20.674  0.00  0.00    +0.000 HD
ENDBRANCH   9  11
ENDBRANCH   1   6
BRANCH   1  16
ATOM     16  C   UNL     1      44.972   4.648  12.745  0.00  0.00    +0.000 A 
ATOM     17  N   UNL     1      43.640   4.756  12.915  0.00  0.00    +0.000 NA
ATOM     18  C   UNL     1      42.875   4.415  11.867  0.00  0.00    +0.000 A 
ATOM     19  C   UNL     1      43.383   3.976  10.668  0.00  0.00    +0.000 A 
ATOM     20  C   UNL     1      44.759   3.893  10.569  0.00  0.00    +0.000 A 
ATOM     21  N   UNL     1      45.562   4.217  11.609  0.00  0.00    +0.000 NA
BRANCH  20  22
ATOM     22  C   UNL     1      45.450   3.463   9.333  0.00  0.00    +0.000 A 
ATOM     23  C   UNL     1      45.842   4.400   8.360  0.00  0.00    +0.000 A 
ATOM     24  C   UNL     1      46.502   4.007   7.188  0.00  0.00    +0.000 A 
ATOM     25  C   UNL     1      46.778   2.660   6.958  0.00  0.00    +0.000 A 
ATOM     26 CL   UNL     1      47.594   2.238   5.497  0.00  0.00    +0.000 Cl
ATOM     27  C   UNL     1      46.389   1.708   7.902  0.00  0.00    +0.000 A 
ATOM     28 CL   UNL     1      46.684   0.018   7.692  0.00  0.00    +0.000 Cl
ATOM     29  C   UNL     1      45.730   2.109   9.072  0.00  0.00    +0.000 A 
ENDBRANCH  20  22
ENDBRANCH   1  16
TORSDOF 4
ENDMDL
MODEL 5
REMARK VINA RESULT:    -7.874      5.320      8.474
REMARK INTER + INTRA:         -10.313
REMARK INTER:                  -9.820
REMARK INTRA:                  -0.492
REMARK UNBOUND:                -0.598
REMARK  Name = 
REMARK  5 active torsions:
REMARK  status: ('A' for Active; 'I' for Inactive)
REMARK    1  A    between atoms: C_1  and  C_2
REMARK    2  A    between atoms: N_5  and  C_6
REMARK    3  A    between atoms: C_6  and  C_7
REMARK    4  A    between atoms: C_11  and  C_12
REMARK    5  A    between atoms: C_23  and  C_24
REMARK                            x       y       z     vdW  Elec       q    Type
REMARK                         _______ _______ _______ _____ _____    ______ ____
ROOT
ATOM      1  C   UNL     1      45.326   4.069  14.049  0.00  0.00    +0.000 C 
ENDROOT
BRANCH   1   6
ATOM      2  C   UNL     1      50.329   6.666  16.366  0.00  0.00    +0.000 C 
ATOM      3  C   UNL     1      49.231   5.643  16.428  0.00  0.00    +0.000 A 
ATOM      4  N   UNL     1      48.343   5.685  15.387  0.00  0.00    +0.000 NA
ATOM      5  C   UNL     1      47.314   4.815  15.354  0.00  0.00    +0.000 A 
ATOM      6  N   UNL     1      46.462   4.937  14.292  0.00  0.00    +0.000 N 
ATOM      7  C   UNL     1      47.151   3.873  16.358  0.00  0.00    +0.000 A 
ATOM      8  C   UNL     1      48.050   3.826  17.422  0.00  0.00    +0.000 A 
ATOM      9  C   UNL     1      49.109   4.732  17.479  0.00  0.00    +0.000 A 
ATOM     10  H   UNL     1      46.726   5.630  13.602  0.00  0.00    +0.000 HD
BRANCH   9  11
ATOM     11  C   UNL     1      50.071   4.690  18.614  0.00  0.00    +0.000 C 
ATOM     12  N   UNL     1      51.056   3.738  18.569  0.00  0.00    +0.000 N 
ATOM     13  O   UNL     1      50.006   5.451  19.568  0.00  0.00    +0.000 OA
ATOM     14  H   UNL     1      51.070   2.971  17.911  0.00  0.00    +0.000 HD
ATOM     15  H   UNL     1      51.660   3.675  19.379  0.00  0.00    +0.000 HD
ENDBRANCH   9  11
ENDBRANCH   1   6
BRANCH   1  16
ATOM     16  C   UNL     1      44.665   4.297  12.699  0.00  0.00    +0.000 A 
ATOM     17  N   UNL     1      43.510   4.990  12.678  0.00  0.00    +0.000 NA
ATOM     18  C   UNL     1      42.975   5.222  11.469  0.00  0.00    +0.000 A 
ATOM     19  C   UNL     1      43.543   4.795  10.294  0.00  0.00    +0.000 A 
ATOM     20  C   UNL     1      44.729   4.091  10.396  0.00  0.00    +0.000 A 
ATOM     21  N   UNL     1      45.291   3.828  11.598  0.00  0.00    +0.000 NA
BRANCH  20  22
ATOM     22  C   UNL     1      45.469   3.592   9.216  0.00  0.00    +0.000 A 
ATOM     23  C   UNL     1      45.960   4.479   8.240  0.00  0.00    +0.000 A 
ATOM     24  C   UNL     1      46.667   4.019   7.122  0.00  0.00    +0.000 A 
ATOM     25  C   UNL     1      46.893   2.655   6.949  0.00  0.00    +0.000 A 
ATOM     26 CL   UNL     1      47.772   2.150   5.551  0.00  0.00    +0.000 Cl
ATOM     27  C   UNL     1      46.406   1.751   7.895  0.00  0.00    +0.000 A 
ATOM     28 CL   UNL     1      46.635   0.044   7.753  0.00  0.00    +0.000 Cl
ATOM     29  C   UNL     1      45.701   2.218   9.012  0.00  0.00    +0.000 A 
ENDBRANCH  20  22
ENDBRANCH   1  16
TORSDOF 4
ENDMDL
MODEL 6
REMARK VINA RESULT:    -7.869      4.147      7.403
REMARK INTER + INTRA:         -10.307
REMARK INTER:                  -9.694
REMARK INTRA:                  -0.614
REMARK UNBOUND:                -0.598
REMARK  Name = 
REMARK  5 active torsions:
REMARK  status: ('A' for Active; 'I' for Inactive)
REMARK    1  A    between atoms: C_1  and  C_2
REMARK    2  A    between atoms: N_5  and  C_6
REMARK    3  A    between atoms: C_6  and  C_7
REMARK    4  A    between atoms: C_11  and  C_12
REMARK    5  A    between atoms: C_23  and  C_24
REMARK                            x       y       z     vdW  Elec       q    Type
REMARK                         _______ _______ _______ _____ _____    ______ ____
ROOT
ATOM      1  C   UNL     1      45.918   4.731  13.936  0.00  0.00    +0.000 C 
ENDROOT
BRANCH   1   6
ATOM      2  C   UNL     1      50.740   8.042  12.225  0.00  0.00    +0.000 C 
ATOM      3  C   UNL     1      49.271   7.911  12.510  0.00  0.00    +0.000 A 
ATOM      4  N   UNL     1      48.870   6.664  12.912  0.00  0.00    +0.000 NA
ATOM      5  C   UNL     1      47.569   6.439  13.183  0.00  0.00    +0.000 A 
ATOM      6  N   UNL     1      47.250   5.164  13.558  0.00  0.00    +0.000 N 
ATOM      7  C   UNL     1      46.635   7.457  13.067  0.00  0.00    +0.000 A 
ATOM      8  C   UNL     1      47.035   8.727  12.656  0.00  0.00    +0.000 A 
ATOM      9  C   UNL     1      48.375   8.971  12.355  0.00  0.00    +0.000 A 
ATOM     10  H   UNL     1      48.034   4.531  13.655  0.00  0.00    +0.000 HD
BRANCH   9  11
ATOM     11  C   UNL     1      48.809  10.323  11.912  0.00  0.00    +0.000 C 
ATOM     12  N   UNL     1      49.013  11.268  12.884  0.00  0.00    +0.000 N 
ATOM     13  O   UNL     1      48.976  10.616  10.737  0.00  0.00    +0.000 OA
ATOM     14  H   UNL     1      48.731  11.156  13.847  0.00  0.00    +0.000 HD
ATOM     15  H   UNL     1      49.240  12.201  12.564  0.00  0.00    +0.000 HD
ENDBRANCH   9  11
ENDBRANCH   1   6
BRANCH   1  16
ATOM     16  C   UNL     1      45.009   4.454  12.749  0.00  0.00    +0.000 A 
ATOM     17  N   UNL     1      43.691   4.689  12.903  0.00  0.00    +0.000 NA
ATOM     18  C   UNL     1      42.919   4.487  11.825  0.00  0.00    +0.000 A 
ATOM     19  C   UNL     1      43.405   4.064  10.612  0.00  0.00    +0.000 A 
ATOM     20  C   UNL     1      44.768   3.845  10.530  0.00  0.00    +0.000 A 
ATOM     21  N   UNL     1      45.577   4.027  11.600  0.00  0.00    +0.000 NA
BRANCH  20  22
ATOM     22  C   UNL     1      45.438   3.414   9.284  0.00  0.00    +0.000 A 
ATOM     23  C   UNL     1      45.810   4.350   8.301  0.00  0.00    +0.000 A 
ATOM     24  C   UNL     1      46.450   3.956   7.119  0.00  0.00    +0.000 A 
ATOM     25  C   UNL     1      46.727   2.609   6.888  0.00  0.00    +0.000 A 
ATOM     26 CL   UNL     1      47.519   2.186   5.413  0.00  0.00    +0.000 Cl
ATOM     27  C   UNL     1      46.358   1.658   7.841  0.00  0.00    +0.000 A 
ATOM     28 CL   UNL     1      46.655  -0.031   7.630  0.00  0.00    +0.000 Cl
ATOM     29  C   UNL     1      45.719   2.060   9.021  0.00  0.00    +0.000 A 
ENDBRANCH  20  22
ENDBRANCH   1  16
TORSDOF 4
ENDMDL
MODEL 7
REMARK VINA RESULT:    -7.838      4.313      7.386
REMARK INTER + INTRA:         -10.269
REMARK INTER:                 -10.461
REMARK INTRA:                   0.192
REMARK UNBOUND:                -0.598
REMARK  Name = 
REMARK  5 active torsions:
REMARK  status: ('A' for Active; 'I' for Inactive)
REMARK    1  A    between atoms: C_1  and  C_2
REMARK    2  A    between atoms: N_5  and  C_6
REMARK    3  A    between atoms: C_6  and  C_7
REMARK    4  A    between atoms: C_11  and  C_12
REMARK    5  A    between atoms: C_23  and  C_24
REMARK                            x       y       z     vdW  Elec       q    Type
REMARK                         _______ _______ _______ _____ _____    ______ ____
ROOT
ATOM      1  C   UNL     1      42.668   6.473  11.456  0.00  0.00    +0.000 C 
ENDROOT
BRANCH   1   6
ATOM      2  C   UNL     1      47.763   9.788  11.897  0.00  0.00    +0.000 C 
ATOM      3  C   UNL     1      46.940   8.589  12.271  0.00  0.00    +0.000 A 
ATOM      4  N   UNL     1      45.709   8.524  11.673  0.00  0.00    +0.000 NA
ATOM      5  C   UNL     1      44.889   7.491  11.950  0.00  0.00    +0.000 A 
ATOM      6  N   UNL     1      43.672   7.512  11.328  0.00  0.00    +0.000 N 
ATOM      7  C   UNL     1      45.280   6.491  12.826  0.00  0.00    +0.000 A 
ATOM      8  C   UNL     1      46.530   6.551  13.440  0.00  0.00    +0.000 A 
ATOM      9  C   UNL     1      47.383   7.623  13.177  0.00  0.00    +0.000 A 
ATOM     10  H   UNL     1      43.533   8.271  10.671  0.00  0.00    +0.000 HD
BRANCH   9  11
ATOM     11  C   UNL     1      48.717   7.696  13.831  0.00  0.00    +0.000 C 
ATOM     12  N   UNL     1      49.766   7.085  13.194  0.00  0.00    +0.000 N 
ATOM     13  O   UNL     1      48.903   8.262  14.899  0.00  0.00    +0.000 OA
ATOM     14  H   UNL     1      49.660   6.457  12.410  0.00  0.00    +0.000 HD
ATOM     15  H   UNL     1      50.651   7.082  13.683  0.00  0.00    +0.000 HD
ENDBRANCH   9  11
ENDBRANCH   1   6
BRANCH   1  16
ATOM     16  C   UNL     1      43.241   5.066  11.402  0.00  0.00    +0.000 A 
ATOM     17  N   UNL     1      42.901   4.215  12.390  0.00  0.00    +0.000 NA
ATOM     18  C   UNL     1      43.378   2.964  12.291  0.00  0.00    +0.000 A 
ATOM     19  C   UNL     1      44.172   2.535  11.256  0.00  0.00    +0.000 A 
ATOM     20  C   UNL     1      44.478   3.465  10.280  0.00  0.00    +0.000 A 
ATOM     21  N   UNL     1      44.024   4.738  10.352  0.00  0.00    +0.000 NA
BRANCH  20  22
ATOM     22  C   UNL     1      45.299   3.141   9.093  0.00  0.00    +0.000 A 
ATOM     23  C   UNL     1      45.730   4.151   8.213  0.00  0.00    +0.000 A 
ATOM     24  C   UNL     1      46.513   3.858   7.089  0.00  0.00    +0.000 A 
ATOM     25  C   UNL     1      46.877   2.541   6.813  0.00  0.00    +0.000 A 
ATOM     26 CL   UNL     1      47.844   2.244   5.414  0.00  0.00    +0.000 Cl
ATOM     27  C   UNL     1      46.452   1.518   7.662  0.00  0.00    +0.000 A 
ATOM     28 CL   UNL     1      46.851  -0.141   7.389  0.00  0.00    +0.000 Cl
ATOM     29  C   UNL     1      45.670   1.818   8.786  0.00  0.00    +0.000 A 
ENDBRANCH  20  22
ENDBRANCH   1  16
TORSDOF 4
ENDMDL
MODEL 8
REMARK VINA RESULT:    -7.515      1.926      2.533
REMARK INTER + INTRA:          -9.870
REMARK INTER:                  -9.859
REMARK INTRA:                  -0.010
REMARK UNBOUND:                -0.598
REMARK  Name = 
REMARK  5 active torsions:
REMARK  status: ('A' for Active; 'I' for Inactive)
REMARK    1  A    between atoms: C_1  and  C_2
REMARK    2  A    between atoms: N_5  and  C_6
REMARK    3  A    between atoms: C_6  and  C_7
REMARK    4  A    between atoms: C_11  and  C_12
REMARK    5  A    between atoms: C_23  and  C_24
REMARK                            x       y       z     vdW  Elec       q    Type
REMARK                         _______ _______ _______ _____ _____    ______ ____
ROOT
ATOM      1  C   UNL     1      43.616   5.223  10.885  0.00  0.00    +0.000 C 
ENDROOT
BRANCH   1   6
ATOM      2  C   UNL     1      46.595   3.531   5.844  0.00  0.00    +0.000 C 
ATOM      3  C   UNL     1      46.080   3.242   7.225  0.00  0.00    +0.000 A 
ATOM      4  N   UNL     1      45.400   4.273   7.816  0.00  0.00    +0.000 NA
ATOM      5  C   UNL     1      44.904   4.118   9.060  0.00  0.00    +0.000 A 
ATOM      6  N   UNL     1      44.258   5.202   9.584  0.00  0.00    +0.000 N 
ATOM      7  C   UNL     1      45.070   2.924   9.744  0.00  0.00    +0.000 A 
ATOM      8  C   UNL     1      45.763   1.870   9.150  0.00  0.00    +0.000 A 
ATOM      9  C   UNL     1      46.296   2.022   7.870  0.00  0.00    +0.000 A 
ATOM     10  H   UNL     1      44.160   5.994   8.960  0.00  0.00    +0.000 HD
BRANCH   9  11
ATOM     11  C   UNL     1      47.040   0.903   7.231  0.00  0.00    +0.000 C 
ATOM     12  N   UNL     1      46.721  -0.371   7.625  0.00  0.00    +0.000 N 
ATOM     13  O   UNL     1      47.914   1.079   6.395  0.00  0.00    +0.000 OA
ATOM     14  H   UNL     1      46.144  -0.585   8.425  0.00  0.00    +0.000 HD
ATOM     15  H   UNL     1      47.282  -1.117   7.234  0.00  0.00    +0.000 HD
ENDBRANCH   9  11
ENDBRANCH   1   6
BRANCH   1  16
ATOM     16  C   UNL     1      44.596   5.199  12.046  0.00  0.00    +0.000 A 
ATOM     17  N   UNL     1      44.357   4.330  13.048  0.00  0.00    +0.000 NA
ATOM     18  C   UNL     1      45.265   4.292  14.035  0.00  0.00    +0.000 A 
ATOM     19  C   UNL     1      46.391   5.078  14.061  0.00  0.00    +0.000 A 
ATOM     20  C   UNL     1      46.569   5.945  12.997  0.00  0.00    +0.000 A 
ATOM     21  N   UNL     1      45.668   6.018  11.990  0.00  0.00    +0.000 NA
BRANCH  20  22
ATOM     22  C   UNL     1      47.746   6.832  12.874  0.00  0.00    +0.000 A 
ATOM     23  C   UNL     1      47.874   7.719  11.789  0.00  0.00    +0.000 A 
ATOM     24  C   UNL     1      48.981   8.568  11.664  0.00  0.00    +0.000 A 
ATOM     25  C   UNL     1      49.993   8.544  12.622  0.00  0.00    +0.000 A 
ATOM     26 CL   UNL     1      51.331   9.616  12.413  0.00  0.00    +0.000 Cl
ATOM     27  C   UNL     1      49.898   7.666  13.702  0.00  0.00    +0.000 A 
ATOM     28 CL   UNL     1      51.112   7.566  14.928  0.00  0.00    +0.000 Cl
ATOM     29  C   UNL     1      48.787   6.819  13.821  0.00  0.00    +0.000 A 
ENDBRANCH  20  22
ENDBRANCH   1  16
TORSDOF 4
ENDMDL
MODEL 9
REMARK VINA RESULT:    -7.071      6.000      7.820
REMARK INTER + INTRA:          -9.322
REMARK INTER:                  -8.880
REMARK INTRA:                  -0.442
REMARK UNBOUND:                -0.598
REMARK  Name = 
REMARK  5 active torsions:
REMARK  status: ('A' for Active; 'I' for Inactive)
REMARK    1  A    between atoms: C_1  and  C_2
REMARK    2  A    between atoms: N_5  and  C_6
REMARK    3  A    between atoms: C_6  and  C_7
REMARK    4  A    between atoms: C_11  and  C_12
REMARK    5  A    between atoms: C_23  and  C_24
REMARK                            x       y       z     vdW  Elec       q    Type
REMARK                         _______ _______ _______ _____ _____    ______ ____
ROOT
ATOM      1  C   UNL     1      48.288   6.191  15.325  0.00  0.00    +0.000 C 
ENDROOT
BRANCH   1   6
ATOM      2  C   UNL     1      44.054   2.940  12.385  0.00  0.00    +0.000 C 
ATOM      3  C   UNL     1      45.005   4.100  12.455  0.00  0.00    +0.000 A 
ATOM      4  N   UNL     1      45.730   4.183  13.614  0.00  0.00    +0.000 NA
ATOM      5  C   UNL     1      46.606   5.194  13.779  0.00  0.00    +0.000 A 
ATOM      6  N   UNL     1      47.274   5.216  14.972  0.00  0.00    +0.000 N 
ATOM      7  C   UNL     1      46.786   6.145  12.786  0.00  0.00    +0.000 A 
ATOM      8  C   UNL     1      46.051   6.068  11.605  0.00  0.00    +0.000 A 
ATOM      9  C   UNL     1      45.128   5.037  11.427  0.00  0.00    +0.000 A 
ATOM     10  H   UNL     1      47.089   4.433  15.588  0.00  0.00    +0.000 HD
BRANCH   9  11
ATOM     11  C   UNL     1      44.336   4.950  10.170  0.00  0.00    +0.000 C 
ATOM     12  N   UNL     1      45.002   4.575   9.032  0.00  0.00    +0.000 N 
ATOM     13  O   UNL     1      43.142   5.206  10.118  0.00  0.00    +0.000 OA
ATOM     14  H   UNL     1      46.007   4.519   8.959  0.00  0.00    +0.000 HD
ATOM     15  H   UNL     1      44.467   4.588   8.172  0.00  0.00    +0.000 HD
ENDBRANCH   9  11
ENDBRANCH   1   6
BRANCH   1  16
ATOM     16  C   UNL     1      48.981   5.895  16.646  0.00  0.00    +0.000 A 
ATOM     17  N   UNL     1      48.664   6.667  17.704  0.00  0.00    +0.000 NA
ATOM     18  C   UNL     1      49.250   6.352  18.869  0.00  0.00    +0.000 A 
ATOM     19  C   UNL     1      50.130   5.307  19.018  0.00  0.00    +0.000 A 
ATOM     20  C   UNL     1      50.405   4.559  17.888  0.00  0.00    +0.000 A 
ATOM     21  N   UNL     1      49.842   4.855  16.693  0.00  0.00    +0.000 NA
BRANCH  20  22
ATOM     22  C   UNL     1      51.310   3.390  17.900  0.00  0.00    +0.000 A 
ATOM     23  C   UNL     1      50.908   2.157  17.356  0.00  0.00    +0.000 A 
ATOM     24  C   UNL     1      51.757   1.043  17.356  0.00  0.00    +0.000 A 
ATOM     25  C   UNL     1      53.032   1.136  17.912  0.00  0.00    +0.000 A 
ATOM     26 CL   UNL     1      54.034  -0.271  17.882  0.00  0.00    +0.000 Cl
ATOM     27  C   UNL     1      53.453   2.344  18.470  0.00  0.00    +0.000 A 
ATOM     28 CL   UNL     1      55.013   2.542  19.187  0.00  0.00    +0.000 Cl
ATOM     29  C   UNL     1      52.598   3.454  18.465  0.00  0.00    +0.000 A 
ENDBRANCH  20  22
ENDBRANCH   1  16
TORSDOF 4
ENDMDL
