MODEL 1
REMARK VINA RESULT:    -9.154      0.000      0.000
REMARK INTER + INTRA:         -13.903
REMARK INTER:                 -13.167
REMARK INTRA:                  -0.736
REMARK UNBOUND:                -0.736
REMARK  Name = 
REMARK  9 active torsions:
REMARK  status: ('A' for Active; 'I' for Inactive)
REMARK    1  A    between atoms: C_1  and  C_2
REMARK    2  A    between atoms: C_2  and  N_3
REMARK    3  A    between atoms: C_2  and  C_22
REMARK    4  A    between atoms: N_3  and  C_4
REMARK    5  A    between atoms: C_4  and  C_5
REMARK    6  A    between atoms: C_8  and  C_9
REMARK    7  A    between atoms: C_9  and  O_10
REMARK    8  A    between atoms: C_9  and  C_11
REMARK    9  A    between atoms: C_11  and  N_12
REMARK                            x       y       z     vdW  Elec       q    Type
REMARK                         _______ _______ _______ _____ _____    ______ ____
ROOT
ATOM      1  C   UNL     1      46.815   5.209  13.841  0.00  0.00    +0.000 A 
ATOM      2  C   UNL     1      46.491   3.898  13.467  0.00  0.00    +0.000 A 
ATOM      3  C   UNL     1      45.459   3.649  12.555  0.00  0.00    +0.000 A 
ATOM      4  C   UNL     1      44.728   4.708  11.999  0.00  0.00    +0.000 A 
ATOM      5  C   UNL     1      45.072   6.019  12.376  0.00  0.00    +0.000 A 
ATOM      6  C   UNL     1      46.100   6.268  13.283  0.00  0.00    +0.000 A 
ENDROOT
BRANCH   1   7
ATOM      7  C   UNL     1      47.867   5.485  14.885  0.00  0.00    +0.000 C 
BRANCH   7   8
ATOM      8  N   UNL     1      48.228   4.276  15.618  0.00  0.00    +0.000 NA
ATOM      9  H   UNL     1      49.184   4.026  15.364  0.00  0.00    +0.000 HD
BRANCH   8  11
ATOM     10  C   UNL     1      47.245   3.443  17.753  0.00  0.00    +0.000 C 
ATOM     11  C   UNL     1      48.163   4.466  17.075  0.00  0.00    +0.000 C 
BRANCH  11  12
ATOM     12  C   UNL     1      49.586   4.357  17.583  0.00  0.00    +0.000 A 
ATOM     13  C   UNL     1      50.247   5.361  18.279  0.00  0.00    +0.000 A 
ATOM     14  S   UNL     1      51.811   4.913  18.792  0.00  0.00    +0.000 S 
ATOM     15  C   UNL     1      51.651   3.357  18.117  0.00  0.00    +0.000 A 
ATOM     16  N   UNL     1      52.629   2.423  18.259  0.00  0.00    +0.000 NA
ATOM     17  C   UNL     1      52.353   1.281  17.721  0.00  0.00    +0.000 A 
ATOM     18  N   UNL     1      51.203   0.998  17.028  0.00  0.00    +0.000 N 
ATOM     19  C   UNL     1      50.222   1.934  16.791  0.00  0.00    +0.000 A 
ATOM     20  O   UNL     1      49.266   1.688  16.061  0.00  0.00    +0.000 OA
ATOM     21  C   UNL     1      50.446   3.205  17.456  0.00  0.00    +0.000 A 
ATOM     22  H   UNL     1      51.071   0.098  16.593  0.00  0.00    +0.000 HD
ENDBRANCH  11  12
ENDBRANCH   8  11
ENDBRANCH   7   8
ENDBRANCH   1   7
BRANCH   4  23
ATOM     23  C   UNL     1      43.596   4.406  11.023  0.00  0.00    +0.000 C 
BRANCH  23  24
ATOM     24  O   UNL     1      43.241   5.608  10.320  0.00  0.00    +0.000 OA
ATOM     25  H   UNL     1      43.154   5.372   9.380  0.00  0.00    +0.000 HD
ENDBRANCH  23  24
BRANCH  23  26
ATOM     26  C   UNL     1      43.974   3.330   9.986  0.00  0.00    +0.000 C 
BRANCH  26  27
ATOM     27  N   UNL     1      44.582   3.885   8.772  0.00  0.00    +0.000 N 
ATOM     28  C   UNL     1      45.452   2.955   8.168  0.00  0.00    +0.000 A 
ATOM     29  C   UNL     1      46.132   3.329   7.020  0.00  0.00    +0.000 A 
ATOM     30  C   UNL     1      46.959   2.397   6.403  0.00  0.00    +0.000 A 
ATOM     31 CL   UNL     1      47.809   2.822   4.969  0.00  0.00    +0.000 Cl
ATOM     32  C   UNL     1      47.100   1.121   6.928  0.00  0.00    +0.000 A 
ATOM     33  C   UNL     1      46.385   0.827   8.064  0.00  0.00    +0.000 A 
ATOM     34  N   UNL     1      45.572   1.710   8.681  0.00  0.00    +0.000 NA
ATOM     35  H   UNL     1      45.072   4.751   8.976  0.00  0.00    +0.000 HD
ENDBRANCH  26  27
ENDBRANCH  23  26
ENDBRANCH   4  23
TORSDOF 8
ENDMDL
MODEL 2
REMARK VINA RESULT:    -9.127      1.100      1.335
REMARK INTER + INTRA:         -13.864
REMARK INTER:                 -13.166
REMARK INTRA:                  -0.699
REMARK UNBOUND:                -0.736
REMARK  Name = 
REMARK  9 active torsions:
REMARK  status: ('A' for Active; 'I' for Inactive)
REMARK    1  A    between atoms: C_1  and  C_2
REMARK    2  A    between atoms: C_2  and  N_3
REMARK    3  A    between atoms: C_2  and  C_22
REMARK    4  A    between atoms: N_3  and  C_4
REMARK    5  A    between atoms: C_4  and  C_5
REMARK    6  A    between atoms: C_8  and  C_9
REMARK    7  A    between atoms: C_9  and  O_10
REMARK    8  A    between atoms: C_9  and  C_11
REMARK    9  A    between atoms: C_11  and  N_12
REMARK                            x       y       z     vdW  Elec       q    Type
REMARK                         _______ _______ _______ _____ _____    ______ ____
ROOT
ATOM      1  C   UNL     1      46.910   5.575  13.930  0.00  0.00    +0.000 A 
ATOM      2  C   UNL     1      46.072   4.454  13.864  0.00  0.00    +0.000 A 
ATOM      3  C   UNL     1      44.974   4.432  12.997  0.00  0.00    +0.000 A 
ATOM      4  C   UNL     1      44.690   5.533  12.177  0.00  0.00    +0.000 A 
ATOM      5  C   UNL     1      45.546   6.647  12.247  0.00  0.00    +0.000 A 
ATOM      6  C   UNL     1      46.640   6.670  13.110  0.00  0.00    +0.000 A 
ENDROOT
BRANCH   1   7
ATOM      7  C   UNL     1      48.043   5.644  14.920  0.00  0.00    +0.000 C 
BRANCH   7   8
ATOM      8  N   UNL     1      48.252   4.365  15.591  0.00  0.00    +0.000 NA
ATOM      9  H   UNL     1      49.191   4.037  15.362  0.00  0.00    +0.000 HD
BRANCH   8  11
ATOM     10  C   UNL     1      47.233   3.385  17.644  0.00  0.00    +0.000 C 
ATOM     11  C   UNL     1      48.135   4.474  17.052  0.00  0.00    +0.000 C 
BRANCH  11  12
ATOM     12  C   UNL     1      49.544   4.386  17.601  0.00  0.00    +0.000 A 
ATOM     13  C   UNL     1      50.161   5.389  18.336  0.00  0.00    +0.000 A 
ATOM     14  S   UNL     1      51.719   4.965  18.888  0.00  0.00    +0.000 S 
ATOM     15  C   UNL     1      51.613   3.420  18.179  0.00  0.00    +0.000 A 
ATOM     16  N   UNL     1      52.607   2.504  18.332  0.00  0.00    +0.000 NA
ATOM     17  C   UNL     1      52.372   1.368  17.765  0.00  0.00    +0.000 A 
ATOM     18  N   UNL     1      51.250   1.073  17.032  0.00  0.00    +0.000 N 
ATOM     19  C   UNL     1      50.256   1.993  16.783  0.00  0.00    +0.000 A 
ATOM     20  O   UNL     1      49.329   1.740  16.020  0.00  0.00    +0.000 OA
ATOM     21  C   UNL     1      50.433   3.255  17.479  0.00  0.00    +0.000 A 
ATOM     22  H   UNL     1      51.152   0.179  16.576  0.00  0.00    +0.000 HD
ENDBRANCH  11  12
ENDBRANCH   8  11
ENDBRANCH   7   8
ENDBRANCH   1   7
BRANCH   4  23
ATOM     23  C   UNL     1      43.476   5.489  11.256  0.00  0.00    +0.000 C 
BRANCH  23  24
ATOM     24  O   UNL     1      42.947   6.817  11.102  0.00  0.00    +0.000 OA
ATOM     25  H   UNL     1      42.118   6.852  11.611  0.00  0.00    +0.000 HD
ENDBRANCH  23  24
BRANCH  23  26
ATOM     26  C   UNL     1      43.808   4.933   9.857  0.00  0.00    +0.000 C 
BRANCH  26  27
ATOM     27  N   UNL     1      44.078   3.491   9.858  0.00  0.00    +0.000 N 
ATOM     28  C   UNL     1      45.059   3.158   8.902  0.00  0.00    +0.000 A 
ATOM     29  C   UNL     1      45.417   1.827   8.753  0.00  0.00    +0.000 A 
ATOM     30  C   UNL     1      46.414   1.505   7.839  0.00  0.00    +0.000 A 
ATOM     31 CL   UNL     1      46.892  -0.135   7.636  0.00  0.00    +0.000 Cl
ATOM     32  C   UNL     1      47.035   2.496   7.092  0.00  0.00    +0.000 A 
ATOM     33  C   UNL     1      46.628   3.791   7.306  0.00  0.00    +0.000 A 
ATOM     34  N   UNL     1      45.668   4.133   8.189  0.00  0.00    +0.000 NA
ATOM     35  H   UNL     1      43.227   2.963   9.692  0.00  0.00    +0.000 HD
ENDBRANCH  26  27
ENDBRANCH  23  26
ENDBRANCH   4  23
TORSDOF 8
ENDMDL
MODEL 3
REMARK VINA RESULT:    -8.752      2.794      3.942
REMARK INTER + INTRA:         -13.324
REMARK INTER:                 -11.800
REMARK INTRA:                  -1.525
REMARK UNBOUND:                -0.736
REMARK  Name = 
REMARK  9 active torsions:
REMARK  status: ('A' for Active; 'I' for Inactive)
REMARK    1  A    between atoms: C_1  and  C_2
REMARK    2  A    between atoms: C_2  and  N_3
REMARK    3  A    between atoms: C_2  and  C_22
REMARK    4  A    between atoms: N_3  and  C_4
REMARK    5  A    between atoms: C_4  and  C_5
REMARK    6  A    between atoms: C_8  and  C_9
REMARK    7  A    between atoms: C_9  and  O_10
REMARK    8  A    between atoms: C_9  and  C_11
REMARK    9  A    between atoms: C_11  and  N_12
REMARK                            x       y       z     vdW  Elec       q    Type
REMARK                         _______ _______ _______ _____ _____    ______ ____
ROOT
ATOM      1  C   UNL     1      47.374   6.568  13.047  0.00  0.00    +0.000 A 
ATOM      2  C   UNL     1      46.296   7.112  12.336  0.00  0.00    +0.000 A 
ATOM      3  C   UNL     1      45.061   6.455  12.295  0.00  0.00    +0.000 A 
ATOM      4  C   UNL     1      44.879   5.237  12.964  0.00  0.00    +0.000 A 
ATOM      5  C   UNL     1      45.967   4.708  13.682  0.00  0.00    +0.000 A 
ATOM      6  C   UNL     1      47.197   5.362  13.724  0.00  0.00    +0.000 A 
ENDROOT
BRANCH   1   7
ATOM      7  C   UNL     1      48.731   7.223  13.028  0.00  0.00    +0.000 C 
BRANCH   7   8
ATOM      8  N   UNL     1      49.614   6.664  14.045  0.00  0.00    +0.000 NA
ATOM      9  H   UNL     1      50.272   6.035  13.582  0.00  0.00    +0.000 HD
BRANCH   8  11
ATOM     10  C   UNL     1      50.693   8.903  13.858  0.00  0.00    +0.000 C 
ATOM     11  C   UNL     1      50.376   7.701  14.755  0.00  0.00    +0.000 C 
BRANCH  11  12
ATOM     12  C   UNL     1      49.536   8.107  15.949  0.00  0.00    +0.000 A 
ATOM     13  C   UNL     1      49.043   9.388  16.159  0.00  0.00    +0.000 A 
ATOM     14  S   UNL     1      48.061   9.517  17.548  0.00  0.00    +0.000 S 
ATOM     15  C   UNL     1      48.248   7.862  17.905  0.00  0.00    +0.000 A 
ATOM     16  N   UNL     1      47.600   7.290  18.955  0.00  0.00    +0.000 NA
ATOM     17  C   UNL     1      47.813   6.023  19.083  0.00  0.00    +0.000 A 
ATOM     18  N   UNL     1      48.640   5.281  18.277  0.00  0.00    +0.000 N 
ATOM     19  C   UNL     1      49.376   5.832  17.252  0.00  0.00    +0.000 A 
ATOM     20  O   UNL     1      50.202   5.168  16.631  0.00  0.00    +0.000 OA
ATOM     21  C   UNL     1      49.097   7.236  17.013  0.00  0.00    +0.000 A 
ATOM     22  H   UNL     1      48.798   4.303  18.461  0.00  0.00    +0.000 HD
ENDBRANCH  11  12
ENDBRANCH   8  11
ENDBRANCH   7   8
ENDBRANCH   1   7
BRANCH   4  23
ATOM     23  C   UNL     1      43.529   4.533  12.886  0.00  0.00    +0.000 C 
BRANCH  23  24
ATOM     24  O   UNL     1      42.513   5.395  13.426  0.00  0.00    +0.000 OA
ATOM     25  H   UNL     1      41.678   5.160  12.985  0.00  0.00    +0.000 HD
ENDBRANCH  23  24
BRANCH  23  26
ATOM     26  C   UNL     1      43.134   4.159  11.444  0.00  0.00    +0.000 C 
BRANCH  26  27
ATOM     27  N   UNL     1      43.697   2.879  11.004  0.00  0.00    +0.000 N 
ATOM     28  C   UNL     1      44.529   3.049   9.879  0.00  0.00    +0.000 A 
ATOM     29  C   UNL     1      45.124   1.931   9.317  0.00  0.00    +0.000 A 
ATOM     30  C   UNL     1      45.976   2.105   8.232  0.00  0.00    +0.000 A 
ATOM     31 CL   UNL     1      46.742   0.741   7.517  0.00  0.00    +0.000 Cl
ATOM     32  C   UNL     1      46.222   3.372   7.723  0.00  0.00    +0.000 A 
ATOM     33  C   UNL     1      45.599   4.429   8.342  0.00  0.00    +0.000 A 
ATOM     34  N   UNL     1      44.772   4.289   9.399  0.00  0.00    +0.000 NA
ATOM     35  H   UNL     1      42.961   2.209  10.804  0.00  0.00    +0.000 HD
ENDBRANCH  26  27
ENDBRANCH  23  26
ENDBRANCH   4  23
TORSDOF 8
ENDMDL
MODEL 4
REMARK VINA RESULT:    -8.516      2.109      2.785
REMARK INTER + INTRA:         -12.986
REMARK INTER:                 -12.013
REMARK INTRA:                  -0.974
REMARK UNBOUND:                -0.736
REMARK  Name = 
REMARK  9 active torsions:
REMARK  status: ('A' for Active; 'I' for Inactive)
REMARK    1  A    between atoms: C_1  and  C_2
REMARK    2  A    between atoms: C_2  and  N_3
REMARK    3  A    between atoms: C_2  and  C_22
REMARK    4  A    between atoms: N_3  and  C_4
REMARK    5  A    between atoms: C_4  and  C_5
REMARK    6  A    between atoms: C_8  and  C_9
REMARK    7  A    between atoms: C_9  and  O_10
REMARK    8  A    between atoms: C_9  and  C_11
REMARK    9  A    between atoms: C_11  and  N_12
REMARK                            x       y       z     vdW  Elec       q    Type
REMARK                         _______ _______ _______ _____ _____    ______ ____
ROOT
ATOM      1  C   UNL     1      47.387   6.329  12.906  0.00  0.00    +0.000 A 
ATOM      2  C   UNL     1      46.702   5.269  13.514  0.00  0.00    +0.000 A 
ATOM      3  C   UNL     1      45.552   4.730  12.926  0.00  0.00    +0.000 A 
ATOM      4  C   UNL     1      45.062   5.242  11.717  0.00  0.00    +0.000 A 
ATOM      5  C   UNL     1      45.766   6.300  11.114  0.00  0.00    +0.000 A 
ATOM      6  C   UNL     1      46.911   6.837  11.698  0.00  0.00    +0.000 A 
ENDROOT
BRANCH   1   7
ATOM      7  C   UNL     1      48.575   6.974  13.573  0.00  0.00    +0.000 C 
BRANCH   7   8
ATOM      8  N   UNL     1      49.007   6.224  14.748  0.00  0.00    +0.000 NA
ATOM      9  H   UNL     1      49.477   5.377  14.428  0.00  0.00    +0.000 HD
BRANCH   8  11
ATOM     10  C   UNL     1      50.221   8.384  15.016  0.00  0.00    +0.000 C 
ATOM     11  C   UNL     1      49.939   6.990  15.588  0.00  0.00    +0.000 C 
BRANCH  11  12
ATOM     12  C   UNL     1      49.306   7.072  16.962  0.00  0.00    +0.000 A 
ATOM     13  C   UNL     1      48.648   8.191  17.454  0.00  0.00    +0.000 A 
ATOM     14  S   UNL     1      47.970   7.953  19.001  0.00  0.00    +0.000 S 
ATOM     15  C   UNL     1      48.518   6.342  19.058  0.00  0.00    +0.000 A 
ATOM     16  N   UNL     1      48.214   5.530  20.106  0.00  0.00    +0.000 NA
ATOM     17  C   UNL     1      48.671   4.327  19.994  0.00  0.00    +0.000 A 
ATOM     18  N   UNL     1      49.430   3.870  18.946  0.00  0.00    +0.000 N 
ATOM     19  C   UNL     1      49.828   4.676  17.903  0.00  0.00    +0.000 A 
ATOM     20  O   UNL     1      50.611   4.273  17.048  0.00  0.00    +0.000 OA
ATOM     21  C   UNL     1      49.260   6.011  17.939  0.00  0.00    +0.000 A 
ATOM     22  H   UNL     1      49.795   2.930  18.944  0.00  0.00    +0.000 HD
ENDBRANCH  11  12
ENDBRANCH   8  11
ENDBRANCH   7   8
ENDBRANCH   1   7
BRANCH   4  23
ATOM     23  C   UNL     1      43.796   4.648  11.110  0.00  0.00    +0.000 C 
BRANCH  23  24
ATOM     24  O   UNL     1      43.053   5.686  10.449  0.00  0.00    +0.000 OA
ATOM     25  H   UNL     1      42.634   5.282   9.670  0.00  0.00    +0.000 HD
ENDBRANCH  23  24
BRANCH  23  26
ATOM     26  C   UNL     1      44.092   3.535  10.085  0.00  0.00    +0.000 C 
BRANCH  26  27
ATOM     27  N   UNL     1      44.682   4.037   8.840  0.00  0.00    +0.000 N 
ATOM     28  C   UNL     1      45.491   3.057   8.229  0.00  0.00    +0.000 A 
ATOM     29  C   UNL     1      46.147   3.376   7.051  0.00  0.00    +0.000 A 
ATOM     30  C   UNL     1      46.911   2.395   6.429  0.00  0.00    +0.000 A 
ATOM     31 CL   UNL     1      47.731   2.753   4.959  0.00  0.00    +0.000 Cl
ATOM     32  C   UNL     1      47.015   1.126   6.978  0.00  0.00    +0.000 A 
ATOM     33  C   UNL     1      46.327   0.888   8.143  0.00  0.00    +0.000 A 
ATOM     34  N   UNL     1      45.574   1.818   8.766  0.00  0.00    +0.000 NA
ATOM     35  H   UNL     1      45.216   4.884   9.008  0.00  0.00    +0.000 HD
ENDBRANCH  26  27
ENDBRANCH  23  26
ENDBRANCH   4  23
TORSDOF 8
ENDMDL
MODEL 5
REMARK VINA RESULT:    -8.463      2.325      3.057
REMARK INTER + INTRA:         -12.910
REMARK INTER:                 -11.593
REMARK INTRA:                  -1.316
REMARK UNBOUND:                -0.736
REMARK  Name = 
REMARK  9 active torsions:
REMARK  status: ('A' for Active; 'I' for Inactive)
REMARK    1  A    between atoms: C_1  and  C_2
REMARK    2  A    between atoms: C_2  and  N_3
REMARK    3  A    between atoms: C_2  and  C_22
REMARK    4  A    between atoms: N_3  and  C_4
REMARK    5  A    between atoms: C_4  and  C_5
REMARK    6  A    between atoms: C_8  and  C_9
REMARK    7  A    between atoms: C_9  and  O_10
REMARK    8  A    between atoms: C_9  and  C_11
REMARK    9  A    between atoms: C_11  and  N_12
REMARK                            x       y       z     vdW  Elec       q    Type
REMARK                         _______ _______ _______ _____ _____    ______ ____
ROOT
ATOM      1  C   UNL     1      47.322   6.757  13.043  0.00  0.00    +0.000 A 
ATOM      2  C   UNL     1      47.323   5.427  13.484  0.00  0.00    +0.000 A 
ATOM      3  C   UNL     1      46.164   4.647  13.408  0.00  0.00    +0.000 A 
ATOM      4  C   UNL     1      44.977   5.182  12.890  0.00  0.00    +0.000 A 
ATOM      5  C   UNL     1      44.993   6.516  12.443  0.00  0.00    +0.000 A 
ATOM      6  C   UNL     1      46.147   7.293  12.517  0.00  0.00    +0.000 A 
ENDROOT
BRANCH   1   7
ATOM      7  C   UNL     1      48.539   7.632  13.198  0.00  0.00    +0.000 C 
BRANCH   7   8
ATOM      8  N   UNL     1      49.619   6.936  13.890  0.00  0.00    +0.000 NA
ATOM      9  H   UNL     1      50.424   6.899  13.264  0.00  0.00    +0.000 HD
BRANCH   8  11
ATOM     10  C   UNL     1      49.184   8.876  15.394  0.00  0.00    +0.000 C 
ATOM     11  C   UNL     1      50.018   7.616  15.130  0.00  0.00    +0.000 C 
BRANCH  11  12
ATOM     12  C   UNL     1      49.857   6.602  16.244  0.00  0.00    +0.000 A 
ATOM     13  C   UNL     1      48.635   6.202  16.767  0.00  0.00    +0.000 A 
ATOM     14  S   UNL     1      48.772   4.986  17.956  0.00  0.00    +0.000 S 
ATOM     15  C   UNL     1      50.467   4.941  17.799  0.00  0.00    +0.000 A 
ATOM     16  N   UNL     1      51.217   4.050  18.501  0.00  0.00    +0.000 NA
ATOM     17  C   UNL     1      52.483   4.113  18.255  0.00  0.00    +0.000 A 
ATOM     18  N   UNL     1      53.072   5.007  17.396  0.00  0.00    +0.000 N 
ATOM     19  C   UNL     1      52.364   5.977  16.724  0.00  0.00    +0.000 A 
ATOM     20  O   UNL     1      52.932   6.841  16.063  0.00  0.00    +0.000 OA
ATOM     21  C   UNL     1      50.926   5.885  16.898  0.00  0.00    +0.000 A 
ATOM     22  H   UNL     1      54.074   5.032  17.285  0.00  0.00    +0.000 HD
ENDBRANCH  11  12
ENDBRANCH   8  11
ENDBRANCH   7   8
ENDBRANCH   1   7
BRANCH   4  23
ATOM     23  C   UNL     1      43.724   4.315  12.838  0.00  0.00    +0.000 C 
BRANCH  23  24
ATOM     24  O   UNL     1      42.642   5.004  13.487  0.00  0.00    +0.000 OA
ATOM     25  H   UNL     1      43.027   5.505  14.225  0.00  0.00    +0.000 HD
ENDBRANCH  23  24
BRANCH  23  26
ATOM     26  C   UNL     1      43.291   3.978  11.398  0.00  0.00    +0.000 C 
BRANCH  26  27
ATOM     27  N   UNL     1      43.888   2.738  10.890  0.00  0.00    +0.000 N 
ATOM     28  C   UNL     1      44.690   2.985   9.758  0.00  0.00    +0.000 A 
ATOM     29  C   UNL     1      45.311   1.914   9.136  0.00  0.00    +0.000 A 
ATOM     30  C   UNL     1      46.134   2.165   8.043  0.00  0.00    +0.000 A 
ATOM     31 CL   UNL     1      46.930   0.860   7.253  0.00  0.00    +0.000 Cl
ATOM     32  C   UNL     1      46.327   3.460   7.587  0.00  0.00    +0.000 A 
ATOM     33  C   UNL     1      45.681   4.467   8.264  0.00  0.00    +0.000 A 
ATOM     34  N   UNL     1      44.882   4.253   9.329  0.00  0.00    +0.000 NA
ATOM     35  H   UNL     1      43.171   2.052  10.675  0.00  0.00    +0.000 HD
ENDBRANCH  26  27
ENDBRANCH  23  26
ENDBRANCH   4  23
TORSDOF 8
ENDMDL
MODEL 6
REMARK VINA RESULT:    -8.352      1.927      2.452
REMARK INTER + INTRA:         -12.750
REMARK INTER:                 -11.830
REMARK INTRA:                  -0.920
REMARK UNBOUND:                -0.736
REMARK  Name = 
REMARK  9 active torsions:
REMARK  status: ('A' for Active; 'I' for Inactive)
REMARK    1  A    between atoms: C_1  and  C_2
REMARK    2  A    between atoms: C_2  and  N_3
REMARK    3  A    between atoms: C_2  and  C_22
REMARK    4  A    between atoms: N_3  and  C_4
REMARK    5  A    between atoms: C_4  and  C_5
REMARK    6  A    between atoms: C_8  and  C_9
REMARK    7  A    between atoms: C_9  and  O_10
REMARK    8  A    between atoms: C_9  and  C_11
REMARK    9  A    between atoms: C_11  and  N_12
REMARK                            x       y       z     vdW  Elec       q    Type
REMARK                         _______ _______ _______ _____ _____    ______ ____
ROOT
ATOM      1  C   UNL     1      47.455   6.371  13.780  0.00  0.00    +0.000 A 
ATOM      2  C   UNL     1      46.766   5.153  13.851  0.00  0.00    +0.000 A 
ATOM      3  C   UNL     1      45.609   4.940  13.093  0.00  0.00    +0.000 A 
ATOM      4  C   UNL     1      45.116   5.944  12.248  0.00  0.00    +0.000 A 
ATOM      5  C   UNL     1      45.824   7.157  12.179  0.00  0.00    +0.000 A 
ATOM      6  C   UNL     1      46.976   7.370  12.933  0.00  0.00    +0.000 A 
ENDROOT
BRANCH   1   7
ATOM      7  C   UNL     1      48.652   6.642  14.654  0.00  0.00    +0.000 C 
BRANCH   7   8
ATOM      8  N   UNL     1      48.259   7.150  15.964  0.00  0.00    +0.000 NA
ATOM      9  H   UNL     1      47.309   6.830  16.155  0.00  0.00    +0.000 HD
BRANCH   8  11
ATOM     10  C   UNL     1      48.933   7.441  18.346  0.00  0.00    +0.000 C 
ATOM     11  C   UNL     1      49.141   6.671  17.038  0.00  0.00    +0.000 C 
BRANCH  11  12
ATOM     12  C   UNL     1      48.842   5.195  17.209  0.00  0.00    +0.000 A 
ATOM     13  C   UNL     1      47.564   4.654  17.227  0.00  0.00    +0.000 A 
ATOM     14  S   UNL     1      47.550   2.953  17.353  0.00  0.00    +0.000 S 
ATOM     15  C   UNL     1      49.252   2.882  17.372  0.00  0.00    +0.000 A 
ATOM     16  N   UNL     1      49.907   1.691  17.400  0.00  0.00    +0.000 NA
ATOM     17  C   UNL     1      51.194   1.794  17.378  0.00  0.00    +0.000 A 
ATOM     18  N   UNL     1      51.887   2.979  17.362  0.00  0.00    +0.000 N 
ATOM     19  C   UNL     1      51.268   4.207  17.413  0.00  0.00    +0.000 A 
ATOM     20  O   UNL     1      51.915   5.244  17.526  0.00  0.00    +0.000 OA
ATOM     21  C   UNL     1      49.820   4.142  17.344  0.00  0.00    +0.000 A 
ATOM     22  H   UNL     1      52.895   2.988  17.393  0.00  0.00    +0.000 HD
ENDBRANCH  11  12
ENDBRANCH   8  11
ENDBRANCH   7   8
ENDBRANCH   1   7
BRANCH   4  23
ATOM     23  C   UNL     1      43.842   5.691  11.449  0.00  0.00    +0.000 C 
BRANCH  23  24
ATOM     24  O   UNL     1      43.125   6.928  11.295  0.00  0.00    +0.000 OA
ATOM     25  H   UNL     1      43.598   7.597  11.818  0.00  0.00    +0.000 HD
ENDBRANCH  23  24
BRANCH  23  26
ATOM     26  C   UNL     1      44.122   5.114  10.047  0.00  0.00    +0.000 C 
BRANCH  26  27
ATOM     27  N   UNL     1      44.327   3.661  10.051  0.00  0.00    +0.000 N 
ATOM     28  C   UNL     1      45.196   3.268   9.014  0.00  0.00    +0.000 A 
ATOM     29  C   UNL     1      45.480   1.921   8.858  0.00  0.00    +0.000 A 
ATOM     30  C   UNL     1      46.369   1.538   7.860  0.00  0.00    +0.000 A 
ATOM     31 CL   UNL     1      46.752  -0.125   7.645  0.00  0.00    +0.000 Cl
ATOM     32  C   UNL     1      46.958   2.487   7.037  0.00  0.00    +0.000 A 
ATOM     33  C   UNL     1      46.630   3.803   7.261  0.00  0.00    +0.000 A 
ATOM     34  N   UNL     1      45.775   4.202   8.226  0.00  0.00    +0.000 NA
ATOM     35  H   UNL     1      43.442   3.170   9.979  0.00  0.00    +0.000 HD
ENDBRANCH  26  27
ENDBRANCH  23  26
ENDBRANCH   4  23
TORSDOF 8
ENDMDL
MODEL 7
REMARK VINA RESULT:    -8.185      2.215      2.947
REMARK INTER + INTRA:         -12.510
REMARK INTER:                 -11.552
REMARK INTRA:                  -0.958
REMARK UNBOUND:                -0.736
REMARK  Name = 
REMARK  9 active torsions:
REMARK  status: ('A' for Active; 'I' for Inactive)
REMARK    1  A    between atoms: C_1  and  C_2
REMARK    2  A    between atoms: C_2  and  N_3
REMARK    3  A    between atoms: C_2  and  C_22
REMARK    4  A    between atoms: N_3  and  C_4
REMARK    5  A    between atoms: C_4  and  C_5
REMARK    6  A    between atoms: C_8  and  C_9
REMARK    7  A    between atoms: C_9  and  O_10
REMARK    8  A    between atoms: C_9  and  C_11
REMARK    9  A    between atoms: C_11  and  N_12
REMARK                            x       y       z     vdW  Elec       q    Type
REMARK                         _______ _______ _______ _____ _____    ______ ____
ROOT
ATOM      1  C   UNL     1      47.343   6.477  13.306  0.00  0.00    +0.000 A 
ATOM      2  C   UNL     1      46.186   7.067  12.780  0.00  0.00    +0.000 A 
ATOM      3  C   UNL     1      45.003   6.331  12.652  0.00  0.00    +0.000 A 
ATOM      4  C   UNL     1      44.953   4.987  13.046  0.00  0.00    +0.000 A 
ATOM      5  C   UNL     1      46.119   4.411  13.581  0.00  0.00    +0.000 A 
ATOM      6  C   UNL     1      47.297   5.143  13.710  0.00  0.00    +0.000 A 
ENDROOT
BRANCH   1   7
ATOM      7  C   UNL     1      48.645   7.234  13.370  0.00  0.00    +0.000 C 
BRANCH   7   8
ATOM      8  N   UNL     1      49.547   6.671  14.368  0.00  0.00    +0.000 NA
ATOM      9  H   UNL     1      50.291   6.173  13.878  0.00  0.00    +0.000 HD
BRANCH   8  11
ATOM     10  C   UNL     1      49.171   8.248  16.262  0.00  0.00    +0.000 C 
ATOM     11  C   UNL     1      50.155   7.705  15.218  0.00  0.00    +0.000 C 
BRANCH  11  12
ATOM     12  C   UNL     1      51.361   7.065  15.874  0.00  0.00    +0.000 A 
ATOM     13  C   UNL     1      52.661   7.535  15.749  0.00  0.00    +0.000 A 
ATOM     14  S   UNL     1      53.793   6.653  16.670  0.00  0.00    +0.000 S 
ATOM     15  C   UNL     1      52.582   5.624  17.281  0.00  0.00    +0.000 A 
ATOM     16  N   UNL     1      52.871   4.661  18.198  0.00  0.00    +0.000 NA
ATOM     17  C   UNL     1      51.846   3.981  18.592  0.00  0.00    +0.000 A 
ATOM     18  N   UNL     1      50.565   4.152  18.131  0.00  0.00    +0.000 N 
ATOM     19  C   UNL     1      50.239   5.059  17.147  0.00  0.00    +0.000 A 
ATOM     20  O   UNL     1      49.111   5.101  16.666  0.00  0.00    +0.000 OA
ATOM     21  C   UNL     1      51.342   5.911  16.741  0.00  0.00    +0.000 A 
ATOM     22  H   UNL     1      49.818   3.554  18.447  0.00  0.00    +0.000 HD
ENDBRANCH  11  12
ENDBRANCH   8  11
ENDBRANCH   7   8
ENDBRANCH   1   7
BRANCH   4  23
ATOM     23  C   UNL     1      43.655   4.204  12.876  0.00  0.00    +0.000 C 
BRANCH  23  24
ATOM     24  O   UNL     1      42.573   4.945  13.465  0.00  0.00    +0.000 OA
ATOM     25  H   UNL     1      42.757   5.887  13.309  0.00  0.00    +0.000 HD
ENDBRANCH  23  24
BRANCH  23  26
ATOM     26  C   UNL     1      43.311   3.932  11.399  0.00  0.00    +0.000 C 
BRANCH  26  27
ATOM     27  N   UNL     1      43.923   2.704  10.880  0.00  0.00    +0.000 N 
ATOM     28  C   UNL     1      44.711   2.971   9.742  0.00  0.00    +0.000 A 
ATOM     29  C   UNL     1      45.344   1.913   9.108  0.00  0.00    +0.000 A 
ATOM     30  C   UNL     1      46.153   2.183   8.010  0.00  0.00    +0.000 A 
ATOM     31 CL   UNL     1      46.963   0.896   7.206  0.00  0.00    +0.000 Cl
ATOM     32  C   UNL     1      46.321   3.484   7.559  0.00  0.00    +0.000 A 
ATOM     33  C   UNL     1      45.665   4.476   8.247  0.00  0.00    +0.000 A 
ATOM     34  N   UNL     1      44.879   4.244   9.318  0.00  0.00    +0.000 NA
ATOM     35  H   UNL     1      43.216   2.008  10.667  0.00  0.00    +0.000 HD
ENDBRANCH  26  27
ENDBRANCH  23  26
ENDBRANCH   4  23
TORSDOF 8
ENDMDL
MODEL 8
REMARK VINA RESULT:    -7.925      4.331      5.329
REMARK INTER + INTRA:         -12.135
REMARK INTER:                 -10.933
REMARK INTRA:                  -1.203
REMARK UNBOUND:                -0.736
REMARK  Name = 
REMARK  9 active torsions:
REMARK  status: ('A' for Active; 'I' for Inactive)
REMARK    1  A    between atoms: C_1  and  C_2
REMARK    2  A    between atoms: C_2  and  N_3
REMARK    3  A    between atoms: C_2  and  C_22
REMARK    4  A    between atoms: N_3  and  C_4
REMARK    5  A    between atoms: C_4  and  C_5
REMARK    6  A    between atoms: C_8  and  C_9
REMARK    7  A    between atoms: C_9  and  O_10
REMARK    8  A    between atoms: C_9  and  C_11
REMARK    9  A    between atoms: C_11  and  N_12
REMARK                            x       y       z     vdW  Elec       q    Type
REMARK                         _______ _______ _______ _____ _____    ______ ____
ROOT
ATOM      1  C   UNL     1      47.454   6.507  12.846  0.00  0.00    +0.000 A 
ATOM      2  C   UNL     1      46.430   6.888  11.969  0.00  0.00    +0.000 A 
ATOM      3  C   UNL     1      45.207   6.209  11.960  0.00  0.00    +0.000 A 
ATOM      4  C   UNL     1      44.983   5.131  12.828  0.00  0.00    +0.000 A 
ATOM      5  C   UNL     1      46.017   4.767  13.709  0.00  0.00    +0.000 A 
ATOM      6  C   UNL     1      47.235   5.443  13.720  0.00  0.00    +0.000 A 
ENDROOT
BRANCH   1   7
ATOM      7  C   UNL     1      48.805   7.176  12.805  0.00  0.00    +0.000 C 
BRANCH   7   8
ATOM      8  N   UNL     1      49.109   7.696  11.477  0.00  0.00    +0.000 NA
ATOM      9  H   UNL     1      48.272   7.603  10.901  0.00  0.00    +0.000 HD
BRANCH   8  11
ATOM     10  C   UNL     1      48.368  10.019  11.997  0.00  0.00    +0.000 C 
ATOM     11  C   UNL     1      49.503   9.112  11.508  0.00  0.00    +0.000 C 
BRANCH  11  12
ATOM     12  C   UNL     1      50.712   9.199  12.417  0.00  0.00    +0.000 A 
ATOM     13  C   UNL     1      50.732   9.875  13.629  0.00  0.00    +0.000 A 
ATOM     14  S   UNL     1      52.211   9.725  14.466  0.00  0.00    +0.000 S 
ATOM     15  C   UNL     1      52.868   8.736  13.245  0.00  0.00    +0.000 A 
ATOM     16  N   UNL     1      54.109   8.194  13.368  0.00  0.00    +0.000 NA
ATOM     17  C   UNL     1      54.460   7.442  12.379  0.00  0.00    +0.000 A 
ATOM     18  N   UNL     1      53.696   7.207  11.263  0.00  0.00    +0.000 N 
ATOM     19  C   UNL     1      52.469   7.795  11.059  0.00  0.00    +0.000 A 
ATOM     20  O   UNL     1      51.867   7.666   9.996  0.00  0.00    +0.000 OA
ATOM     21  C   UNL     1      51.993   8.575  12.187  0.00  0.00    +0.000 A 
ATOM     22  H   UNL     1      54.051   6.644  10.504  0.00  0.00    +0.000 HD
ENDBRANCH  11  12
ENDBRANCH   8  11
ENDBRANCH   7   8
ENDBRANCH   1   7
BRANCH   4  23
ATOM     23  C   UNL     1      43.647   4.398  12.782  0.00  0.00    +0.000 C 
BRANCH  23  24
ATOM     24  O   UNL     1      42.618   5.251  13.309  0.00  0.00    +0.000 OA
ATOM     25  H   UNL     1      41.977   4.676  13.761  0.00  0.00    +0.000 HD
ENDBRANCH  23  24
BRANCH  23  26
ATOM     26  C   UNL     1      43.246   3.977  11.355  0.00  0.00    +0.000 C 
BRANCH  26  27
ATOM     27  N   UNL     1      43.869   2.720  10.926  0.00  0.00    +0.000 N 
ATOM     28  C   UNL     1      44.647   2.908   9.765  0.00  0.00    +0.000 A 
ATOM     29  C   UNL     1      45.288   1.812   9.209  0.00  0.00    +0.000 A 
ATOM     30  C   UNL     1      46.087   2.007   8.088  0.00  0.00    +0.000 A 
ATOM     31 CL   UNL     1      46.907   0.671   7.379  0.00  0.00    +0.000 Cl
ATOM     32  C   UNL     1      46.237   3.271   7.538  0.00  0.00    +0.000 A 
ATOM     33  C   UNL     1      45.574   4.306   8.154  0.00  0.00    +0.000 A 
ATOM     34  N   UNL     1      44.797   4.147   9.245  0.00  0.00    +0.000 NA
ATOM     35  H   UNL     1      43.168   2.002  10.772  0.00  0.00    +0.000 HD
ENDBRANCH  26  27
ENDBRANCH  23  26
ENDBRANCH   4  23
TORSDOF 8
ENDMDL
