MODEL 1
REMARK VINA RESULT:    -9.085      0.000      0.000
REMARK INTER + INTRA:         -12.040
REMARK INTER:                 -11.210
REMARK INTRA:                  -0.830
REMARK UNBOUND:                -0.830
REMARK  Name = 
REMARK  4 active torsions:
REMARK  status: ('A' for Active; 'I' for Inactive)
REMARK    1  A    between atoms: C_2  and  C_4
REMARK    2  A    between atoms: N_8  and  C_9
REMARK    3  A    between atoms: C_9  and  C_10
REMARK    4  A    between atoms: C_15  and  C_16
REMARK                            x       y       z     vdW  Elec       q    Type
REMARK                         _______ _______ _______ _____ _____    ______ ____
ROOT
ATOM      1  C   UNL     1      43.503   4.854  11.007  0.00  0.00    +0.000 C 
ENDROOT
BRANCH   1   6
ATOM      2  C   UNL     1      46.363   2.231   7.669  0.00  0.00    +0.000 A 
ATOM      3  C   UNL     1      45.678   1.775   8.789  0.00  0.00    +0.000 A 
ATOM      4  C   UNL     1      44.818   2.642   9.462  0.00  0.00    +0.000 A 
ATOM      5  C   UNL     1      44.670   3.952   9.021  0.00  0.00    +0.000 A 
ATOM      6  N   UNL     1      43.794   4.849   9.591  0.00  0.00    +0.000 N 
ATOM      7  N   UNL     1      45.334   4.407   7.939  0.00  0.00    +0.000 NA
ATOM      8  C   UNL     1      46.168   3.549   7.291  0.00  0.00    +0.000 A 
ATOM      9  H   UNL     1      43.935   5.756   9.157  0.00  0.00    +0.000 HD
BRANCH   2  11
ATOM     10  N   UNL     1      48.311   1.995   6.236  0.00  0.00    +0.000 N 
ATOM     11  C   UNL     1      47.282   1.375   6.897  0.00  0.00    +0.000 C 
ATOM     12  O   UNL     1      47.154   0.162   6.867  0.00  0.00    +0.000 OA
ATOM     13  H   UNL     1      48.987   1.393   5.790  0.00  0.00    +0.000 HD
ATOM     14  H   UNL     1      48.593   2.941   6.438  0.00  0.00    +0.000 HD
ENDBRANCH   2  11
ENDBRANCH   1   6
BRANCH   1  15
ATOM     15  C   UNL     1      44.729   5.073  11.864  0.00  0.00    +0.000 A 
ATOM     16  C   UNL     1      45.012   4.212  12.926  0.00  0.00    +0.000 A 
ATOM     17  C   UNL     1      46.052   4.508  13.801  0.00  0.00    +0.000 A 
ATOM     18  C   UNL     1      46.828   5.665  13.632  0.00  0.00    +0.000 A 
ATOM     19 CL   UNL     1      47.957   5.981  14.911  0.00  0.00    +0.000 Cl
ATOM     20  C   UNL     1      46.626   6.531  12.533  0.00  0.00    +0.000 A 
ATOM     21  C   UNL     1      45.558   6.193  11.663  0.00  0.00    +0.000 A 
BRANCH  20  22
ATOM     22  C   UNL     1      47.428   7.758  12.254  0.00  0.00    +0.000 A 
ATOM     23  C   UNL     1      46.955   9.056  12.487  0.00  0.00    +0.000 A 
ATOM     24  N   UNL     1      47.642  10.205  12.243  0.00  0.00    +0.000 NA
ATOM     25  C   UNL     1      48.899  10.070  11.771  0.00  0.00    +0.000 A 
ATOM     26  C   UNL     1      49.494   8.845  11.541  0.00  0.00    +0.000 A 
ATOM     27 CL   UNL     1      51.120   8.744  10.999  0.00  0.00    +0.000 Cl
ATOM     28  C   UNL     1      48.749   7.687  11.771  0.00  0.00    +0.000 A 
ENDBRANCH  20  22
ENDBRANCH   1  15
TORSDOF 4
ENDMDL
MODEL 2
REMARK VINA RESULT:    -9.018      2.214      3.986
REMARK INTER + INTRA:         -11.957
REMARK INTER:                 -11.149
REMARK INTRA:                  -0.809
REMARK UNBOUND:                -0.830
REMARK  Name = 
REMARK  4 active torsions:
REMARK  status: ('A' for Active; 'I' for Inactive)
REMARK    1  A    between atoms: C_2  and  C_4
REMARK    2  A    between atoms: N_8  and  C_9
REMARK    3  A    between atoms: C_9  and  C_10
REMARK    4  A    between atoms: C_15  and  C_16
REMARK                            x       y       z     vdW  Elec       q    Type
REMARK                         _______ _______ _______ _____ _____    ______ ____
ROOT
ATOM      1  C   UNL     1      43.565   4.847  11.102  0.00  0.00    +0.000 C 
ENDROOT
BRANCH   1   6
ATOM      2  C   UNL     1      46.361   2.268   7.677  0.00  0.00    +0.000 A 
ATOM      3  C   UNL     1      45.701   1.798   8.806  0.00  0.00    +0.000 A 
ATOM      4  C   UNL     1      44.853   2.655   9.506  0.00  0.00    +0.000 A 
ATOM      5  C   UNL     1      44.693   3.970   9.082  0.00  0.00    +0.000 A 
ATOM      6  N   UNL     1      43.828   4.859   9.680  0.00  0.00    +0.000 N 
ATOM      7  N   UNL     1      45.334   4.438   7.992  0.00  0.00    +0.000 NA
ATOM      8  C   UNL     1      46.156   3.590   7.317  0.00  0.00    +0.000 A 
ATOM      9  H   UNL     1      43.958   5.771   9.253  0.00  0.00    +0.000 HD
BRANCH   2  11
ATOM     10  N   UNL     1      48.343   2.036   6.290  0.00  0.00    +0.000 N 
ATOM     11  C   UNL     1      47.267   1.422   6.877  0.00  0.00    +0.000 C 
ATOM     12  O   UNL     1      47.086   0.222   6.762  0.00  0.00    +0.000 OA
ATOM     13  H   UNL     1      49.006   1.434   5.825  0.00  0.00    +0.000 HD
ATOM     14  H   UNL     1      48.660   2.953   6.563  0.00  0.00    +0.000 HD
ENDBRANCH   2  11
ENDBRANCH   1   6
BRANCH   1  15
ATOM     15  C   UNL     1      44.656   5.511  11.912  0.00  0.00    +0.000 A 
ATOM     16  C   UNL     1      45.123   6.779  11.563  0.00  0.00    +0.000 A 
ATOM     17  C   UNL     1      46.229   7.315  12.216  0.00  0.00    +0.000 A 
ATOM     18  C   UNL     1      46.885   6.598  13.228  0.00  0.00    +0.000 A 
ATOM     19 CL   UNL     1      48.349   7.326  13.807  0.00  0.00    +0.000 Cl
ATOM     20  C   UNL     1      46.408   5.340  13.664  0.00  0.00    +0.000 A 
ATOM     21  C   UNL     1      45.279   4.830  12.975  0.00  0.00    +0.000 A 
BRANCH  20  22
ATOM     22  C   UNL     1      47.018   4.529  14.758  0.00  0.00    +0.000 A 
ATOM     23  C   UNL     1      47.526   3.238  14.566  0.00  0.00    +0.000 A 
ATOM     24  N   UNL     1      48.083   2.455  15.529  0.00  0.00    +0.000 NA
ATOM     25  C   UNL     1      48.185   2.992  16.762  0.00  0.00    +0.000 A 
ATOM     26  C   UNL     1      47.762   4.271  17.068  0.00  0.00    +0.000 A 
ATOM     27 CL   UNL     1      47.979   4.916  18.644  0.00  0.00    +0.000 Cl
ATOM     28  C   UNL     1      47.165   5.034  16.064  0.00  0.00    +0.000 A 
ENDBRANCH  20  22
ENDBRANCH   1  15
TORSDOF 4
ENDMDL
MODEL 3
REMARK VINA RESULT:    -8.256      2.564      3.716
REMARK INTER + INTRA:         -11.017
REMARK INTER:                 -10.669
REMARK INTRA:                  -0.348
REMARK UNBOUND:                -0.830
REMARK  Name = 
REMARK  4 active torsions:
REMARK  status: ('A' for Active; 'I' for Inactive)
REMARK    1  A    between atoms: C_2  and  C_4
REMARK    2  A    between atoms: N_8  and  C_9
REMARK    3  A    between atoms: C_9  and  C_10
REMARK    4  A    between atoms: C_15  and  C_16
REMARK                            x       y       z     vdW  Elec       q    Type
REMARK                         _______ _______ _______ _____ _____    ______ ____
ROOT
ATOM      1  C   UNL     1      43.545   3.583  11.028  0.00  0.00    +0.000 C 
ENDROOT
BRANCH   1   6
ATOM      2  C   UNL     1      46.755   2.494   7.192  0.00  0.00    +0.000 A 
ATOM      3  C   UNL     1      46.391   3.732   7.709  0.00  0.00    +0.000 A 
ATOM      4  C   UNL     1      45.627   3.785   8.874  0.00  0.00    +0.000 A 
ATOM      5  C   UNL     1      45.222   2.607   9.493  0.00  0.00    +0.000 A 
ATOM      6  N   UNL     1      44.522   2.576  10.678  0.00  0.00    +0.000 N 
ATOM      7  N   UNL     1      45.566   1.401   8.997  0.00  0.00    +0.000 NA
ATOM      8  C   UNL     1      46.313   1.364   7.860  0.00  0.00    +0.000 A 
ATOM      9  H   UNL     1      44.266   1.613  10.875  0.00  0.00    +0.000 HD
BRANCH   2  11
ATOM     10  N   UNL     1      47.375   3.275   4.975  0.00  0.00    +0.000 N 
ATOM     11  C   UNL     1      47.570   2.352   5.971  0.00  0.00    +0.000 C 
ATOM     12  O   UNL     1      48.404   1.470   5.857  0.00  0.00    +0.000 OA
ATOM     13  H   UNL     1      48.001   3.225   4.187  0.00  0.00    +0.000 HD
ATOM     14  H   UNL     1      46.890   4.145   5.130  0.00  0.00    +0.000 HD
ENDBRANCH   2  11
ENDBRANCH   1   6
BRANCH   1  15
ATOM     15  C   UNL     1      44.158   4.797  11.691  0.00  0.00    +0.000 A 
ATOM     16  C   UNL     1      43.841   6.081  11.245  0.00  0.00    +0.000 A 
ATOM     17  C   UNL     1      44.524   7.181  11.756  0.00  0.00    +0.000 A 
ATOM     18  C   UNL     1      45.531   7.019  12.719  0.00  0.00    +0.000 A 
ATOM     19 CL   UNL     1      46.406   8.465  13.110  0.00  0.00    +0.000 Cl
ATOM     20  C   UNL     1      45.840   5.747  13.252  0.00  0.00    +0.000 A 
ATOM     21  C   UNL     1      45.121   4.653  12.708  0.00  0.00    +0.000 A 
BRANCH  20  22
ATOM     22  C   UNL     1      46.865   5.488  14.306  0.00  0.00    +0.000 A 
ATOM     23  C   UNL     1      48.002   6.286  14.484  0.00  0.00    +0.000 A 
ATOM     24  N   UNL     1      48.968   6.089  15.422  0.00  0.00    +0.000 NA
ATOM     25  C   UNL     1      48.786   5.057  16.272  0.00  0.00    +0.000 A 
ATOM     26  C   UNL     1      47.685   4.225  16.227  0.00  0.00    +0.000 A 
ATOM     27 CL   UNL     1      47.483   2.968  17.378  0.00  0.00    +0.000 Cl
ATOM     28  C   UNL     1      46.729   4.435  15.231  0.00  0.00    +0.000 A 
ENDBRANCH  20  22
ENDBRANCH   1  15
TORSDOF 4
ENDMDL
MODEL 4
REMARK VINA RESULT:    -8.102      2.012      2.634
REMARK INTER + INTRA:         -10.827
REMARK INTER:                 -10.531
REMARK INTRA:                  -0.296
REMARK UNBOUND:                -0.830
REMARK  Name = 
REMARK  4 active torsions:
REMARK  status: ('A' for Active; 'I' for Inactive)
REMARK    1  A    between atoms: C_2  and  C_4
REMARK    2  A    between atoms: N_8  and  C_9
REMARK    3  A    between atoms: C_9  and  C_10
REMARK    4  A    between atoms: C_15  and  C_16
REMARK                            x       y       z     vdW  Elec       q    Type
REMARK                         _______ _______ _______ _____ _____    ______ ____
ROOT
ATOM      1  C   UNL     1      43.357   3.332  11.179  0.00  0.00    +0.000 C 
ENDROOT
BRANCH   1   6
ATOM      2  C   UNL     1      46.537   2.696   7.218  0.00  0.00    +0.000 A 
ATOM      3  C   UNL     1      45.972   3.865   7.713  0.00  0.00    +0.000 A 
ATOM      4  C   UNL     1      45.265   3.826   8.914  0.00  0.00    +0.000 A 
ATOM      5  C   UNL     1      45.115   2.619   9.590  0.00  0.00    +0.000 A 
ATOM      6  N   UNL     1      44.487   2.508  10.811  0.00  0.00    +0.000 N 
ATOM      7  N   UNL     1      45.654   1.478   9.116  0.00  0.00    +0.000 NA
ATOM      8  C   UNL     1      46.344   1.533   7.944  0.00  0.00    +0.000 A 
ATOM      9  H   UNL     1      44.424   1.523  11.052  0.00  0.00    +0.000 HD
BRANCH   2  11
ATOM     10  N   UNL     1      48.650   2.393   6.056  0.00  0.00    +0.000 N 
ATOM     11  C   UNL     1      47.307   2.657   5.961  0.00  0.00    +0.000 C 
ATOM     12  O   UNL     1      46.773   2.824   4.878  0.00  0.00    +0.000 OA
ATOM     13  H   UNL     1      49.147   2.275   5.187  0.00  0.00    +0.000 HD
ATOM     14  H   UNL     1      49.069   2.008   6.888  0.00  0.00    +0.000 HD
ENDBRANCH   2  11
ENDBRANCH   1   6
BRANCH   1  15
ATOM     15  C   UNL     1      43.740   4.763  11.480  0.00  0.00    +0.000 A 
ATOM     16  C   UNL     1      42.857   5.806  11.197  0.00  0.00    +0.000 A 
ATOM     17  C   UNL     1      43.275   7.126  11.333  0.00  0.00    +0.000 A 
ATOM     18  C   UNL     1      44.579   7.429  11.754  0.00  0.00    +0.000 A 
ATOM     19 CL   UNL     1      44.995   9.111  11.692  0.00  0.00    +0.000 Cl
ATOM     20  C   UNL     1      45.488   6.409  12.119  0.00  0.00    +0.000 A 
ATOM     21  C   UNL     1      45.023   5.078  11.969  0.00  0.00    +0.000 A 
BRANCH  20  22
ATOM     22  C   UNL     1      46.877   6.640  12.615  0.00  0.00    +0.000 A 
ATOM     23  C   UNL     1      47.325   6.216  13.872  0.00  0.00    +0.000 A 
ATOM     24  N   UNL     1      48.575   6.408  14.373  0.00  0.00    +0.000 NA
ATOM     25  C   UNL     1      49.462   7.028  13.568  0.00  0.00    +0.000 A 
ATOM     26  C   UNL     1      49.154   7.455  12.290  0.00  0.00    +0.000 A 
ATOM     27 CL   UNL     1      50.348   8.181  11.293  0.00  0.00    +0.000 Cl
ATOM     28  C   UNL     1      47.853   7.271  11.820  0.00  0.00    +0.000 A 
ENDBRANCH  20  22
ENDBRANCH   1  15
TORSDOF 4
ENDMDL
MODEL 5
REMARK VINA RESULT:    -7.682      1.911      2.452
REMARK INTER + INTRA:         -10.309
REMARK INTER:                  -9.574
REMARK INTRA:                  -0.735
REMARK UNBOUND:                -0.830
REMARK  Name = 
REMARK  4 active torsions:
REMARK  status: ('A' for Active; 'I' for Inactive)
REMARK    1  A    between atoms: C_2  and  C_4
REMARK    2  A    between atoms: N_8  and  C_9
REMARK    3  A    between atoms: C_9  and  C_10
REMARK    4  A    between atoms: C_15  and  C_16
REMARK                            x       y       z     vdW  Elec       q    Type
REMARK                         _______ _______ _______ _____ _____    ______ ____
ROOT
ATOM      1  C   UNL     1      43.614   5.306  10.895  0.00  0.00    +0.000 C 
ENDROOT
BRANCH   1   6
ATOM      2  C   UNL     1      46.203   2.005   7.962  0.00  0.00    +0.000 A 
ATOM      3  C   UNL     1      45.572   1.789   9.181  0.00  0.00    +0.000 A 
ATOM      4  C   UNL     1      44.776   2.797   9.724  0.00  0.00    +0.000 A 
ATOM      5  C   UNL     1      44.640   4.009   9.054  0.00  0.00    +0.000 A 
ATOM      6  N   UNL     1      43.824   5.028   9.492  0.00  0.00    +0.000 N 
ATOM      7  N   UNL     1      45.252   4.230   7.874  0.00  0.00    +0.000 NA
ATOM      8  C   UNL     1      46.024   3.236   7.355  0.00  0.00    +0.000 A 
ATOM      9  H   UNL     1      43.964   5.834   8.889  0.00  0.00    +0.000 HD
BRANCH   2  11
ATOM     10  N   UNL     1      46.804  -0.327   7.627  0.00  0.00    +0.000 N 
ATOM     11  C   UNL     1      47.053   0.986   7.317  0.00  0.00    +0.000 C 
ATOM     12  O   UNL     1      47.923   1.291   6.519  0.00  0.00    +0.000 OA
ATOM     13  H   UNL     1      47.327  -1.017   7.110  0.00  0.00    +0.000 HD
ATOM     14  H   UNL     1      45.952  -0.626   8.073  0.00  0.00    +0.000 HD
ENDBRANCH   2  11
ENDBRANCH   1   6
BRANCH   1  15
ATOM     15  C   UNL     1      44.213   6.623  11.335  0.00  0.00    +0.000 A 
ATOM     16  C   UNL     1      43.517   7.816  11.140  0.00  0.00    +0.000 A 
ATOM     17  C   UNL     1      44.138   9.033  11.405  0.00  0.00    +0.000 A 
ATOM     18  C   UNL     1      45.461   9.080  11.870  0.00  0.00    +0.000 A 
ATOM     19 CL   UNL     1      46.143  10.671  11.972  0.00  0.00    +0.000 Cl
ATOM     20  C   UNL     1      46.184   7.897  12.149  0.00  0.00    +0.000 A 
ATOM     21  C   UNL     1      45.515   6.678  11.868  0.00  0.00    +0.000 A 
BRANCH  20  22
ATOM     22  C   UNL     1      47.577   7.854  12.683  0.00  0.00    +0.000 A 
ATOM     23  C   UNL     1      47.876   7.631  14.033  0.00  0.00    +0.000 A 
ATOM     24  N   UNL     1      49.126   7.590  14.571  0.00  0.00    +0.000 NA
ATOM     25  C   UNL     1      50.158   7.740  13.715  0.00  0.00    +0.000 A 
ATOM     26  C   UNL     1      49.995   7.922  12.356  0.00  0.00    +0.000 A 
ATOM     27 CL   UNL     1      51.354   8.043  11.314  0.00  0.00    +0.000 Cl
ATOM     28  C   UNL     1      48.698   7.992  11.843  0.00  0.00    +0.000 A 
ENDBRANCH  20  22
ENDBRANCH   1  15
TORSDOF 4
ENDMDL
MODEL 6
REMARK VINA RESULT:    -6.735      3.758      7.012
REMARK INTER + INTRA:          -9.140
REMARK INTER:                  -8.748
REMARK INTRA:                  -0.393
REMARK UNBOUND:                -0.830
REMARK  Name = 
REMARK  4 active torsions:
REMARK  status: ('A' for Active; 'I' for Inactive)
REMARK    1  A    between atoms: C_2  and  C_4
REMARK    2  A    between atoms: N_8  and  C_9
REMARK    3  A    between atoms: C_9  and  C_10
REMARK    4  A    between atoms: C_15  and  C_16
REMARK                            x       y       z     vdW  Elec       q    Type
REMARK                         _______ _______ _______ _____ _____    ______ ____
ROOT
ATOM      1  C   UNL     1      45.015   7.210  12.598  0.00  0.00    +0.000 C 
ENDROOT
BRANCH   1   6
ATOM      2  C   UNL     1      49.974   8.340  12.016  0.00  0.00    +0.000 A 
ATOM      3  C   UNL     1      48.855   9.052  11.601  0.00  0.00    +0.000 A 
ATOM      4  C   UNL     1      47.591   8.640  12.018  0.00  0.00    +0.000 A 
ATOM      5  C   UNL     1      47.460   7.515  12.825  0.00  0.00    +0.000 A 
ATOM      6  N   UNL     1      46.255   7.080  13.331  0.00  0.00    +0.000 N 
ATOM      7  N   UNL     1      48.538   6.813  13.230  0.00  0.00    +0.000 NA
ATOM      8  C   UNL     1      49.766   7.229  12.816  0.00  0.00    +0.000 A 
ATOM      9  H   UNL     1      46.406   6.197  13.808  0.00  0.00    +0.000 HD
BRANCH   2  11
ATOM     10  N   UNL     1      52.377   8.068  12.255  0.00  0.00    +0.000 N 
ATOM     11  C   UNL     1      51.345   8.717  11.627  0.00  0.00    +0.000 C 
ATOM     12  O   UNL     1      51.559   9.551  10.763  0.00  0.00    +0.000 OA
ATOM     13  H   UNL     1      53.306   8.266  11.915  0.00  0.00    +0.000 HD
ATOM     14  H   UNL     1      52.244   7.217  12.777  0.00  0.00    +0.000 HD
ENDBRANCH   2  11
ENDBRANCH   1   6
BRANCH   1  15
ATOM     15  C   UNL     1      44.506   5.892  12.057  0.00  0.00    +0.000 A 
ATOM     16  C   UNL     1      43.547   5.163  12.761  0.00  0.00    +0.000 A 
ATOM     17  C   UNL     1      43.199   3.884  12.337  0.00  0.00    +0.000 A 
ATOM     18  C   UNL     1      43.799   3.313  11.205  0.00  0.00    +0.000 A 
ATOM     19 CL   UNL     1      43.393   1.650  10.923  0.00  0.00    +0.000 Cl
ATOM     20  C   UNL     1      44.724   4.038  10.419  0.00  0.00    +0.000 A 
ATOM     21  C   UNL     1      45.050   5.338  10.883  0.00  0.00    +0.000 A 
BRANCH  20  22
ATOM     22  C   UNL     1      45.379   3.525   9.179  0.00  0.00    +0.000 A 
ATOM     23  C   UNL     1      45.772   4.351   8.120  0.00  0.00    +0.000 A 
ATOM     24  N   UNL     1      46.364   3.934   6.968  0.00  0.00    +0.000 NA
ATOM     25  C   UNL     1      46.623   2.614   6.864  0.00  0.00    +0.000 A 
ATOM     26  C   UNL     1      46.323   1.703   7.858  0.00  0.00    +0.000 A 
ATOM     27 CL   UNL     1      46.737   0.046   7.688  0.00  0.00    +0.000 Cl
ATOM     28  C   UNL     1      45.687   2.161   9.013  0.00  0.00    +0.000 A 
ENDBRANCH  20  22
ENDBRANCH   1  15
TORSDOF 4
ENDMDL
MODEL 7
REMARK VINA RESULT:    -6.702      5.557      8.126
REMARK INTER + INTRA:          -9.100
REMARK INTER:                  -8.446
REMARK INTRA:                  -0.653
REMARK UNBOUND:                -0.830
REMARK  Name = 
REMARK  4 active torsions:
REMARK  status: ('A' for Active; 'I' for Inactive)
REMARK    1  A    between atoms: C_2  and  C_4
REMARK    2  A    between atoms: N_8  and  C_9
REMARK    3  A    between atoms: C_9  and  C_10
REMARK    4  A    between atoms: C_15  and  C_16
REMARK                            x       y       z     vdW  Elec       q    Type
REMARK                         _______ _______ _______ _____ _____    ______ ____
ROOT
ATOM      1  C   UNL     1      48.703   6.634  15.653  0.00  0.00    +0.000 C 
ENDROOT
BRANCH   1   6
ATOM      2  C   UNL     1      51.236   2.587  17.499  0.00  0.00    +0.000 A 
ATOM      3  C   UNL     1      51.594   3.930  17.515  0.00  0.00    +0.000 A 
ATOM      4  C   UNL     1      50.667   4.887  17.104  0.00  0.00    +0.000 A 
ATOM      5  C   UNL     1      49.409   4.489  16.664  0.00  0.00    +0.000 A 
ATOM      6  N   UNL     1      48.418   5.374  16.302  0.00  0.00    +0.000 N 
ATOM      7  N   UNL     1      49.054   3.188  16.639  0.00  0.00    +0.000 NA
ATOM      8  C   UNL     1      49.968   2.266  17.046  0.00  0.00    +0.000 A 
ATOM      9  H   UNL     1      47.633   4.845  15.934  0.00  0.00    +0.000 HD
BRANCH   2  11
ATOM     10  N   UNL     1      51.616   0.271  18.132  0.00  0.00    +0.000 N 
ATOM     11  C   UNL     1      52.155   1.516  17.928  0.00  0.00    +0.000 C 
ATOM     12  O   UNL     1      53.350   1.716  18.069  0.00  0.00    +0.000 OA
ATOM     13  H   UNL     1      52.266  -0.473  18.333  0.00  0.00    +0.000 HD
ATOM     14  H   UNL     1      50.704   0.013  17.790  0.00  0.00    +0.000 HD
ENDBRANCH   2  11
ENDBRANCH   1   6
BRANCH   1  15
ATOM     15  C   UNL     1      47.809   6.904  14.464  0.00  0.00    +0.000 A 
ATOM     16  C   UNL     1      47.706   8.191  13.935  0.00  0.00    +0.000 A 
ATOM     17  C   UNL     1      46.767   8.461  12.943  0.00  0.00    +0.000 A 
ATOM     18  C   UNL     1      45.918   7.453  12.462  0.00  0.00    +0.000 A 
ATOM     19 CL   UNL     1      44.687   7.996  11.368  0.00  0.00    +0.000 Cl
ATOM     20  C   UNL     1      46.031   6.119  12.917  0.00  0.00    +0.000 A 
ATOM     21  C   UNL     1      47.001   5.885  13.925  0.00  0.00    +0.000 A 
BRANCH  20  22
ATOM     22  C   UNL     1      45.200   4.978  12.432  0.00  0.00    +0.000 A 
ATOM     23  C   UNL     1      44.242   4.334  13.224  0.00  0.00    +0.000 A 
ATOM     24  N   UNL     1      43.465   3.287  12.833  0.00  0.00    +0.000 NA
ATOM     25  C   UNL     1      43.612   2.866  11.560  0.00  0.00    +0.000 A 
ATOM     26  C   UNL     1      44.492   3.448  10.667  0.00  0.00    +0.000 A 
ATOM     27 CL   UNL     1      44.584   2.904   9.041  0.00  0.00    +0.000 Cl
ATOM     28  C   UNL     1      45.296   4.498  11.111  0.00  0.00    +0.000 A 
ENDBRANCH  20  22
ENDBRANCH   1  15
TORSDOF 4
ENDMDL
MODEL 8
REMARK VINA RESULT:    -6.613      5.960      8.460
REMARK INTER + INTRA:          -8.989
REMARK INTER:                  -8.255
REMARK INTRA:                  -0.734
REMARK UNBOUND:                -0.830
REMARK  Name = 
REMARK  4 active torsions:
REMARK  status: ('A' for Active; 'I' for Inactive)
REMARK    1  A    between atoms: C_2  and  C_4
REMARK    2  A    between atoms: N_8  and  C_9
REMARK    3  A    between atoms: C_9  and  C_10
REMARK    4  A    between atoms: C_15  and  C_16
REMARK                            x       y       z     vdW  Elec       q    Type
REMARK                         _______ _______ _______ _____ _____    ______ ____
ROOT
ATOM      1  C   UNL     1      48.904   6.103  17.079  0.00  0.00    +0.000 C 
ENDROOT
BRANCH   1   6
ATOM      2  C   UNL     1      52.061   2.114  17.644  0.00  0.00    +0.000 A 
ATOM      3  C   UNL     1      52.317   3.468  17.815  0.00  0.00    +0.000 A 
ATOM      4  C   UNL     1      51.257   4.373  17.773  0.00  0.00    +0.000 A 
ATOM      5  C   UNL     1      49.964   3.916  17.541  0.00  0.00    +0.000 A 
ATOM      6  N   UNL     1      48.858   4.737  17.548  0.00  0.00    +0.000 N 
ATOM      7  N   UNL     1      49.705   2.604  17.368  0.00  0.00    +0.000 NA
ATOM      8  C   UNL     1      50.749   1.733  17.414  0.00  0.00    +0.000 A 
ATOM      9  H   UNL     1      48.051   4.190  17.265  0.00  0.00    +0.000 HD
BRANCH   2  11
ATOM     10  N   UNL     1      52.794  -0.138  18.193  0.00  0.00    +0.000 N 
ATOM     11  C   UNL     1      53.124   1.092  17.684  0.00  0.00    +0.000 C 
ATOM     12  O   UNL     1      54.245   1.318  17.259  0.00  0.00    +0.000 OA
ATOM     13  H   UNL     1      53.500  -0.855  18.129  0.00  0.00    +0.000 HD
ATOM     14  H   UNL     1      51.839  -0.435  18.316  0.00  0.00    +0.000 HD
ENDBRANCH   2  11
ENDBRANCH   1   6
BRANCH   1  15
ATOM     15  C   UNL     1      48.642   6.230  15.595  0.00  0.00    +0.000 A 
ATOM     16  C   UNL     1      49.409   7.094  14.812  0.00  0.00    +0.000 A 
ATOM     17  C   UNL     1      49.062   7.320  13.484  0.00  0.00    +0.000 A 
ATOM     18  C   UNL     1      47.947   6.687  12.913  0.00  0.00    +0.000 A 
ATOM     19 CL   UNL     1      47.546   7.218  11.312  0.00  0.00    +0.000 Cl
ATOM     20  C   UNL     1      47.180   5.751  13.644  0.00  0.00    +0.000 A 
ATOM     21  C   UNL     1      47.567   5.547  14.993  0.00  0.00    +0.000 A 
BRANCH  20  22
ATOM     22  C   UNL     1      46.006   5.003  13.106  0.00  0.00    +0.000 A 
ATOM     23  C   UNL     1      45.980   3.610  12.966  0.00  0.00    +0.000 A 
ATOM     24  N   UNL     1      44.940   2.882  12.475  0.00  0.00    +0.000 NA
ATOM     25  C   UNL     1      43.830   3.568  12.131  0.00  0.00    +0.000 A 
ATOM     26  C   UNL     1      43.716   4.939  12.263  0.00  0.00    +0.000 A 
ATOM     27 CL   UNL     1      42.252   5.742  11.865  0.00  0.00    +0.000 Cl
ATOM     28  C   UNL     1      44.814   5.657  12.739  0.00  0.00    +0.000 A 
ENDBRANCH  20  22
ENDBRANCH   1  15
TORSDOF 4
ENDMDL
MODEL 9
REMARK VINA RESULT:    -6.600      5.264      8.163
REMARK INTER + INTRA:          -8.974
REMARK INTER:                  -8.383
REMARK INTRA:                  -0.591
REMARK UNBOUND:                -0.830
REMARK  Name = 
REMARK  4 active torsions:
REMARK  status: ('A' for Active; 'I' for Inactive)
REMARK    1  A    between atoms: C_2  and  C_4
REMARK    2  A    between atoms: N_8  and  C_9
REMARK    3  A    between atoms: C_9  and  C_10
REMARK    4  A    between atoms: C_15  and  C_16
REMARK                            x       y       z     vdW  Elec       q    Type
REMARK                         _______ _______ _______ _____ _____    ______ ____
ROOT
ATOM      1  C   UNL     1      48.358   7.443  14.215  0.00  0.00    +0.000 C 
ENDROOT
BRANCH   1   6
ATOM      2  C   UNL     1      50.900   4.630  17.654  0.00  0.00    +0.000 A 
ATOM      3  C   UNL     1      51.266   5.830  17.056  0.00  0.00    +0.000 A 
ATOM      4  C   UNL     1      50.338   6.511  16.270  0.00  0.00    +0.000 A 
ATOM      5  C   UNL     1      49.069   5.976  16.076  0.00  0.00    +0.000 A 
ATOM      6  N   UNL     1      48.077   6.617  15.368  0.00  0.00    +0.000 N 
ATOM      7  N   UNL     1      48.704   4.810  16.648  0.00  0.00    +0.000 NA
ATOM      8  C   UNL     1      49.620   4.158  17.414  0.00  0.00    +0.000 A 
ATOM      9  H   UNL     1      47.281   5.991  15.290  0.00  0.00    +0.000 HD
BRANCH   2  11
ATOM     10  N   UNL     1      52.007   2.534  18.190  0.00  0.00    +0.000 N 
ATOM     11  C   UNL     1      51.819   3.855  18.508  0.00  0.00    +0.000 C 
ATOM     12  O   UNL     1      52.412   4.368  19.442  0.00  0.00    +0.000 OA
ATOM     13  H   UNL     1      52.708   2.039  18.721  0.00  0.00    +0.000 HD
ATOM     14  H   UNL     1      51.740   2.148  17.298  0.00  0.00    +0.000 HD
ENDBRANCH   2  11
ENDBRANCH   1   6
BRANCH   1  15
ATOM     15  C   UNL     1      47.181   7.565  13.272  0.00  0.00    +0.000 A 
ATOM     16  C   UNL     1      46.446   8.750  13.209  0.00  0.00    +0.000 A 
ATOM     17  C   UNL     1      45.277   8.802  12.457  0.00  0.00    +0.000 A 
ATOM     18  C   UNL     1      44.822   7.676  11.754  0.00  0.00    +0.000 A 
ATOM     19 CL   UNL     1      43.260   7.853  11.023  0.00  0.00    +0.000 Cl
ATOM     20  C   UNL     1      45.568   6.474  11.731  0.00  0.00    +0.000 A 
ATOM     21  C   UNL     1      46.754   6.463  12.508  0.00  0.00    +0.000 A 
BRANCH  20  22
ATOM     22  C   UNL     1      45.182   5.244  10.979  0.00  0.00    +0.000 A 
ATOM     23  C   UNL     1      44.345   4.252  11.506  0.00  0.00    +0.000 A 
ATOM     24  N   UNL     1      43.970   3.111  10.867  0.00  0.00    +0.000 NA
ATOM     25  C   UNL     1      44.417   2.949   9.604  0.00  0.00    +0.000 A 
ATOM     26  C   UNL     1      45.212   3.876   8.958  0.00  0.00    +0.000 A 
ATOM     27 CL   UNL     1      45.694   3.638   7.328  0.00  0.00    +0.000 Cl
ATOM     28  C   UNL     1      45.605   5.020   9.655  0.00  0.00    +0.000 A 
ENDBRANCH  20  22
ENDBRANCH   1  15
TORSDOF 4
ENDMDL
