MODEL 1
REMARK VINA RESULT:    -9.112      0.000      0.000
REMARK INTER + INTRA:         -13.015
REMARK INTER:                 -12.308
REMARK INTRA:                  -0.707
REMARK UNBOUND:                -0.707
REMARK  Name = 
REMARK  6 active torsions:
REMARK  status: ('A' for Active; 'I' for Inactive)
REMARK    1  A    between atoms: C_2  and  C_4
REMARK    2  A    between atoms: N_8  and  C_9
REMARK    3  A    between atoms: C_9  and  C_10
REMARK    4  A    between atoms: C_10  and  C_13
REMARK    5  A    between atoms: C_17  and  N_18
REMARK    6  A    between atoms: N_18  and  C_19
REMARK                            x       y       z     vdW  Elec       q    Type
REMARK                         _______ _______ _______ _____ _____    ______ ____
ROOT
ATOM      1  C   UNL     1      43.197   5.500  12.174  0.00  0.00    +0.000 C 
ATOM      2  F   UNL     1      42.675   6.687  11.747  0.00  0.00    +0.000 F 
ATOM      3  F   UNL     1      42.337   5.053  13.139  0.00  0.00    +0.000 F 
ENDROOT
BRANCH   1   4
ATOM      4  C   UNL     1      44.613   5.657  12.701  0.00  0.00    +0.000 A 
ATOM      5  C   UNL     1      45.408   6.748  12.329  0.00  0.00    +0.000 A 
ATOM      6  C   UNL     1      46.724   6.846  12.781  0.00  0.00    +0.000 A 
ATOM      7  C   UNL     1      47.266   5.851  13.601  0.00  0.00    +0.000 A 
ATOM      8  C   UNL     1      46.489   4.760  13.996  0.00  0.00    +0.000 A 
ATOM      9  C   UNL     1      45.167   4.674  13.538  0.00  0.00    +0.000 A 
BRANCH   8  10
ATOM     10  N   UNL     1      46.980   3.707  14.794  0.00  0.00    +0.000 N 
ATOM     11  H   UNL     1      46.254   3.000  14.916  0.00  0.00    +0.000 HD
BRANCH  10  12
ATOM     12  C   UNL     1      47.847   3.827  15.934  0.00  0.00    +0.000 C 
ATOM     13  C   UNL     1      48.253   2.481  16.557  0.00  0.00    +0.000 C 
ATOM     14  O   UNL     1      47.776   2.901  17.863  0.00  0.00    +0.000 OA
ATOM     15  C   UNL     1      47.074   4.014  17.251  0.00  0.00    +0.000 C 
ENDBRANCH  10  12
ENDBRANCH   8  10
ENDBRANCH   1   4
BRANCH   1  16
ATOM     16  C   UNL     1      43.187   4.496  10.996  0.00  0.00    +0.000 C 
BRANCH  16  21
ATOM     17  C   UNL     1      46.421   2.290   7.685  0.00  0.00    +0.000 A 
ATOM     18  C   UNL     1      45.695   1.774   8.749  0.00  0.00    +0.000 A 
ATOM     19  C   UNL     1      44.882   2.631   9.492  0.00  0.00    +0.000 A 
ATOM     20  C   UNL     1      44.812   3.985   9.170  0.00  0.00    +0.000 A 
ATOM     21  N   UNL     1      44.026   4.870   9.861  0.00  0.00    +0.000 N 
ATOM     22  N   UNL     1      45.530   4.495   8.152  0.00  0.00    +0.000 NA
ATOM     23  C   UNL     1      46.326   3.649   7.442  0.00  0.00    +0.000 A 
ATOM     24  H   UNL     1      44.036   5.823   9.516  0.00  0.00    +0.000 HD
BRANCH  17  26
ATOM     25  N   UNL     1      48.321   2.076   6.196  0.00  0.00    +0.000 N 
ATOM     26  C   UNL     1      47.291   1.450   6.839  0.00  0.00    +0.000 C 
ATOM     27  O   UNL     1      47.123   0.243   6.743  0.00  0.00    +0.000 OA
ATOM     28  H   UNL     1      48.971   1.482   5.702  0.00  0.00    +0.000 HD
ATOM     29  H   UNL     1      48.636   3.008   6.436  0.00  0.00    +0.000 HD
ENDBRANCH  17  26
ENDBRANCH  16  21
ENDBRANCH   1  16
TORSDOF 6
ENDMDL
MODEL 2
REMARK VINA RESULT:    -8.681      3.038      4.335
REMARK INTER + INTRA:         -12.433
REMARK INTER:                 -11.787
REMARK INTRA:                  -0.646
REMARK UNBOUND:                -0.707
REMARK  Name = 
REMARK  6 active torsions:
REMARK  status: ('A' for Active; 'I' for Inactive)
REMARK    1  A    between atoms: C_2  and  C_4
REMARK    2  A    between atoms: N_8  and  C_9
REMARK    3  A    between atoms: C_9  and  C_10
REMARK    4  A    between atoms: C_10  and  C_13
REMARK    5  A    between atoms: C_17  and  N_18
REMARK    6  A    between atoms: N_18  and  C_19
REMARK                            x       y       z     vdW  Elec       q    Type
REMARK                         _______ _______ _______ _____ _____    ______ ____
ROOT
ATOM      1  C   UNL     1      43.690   4.586  12.444  0.00  0.00    +0.000 C 
ATOM      2  F   UNL     1      42.672   4.870  13.309  0.00  0.00    +0.000 F 
ATOM      3  F   UNL     1      44.010   3.278  12.677  0.00  0.00    +0.000 F 
ENDROOT
BRANCH   1   4
ATOM      4  C   UNL     1      44.880   5.509  12.642  0.00  0.00    +0.000 A 
ATOM      5  C   UNL     1      46.145   5.001  12.962  0.00  0.00    +0.000 A 
ATOM      6  C   UNL     1      47.214   5.868  13.193  0.00  0.00    +0.000 A 
ATOM      7  C   UNL     1      47.030   7.252  13.119  0.00  0.00    +0.000 A 
ATOM      8  C   UNL     1      45.781   7.782  12.790  0.00  0.00    +0.000 A 
ATOM      9  C   UNL     1      44.716   6.901  12.557  0.00  0.00    +0.000 A 
BRANCH   8  10
ATOM     10  N   UNL     1      45.517   9.165  12.729  0.00  0.00    +0.000 N 
ATOM     11  H   UNL     1      44.923   9.438  13.512  0.00  0.00    +0.000 HD
BRANCH  10  12
ATOM     12  C   UNL     1      45.277   9.941  11.543  0.00  0.00    +0.000 C 
ATOM     13  C   UNL     1      45.181  11.455  11.793  0.00  0.00    +0.000 C 
ATOM     14  O   UNL     1      43.882  11.516  11.146  0.00  0.00    +0.000 OA
ATOM     15  C   UNL     1      43.781  10.069  11.211  0.00  0.00    +0.000 C 
ENDBRANCH  10  12
ENDBRANCH   8  10
ENDBRANCH   1   4
BRANCH   1  16
ATOM     16  C   UNL     1      43.164   4.718  10.994  0.00  0.00    +0.000 C 
BRANCH  16  21
ATOM     17  C   UNL     1      46.468   2.561   7.720  0.00  0.00    +0.000 A 
ATOM     18  C   UNL     1      45.571   2.009   8.625  0.00  0.00    +0.000 A 
ATOM     19  C   UNL     1      44.787   2.860   9.403  0.00  0.00    +0.000 A 
ATOM     20  C   UNL     1      44.913   4.242   9.276  0.00  0.00    +0.000 A 
ATOM     21  N   UNL     1      44.163   5.124  10.010  0.00  0.00    +0.000 N 
ATOM     22  N   UNL     1      45.796   4.783   8.415  0.00  0.00    +0.000 NA
ATOM     23  C   UNL     1      46.562   3.941   7.669  0.00  0.00    +0.000 A 
ATOM     24  H   UNL     1      44.324   6.105   9.809  0.00  0.00    +0.000 HD
BRANCH  17  26
ATOM     25  N   UNL     1      48.357   2.362   6.215  0.00  0.00    +0.000 N 
ATOM     26  C   UNL     1      47.324   1.732   6.849  0.00  0.00    +0.000 C 
ATOM     27  O   UNL     1      47.140   0.530   6.722  0.00  0.00    +0.000 OA
ATOM     28  H   UNL     1      48.997   1.773   5.703  0.00  0.00    +0.000 HD
ATOM     29  H   UNL     1      48.685   3.283   6.478  0.00  0.00    +0.000 HD
ENDBRANCH  17  26
ENDBRANCH  16  21
ENDBRANCH   1  16
TORSDOF 6
ENDMDL
MODEL 3
REMARK VINA RESULT:    -8.460      2.145      2.672
REMARK INTER + INTRA:         -12.135
REMARK INTER:                 -11.233
REMARK INTRA:                  -0.902
REMARK UNBOUND:                -0.707
REMARK  Name = 
REMARK  6 active torsions:
REMARK  status: ('A' for Active; 'I' for Inactive)
REMARK    1  A    between atoms: C_2  and  C_4
REMARK    2  A    between atoms: N_8  and  C_9
REMARK    3  A    between atoms: C_9  and  C_10
REMARK    4  A    between atoms: C_10  and  C_13
REMARK    5  A    between atoms: C_17  and  N_18
REMARK    6  A    between atoms: N_18  and  C_19
REMARK                            x       y       z     vdW  Elec       q    Type
REMARK                         _______ _______ _______ _____ _____    ______ ____
ROOT
ATOM      1  C   UNL     1      44.011   4.187  12.509  0.00  0.00    +0.000 C 
ATOM      2  F   UNL     1      43.054   4.096  13.479  0.00  0.00    +0.000 F 
ATOM      3  F   UNL     1      44.964   3.269  12.855  0.00  0.00    +0.000 F 
ENDROOT
BRANCH   1   4
ATOM      4  C   UNL     1      44.582   5.590  12.403  0.00  0.00    +0.000 A 
ATOM      5  C   UNL     1      44.052   6.522  11.502  0.00  0.00    +0.000 A 
ATOM      6  C   UNL     1      44.625   7.788  11.381  0.00  0.00    +0.000 A 
ATOM      7  C   UNL     1      45.741   8.136  12.150  0.00  0.00    +0.000 A 
ATOM      8  C   UNL     1      46.280   7.229  13.063  0.00  0.00    +0.000 A 
ATOM      9  C   UNL     1      45.693   5.960  13.178  0.00  0.00    +0.000 A 
BRANCH   8  10
ATOM     10  N   UNL     1      47.420   7.500  13.846  0.00  0.00    +0.000 N 
ATOM     11  H   UNL     1      47.748   8.448  13.660  0.00  0.00    +0.000 HD
BRANCH  10  12
ATOM     12  C   UNL     1      48.484   6.586  14.156  0.00  0.00    +0.000 C 
ATOM     13  C   UNL     1      48.488   6.100  15.615  0.00  0.00    +0.000 C 
ATOM     14  O   UNL     1      49.864   6.531  15.793  0.00  0.00    +0.000 OA
ATOM     15  C   UNL     1      49.782   7.304  14.567  0.00  0.00    +0.000 C 
ENDBRANCH  10  12
ENDBRANCH   8  10
ENDBRANCH   1   4
BRANCH   1  16
ATOM     16  C   UNL     1      43.390   3.772  11.153  0.00  0.00    +0.000 C 
BRANCH  16  21
ATOM     17  C   UNL     1      46.578   2.518   7.339  0.00  0.00    +0.000 A 
ATOM     18  C   UNL     1      46.104   3.746   7.780  0.00  0.00    +0.000 A 
ATOM     19  C   UNL     1      45.225   3.782   8.862  0.00  0.00    +0.000 A 
ATOM     20  C   UNL     1      44.825   2.598   9.481  0.00  0.00    +0.000 A 
ATOM     21  N   UNL     1      43.970   2.575  10.551  0.00  0.00    +0.000 N 
ATOM     22  N   UNL     1      45.266   1.403   9.044  0.00  0.00    +0.000 NA
ATOM     23  C   UNL     1      46.116   1.383   7.981  0.00  0.00    +0.000 A 
ATOM     24  H   UNL     1      43.776   1.656  10.933  0.00  0.00    +0.000 HD
BRANCH  17  26
ATOM     25  N   UNL     1      47.430   3.328   5.219  0.00  0.00    +0.000 N 
ATOM     26  C   UNL     1      47.522   2.394   6.211  0.00  0.00    +0.000 C 
ATOM     27  O   UNL     1      48.372   1.515   6.178  0.00  0.00    +0.000 OA
ATOM     28  H   UNL     1      48.142   3.297   4.503  0.00  0.00    +0.000 HD
ATOM     29  H   UNL     1      46.916   4.194   5.324  0.00  0.00    +0.000 HD
ENDBRANCH  17  26
ENDBRANCH  16  21
ENDBRANCH   1  16
TORSDOF 6
ENDMDL
MODEL 4
REMARK VINA RESULT:    -8.443      3.050      4.372
REMARK INTER + INTRA:         -12.112
REMARK INTER:                 -11.325
REMARK INTRA:                  -0.787
REMARK UNBOUND:                -0.707
REMARK  Name = 
REMARK  6 active torsions:
REMARK  status: ('A' for Active; 'I' for Inactive)
REMARK    1  A    between atoms: C_2  and  C_4
REMARK    2  A    between atoms: N_8  and  C_9
REMARK    3  A    between atoms: C_9  and  C_10
REMARK    4  A    between atoms: C_10  and  C_13
REMARK    5  A    between atoms: C_17  and  N_18
REMARK    6  A    between atoms: N_18  and  C_19
REMARK                            x       y       z     vdW  Elec       q    Type
REMARK                         _______ _______ _______ _____ _____    ______ ____
ROOT
ATOM      1  C   UNL     1      43.561   4.606  12.655  0.00  0.00    +0.000 C 
ATOM      2  F   UNL     1      42.513   5.277  13.218  0.00  0.00    +0.000 F 
ATOM      3  F   UNL     1      43.612   3.405  13.307  0.00  0.00    +0.000 F 
ENDROOT
BRANCH   1   4
ATOM      4  C   UNL     1      44.864   5.377  12.778  0.00  0.00    +0.000 A 
ATOM      5  C   UNL     1      46.004   4.789  13.338  0.00  0.00    +0.000 A 
ATOM      6  C   UNL     1      47.176   5.531  13.491  0.00  0.00    +0.000 A 
ATOM      7  C   UNL     1      47.220   6.872  13.096  0.00  0.00    +0.000 A 
ATOM      8  C   UNL     1      46.100   7.477  12.523  0.00  0.00    +0.000 A 
ATOM      9  C   UNL     1      44.929   6.720  12.372  0.00  0.00    +0.000 A 
BRANCH   8  10
ATOM     10  N   UNL     1      46.064   8.831  12.132  0.00  0.00    +0.000 N 
ATOM     11  H   UNL     1      46.921   9.298  12.429  0.00  0.00    +0.000 HD
BRANCH  10  12
ATOM     12  C   UNL     1      44.916   9.697  12.145  0.00  0.00    +0.000 C 
ATOM     13  C   UNL     1      44.125   9.708  10.827  0.00  0.00    +0.000 C 
ATOM     14  O   UNL     1      44.234  11.153  10.731  0.00  0.00    +0.000 OA
ATOM     15  C   UNL     1      45.262  11.144  11.756  0.00  0.00    +0.000 C 
ENDBRANCH  10  12
ENDBRANCH   8  10
ENDBRANCH   1   4
BRANCH   1  16
ATOM     16  C   UNL     1      43.245   4.348  11.162  0.00  0.00    +0.000 C 
BRANCH  16  21
ATOM     17  C   UNL     1      46.468   2.655   7.551  0.00  0.00    +0.000 A 
ATOM     18  C   UNL     1      46.084   3.937   7.918  0.00  0.00    +0.000 A 
ATOM     19  C   UNL     1      45.168   4.097   8.957  0.00  0.00    +0.000 A 
ATOM     20  C   UNL     1      44.642   2.981   9.607  0.00  0.00    +0.000 A 
ATOM     21  N   UNL     1      43.744   3.080  10.637  0.00  0.00    +0.000 N 
ATOM     22  N   UNL     1      44.995   1.734   9.241  0.00  0.00    +0.000 NA
ATOM     23  C   UNL     1      45.883   1.594   8.219  0.00  0.00    +0.000 A 
ATOM     24  H   UNL     1      43.456   2.199  11.049  0.00  0.00    +0.000 HD
BRANCH  17  26
ATOM     25  N   UNL     1      47.399   3.227   5.387  0.00  0.00    +0.000 N 
ATOM     26  C   UNL     1      47.443   2.399   6.473  0.00  0.00    +0.000 C 
ATOM     27  O   UNL     1      48.276   1.508   6.557  0.00  0.00    +0.000 OA
ATOM     28  H   UNL     1      48.131   3.111   4.702  0.00  0.00    +0.000 HD
ATOM     29  H   UNL     1      46.899   4.107   5.386  0.00  0.00    +0.000 HD
ENDBRANCH  17  26
ENDBRANCH  16  21
ENDBRANCH   1  16
TORSDOF 6
ENDMDL
MODEL 5
REMARK VINA RESULT:    -8.423      2.465      3.526
REMARK INTER + INTRA:         -12.084
REMARK INTER:                 -11.167
REMARK INTRA:                  -0.917
REMARK UNBOUND:                -0.707
REMARK  Name = 
REMARK  6 active torsions:
REMARK  status: ('A' for Active; 'I' for Inactive)
REMARK    1  A    between atoms: C_2  and  C_4
REMARK    2  A    between atoms: N_8  and  C_9
REMARK    3  A    between atoms: C_9  and  C_10
REMARK    4  A    between atoms: C_10  and  C_13
REMARK    5  A    between atoms: C_17  and  N_18
REMARK    6  A    between atoms: N_18  and  C_19
REMARK                            x       y       z     vdW  Elec       q    Type
REMARK                         _______ _______ _______ _____ _____    ______ ____
ROOT
ATOM      1  C   UNL     1      43.309   5.372  12.243  0.00  0.00    +0.000 C 
ATOM      2  F   UNL     1      42.866   6.638  11.988  0.00  0.00    +0.000 F 
ATOM      3  F   UNL     1      42.457   4.875  13.190  0.00  0.00    +0.000 F 
ENDROOT
BRANCH   1   4
ATOM      4  C   UNL     1      44.753   5.357  12.712  0.00  0.00    +0.000 A 
ATOM      5  C   UNL     1      45.343   4.187  13.206  0.00  0.00    +0.000 A 
ATOM      6  C   UNL     1      46.655   4.207  13.681  0.00  0.00    +0.000 A 
ATOM      7  C   UNL     1      47.389   5.398  13.681  0.00  0.00    +0.000 A 
ATOM      8  C   UNL     1      46.827   6.574  13.183  0.00  0.00    +0.000 A 
ATOM      9  C   UNL     1      45.509   6.541  12.704  0.00  0.00    +0.000 A 
BRANCH   8  10
ATOM     10  N   UNL     1      47.497   7.814  13.181  0.00  0.00    +0.000 N 
ATOM     11  H   UNL     1      47.313   8.307  14.055  0.00  0.00    +0.000 HD
BRANCH  10  12
ATOM     12  C   UNL     1      47.662   8.698  12.059  0.00  0.00    +0.000 C 
ATOM     13  C   UNL     1      48.956   9.526  12.099  0.00  0.00    +0.000 C 
ATOM     14  O   UNL     1      48.211  10.765  11.962  0.00  0.00    +0.000 OA
ATOM     15  C   UNL     1      46.980  10.060  12.272  0.00  0.00    +0.000 C 
ENDBRANCH  10  12
ENDBRANCH   8  10
ENDBRANCH   1   4
BRANCH   1  16
ATOM     16  C   UNL     1      43.170   4.524  10.955  0.00  0.00    +0.000 C 
BRANCH  16  21
ATOM     17  C   UNL     1      46.475   2.306   7.724  0.00  0.00    +0.000 A 
ATOM     18  C   UNL     1      45.688   1.784   8.741  0.00  0.00    +0.000 A 
ATOM     19  C   UNL     1      44.871   2.646   9.472  0.00  0.00    +0.000 A 
ATOM     20  C   UNL     1      44.857   4.011   9.188  0.00  0.00    +0.000 A 
ATOM     21  N   UNL     1      44.069   4.901   9.870  0.00  0.00    +0.000 N 
ATOM     22  N   UNL     1      45.634   4.525   8.216  0.00  0.00    +0.000 NA
ATOM     23  C   UNL     1      46.434   3.673   7.517  0.00  0.00    +0.000 A 
ATOM     24  H   UNL     1      44.124   5.862   9.552  0.00  0.00    +0.000 HD
BRANCH  17  26
ATOM     25  N   UNL     1      48.491   2.043   6.405  0.00  0.00    +0.000 N 
ATOM     26  C   UNL     1      47.356   1.462   6.893  0.00  0.00    +0.000 C 
ATOM     27  O   UNL     1      47.101   0.286   6.676  0.00  0.00    +0.000 OA
ATOM     28  H   UNL     1      49.138   1.434   5.924  0.00  0.00    +0.000 HD
ATOM     29  H   UNL     1      48.854   2.921   6.754  0.00  0.00    +0.000 HD
ENDBRANCH  17  26
ENDBRANCH  16  21
ENDBRANCH   1  16
TORSDOF 6
ENDMDL
MODEL 6
REMARK VINA RESULT:    -7.777      2.011      7.854
REMARK INTER + INTRA:         -11.212
REMARK INTER:                 -10.572
REMARK INTRA:                  -0.641
REMARK UNBOUND:                -0.707
REMARK  Name = 
REMARK  6 active torsions:
REMARK  status: ('A' for Active; 'I' for Inactive)
REMARK    1  A    between atoms: C_2  and  C_4
REMARK    2  A    between atoms: N_8  and  C_9
REMARK    3  A    between atoms: C_9  and  C_10
REMARK    4  A    between atoms: C_10  and  C_13
REMARK    5  A    between atoms: C_17  and  N_18
REMARK    6  A    between atoms: N_18  and  C_19
REMARK                            x       y       z     vdW  Elec       q    Type
REMARK                         _______ _______ _______ _____ _____    ______ ____
ROOT
ATOM      1  C   UNL     1      45.692   6.173  11.375  0.00  0.00    +0.000 C 
ATOM      2  F   UNL     1      44.917   7.261  11.091  0.00  0.00    +0.000 F 
ATOM      3  F   UNL     1      46.968   6.544  11.055  0.00  0.00    +0.000 F 
ENDROOT
BRANCH   1   4
ATOM      4  C   UNL     1      45.246   4.940  10.608  0.00  0.00    +0.000 A 
ATOM      5  C   UNL     1      44.463   3.952  11.216  0.00  0.00    +0.000 A 
ATOM      6  C   UNL     1      44.108   2.801  10.510  0.00  0.00    +0.000 A 
ATOM      7  C   UNL     1      44.541   2.619   9.193  0.00  0.00    +0.000 A 
ATOM      8  C   UNL     1      45.313   3.595   8.561  0.00  0.00    +0.000 A 
ATOM      9  C   UNL     1      45.660   4.748   9.280  0.00  0.00    +0.000 A 
BRANCH   8  10
ATOM     10  N   UNL     1      45.809   3.463   7.249  0.00  0.00    +0.000 N 
ATOM     11  H   UNL     1      45.131   2.964   6.672  0.00  0.00    +0.000 HD
BRANCH  10  12
ATOM     12  C   UNL     1      47.170   3.204   6.869  0.00  0.00    +0.000 C 
ATOM     13  C   UNL     1      47.338   2.742   5.412  0.00  0.00    +0.000 C 
ATOM     14  O   UNL     1      48.056   1.552   5.834  0.00  0.00    +0.000 OA
ATOM     15  C   UNL     1      47.616   1.770   7.200  0.00  0.00    +0.000 C 
ENDBRANCH  10  12
ENDBRANCH   8  10
ENDBRANCH   1   4
BRANCH   1  16
ATOM     16  C   UNL     1      45.622   5.894  12.897  0.00  0.00    +0.000 C 
BRANCH  16  21
ATOM     17  C   UNL     1      48.498   4.153  16.769  0.00  0.00    +0.000 A 
ATOM     18  C   UNL     1      47.353   3.647  16.168  0.00  0.00    +0.000 A 
ATOM     19  C   UNL     1      46.774   4.354  15.115  0.00  0.00    +0.000 A 
ATOM     20  C   UNL     1      47.334   5.554  14.683  0.00  0.00    +0.000 A 
ATOM     21  N   UNL     1      46.810   6.286  13.649  0.00  0.00    +0.000 N 
ATOM     22  N   UNL     1      48.433   6.061  15.275  0.00  0.00    +0.000 NA
ATOM     23  C   UNL     1      48.982   5.365  16.308  0.00  0.00    +0.000 A 
ATOM     24  H   UNL     1      47.323   7.127  13.407  0.00  0.00    +0.000 HD
BRANCH  17  26
ATOM     25  N   UNL     1      48.438   3.186  18.990  0.00  0.00    +0.000 N 
ATOM     26  C   UNL     1      49.182   3.461  17.878  0.00  0.00    +0.000 C 
ATOM     27  O   UNL     1      50.353   3.117  17.797  0.00  0.00    +0.000 OA
ATOM     28  H   UNL     1      48.883   2.625  19.702  0.00  0.00    +0.000 HD
ATOM     29  H   UNL     1      47.427   3.234  19.002  0.00  0.00    +0.000 HD
ENDBRANCH  17  26
ENDBRANCH  16  21
ENDBRANCH   1  16
TORSDOF 6
ENDMDL
MODEL 7
REMARK VINA RESULT:    -7.546      3.779      5.544
REMARK INTER + INTRA:         -10.900
REMARK INTER:                 -10.102
REMARK INTRA:                  -0.798
REMARK UNBOUND:                -0.707
REMARK  Name = 
REMARK  6 active torsions:
REMARK  status: ('A' for Active; 'I' for Inactive)
REMARK    1  A    between atoms: C_2  and  C_4
REMARK    2  A    between atoms: N_8  and  C_9
REMARK    3  A    between atoms: C_9  and  C_10
REMARK    4  A    between atoms: C_10  and  C_13
REMARK    5  A    between atoms: C_17  and  N_18
REMARK    6  A    between atoms: N_18  and  C_19
REMARK                            x       y       z     vdW  Elec       q    Type
REMARK                         _______ _______ _______ _____ _____    ______ ____
ROOT
ATOM      1  C   UNL     1      45.090   5.890  12.312  0.00  0.00    +0.000 C 
ATOM      2  F   UNL     1      44.516   5.617  13.521  0.00  0.00    +0.000 F 
ATOM      3  F   UNL     1      46.187   5.077  12.242  0.00  0.00    +0.000 F 
ENDROOT
BRANCH   1   4
ATOM      4  C   UNL     1      45.457   7.357  12.174  0.00  0.00    +0.000 A 
ATOM      5  C   UNL     1      46.664   7.852  12.681  0.00  0.00    +0.000 A 
ATOM      6  C   UNL     1      46.960   9.213  12.591  0.00  0.00    +0.000 A 
ATOM      7  C   UNL     1      46.048  10.097  12.004  0.00  0.00    +0.000 A 
ATOM      8  C   UNL     1      44.844   9.625  11.480  0.00  0.00    +0.000 A 
ATOM      9  C   UNL     1      44.560   8.255  11.574  0.00  0.00    +0.000 A 
BRANCH   8  10
ATOM     10  N   UNL     1      43.867  10.462  10.905  0.00  0.00    +0.000 N 
ATOM     11  H   UNL     1      43.678  11.249  11.526  0.00  0.00    +0.000 HD
BRANCH  10  12
ATOM     12  C   UNL     1      42.713  10.045  10.156  0.00  0.00    +0.000 C 
ATOM     13  C   UNL     1      42.161  11.119   9.205  0.00  0.00    +0.000 C 
ATOM     14  O   UNL     1      40.839  11.015   9.797  0.00  0.00    +0.000 OA
ATOM     15  C   UNL     1      41.397  10.279  10.916  0.00  0.00    +0.000 C 
ENDBRANCH  10  12
ENDBRANCH   8  10
ENDBRANCH   1   4
BRANCH   1  16
ATOM     16  C   UNL     1      44.102   5.490  11.188  0.00  0.00    +0.000 C 
BRANCH  16  21
ATOM     17  C   UNL     1      46.434   2.801   7.498  0.00  0.00    +0.000 A 
ATOM     18  C   UNL     1      46.424   4.159   7.785  0.00  0.00    +0.000 A 
ATOM     19  C   UNL     1      45.681   4.614   8.873  0.00  0.00    +0.000 A 
ATOM     20  C   UNL     1      44.954   3.716   9.652  0.00  0.00    +0.000 A 
ATOM     21  N   UNL     1      44.212   4.107  10.736  0.00  0.00    +0.000 N 
ATOM     22  N   UNL     1      44.943   2.400   9.366  0.00  0.00    +0.000 NA
ATOM     23  C   UNL     1      45.665   1.971   8.295  0.00  0.00    +0.000 A 
ATOM     24  H   UNL     1      43.750   3.358  11.240  0.00  0.00    +0.000 HD
BRANCH  17  26
ATOM     25  N   UNL     1      47.151   2.904   5.185  0.00  0.00    +0.000 N 
ATOM     26  C   UNL     1      47.206   2.235   6.375  0.00  0.00    +0.000 C 
ATOM     27  O   UNL     1      47.892   1.232   6.507  0.00  0.00    +0.000 OA
ATOM     28  H   UNL     1      47.759   2.570   4.452  0.00  0.00    +0.000 HD
ATOM     29  H   UNL     1      46.800   3.849   5.101  0.00  0.00    +0.000 HD
ENDBRANCH  17  26
ENDBRANCH  16  21
ENDBRANCH   1  16
TORSDOF 6
ENDMDL
MODEL 8
REMARK VINA RESULT:    -7.422      2.165      7.200
REMARK INTER + INTRA:         -10.733
REMARK INTER:                 -10.085
REMARK INTRA:                  -0.648
REMARK UNBOUND:                -0.707
REMARK  Name = 
REMARK  6 active torsions:
REMARK  status: ('A' for Active; 'I' for Inactive)
REMARK    1  A    between atoms: C_2  and  C_4
REMARK    2  A    between atoms: N_8  and  C_9
REMARK    3  A    between atoms: C_9  and  C_10
REMARK    4  A    between atoms: C_10  and  C_13
REMARK    5  A    between atoms: C_17  and  N_18
REMARK    6  A    between atoms: N_18  and  C_19
REMARK                            x       y       z     vdW  Elec       q    Type
REMARK                         _______ _______ _______ _____ _____    ______ ____
ROOT
ATOM      1  C   UNL     1      45.689   7.114  12.083  0.00  0.00    +0.000 C 
ATOM      2  F   UNL     1      45.464   7.859  13.206  0.00  0.00    +0.000 F 
ATOM      3  F   UNL     1      45.387   7.940  11.036  0.00  0.00    +0.000 F 
ENDROOT
BRANCH   1   4
ATOM      4  C   UNL     1      44.856   5.844  12.067  0.00  0.00    +0.000 A 
ATOM      5  C   UNL     1      43.733   5.703  12.890  0.00  0.00    +0.000 A 
ATOM      6  C   UNL     1      43.012   4.508  12.899  0.00  0.00    +0.000 A 
ATOM      7  C   UNL     1      43.412   3.435  12.094  0.00  0.00    +0.000 A 
ATOM      8  C   UNL     1      44.521   3.556  11.256  0.00  0.00    +0.000 A 
ATOM      9  C   UNL     1      45.235   4.763  11.253  0.00  0.00    +0.000 A 
BRANCH   8  10
ATOM     10  N   UNL     1      44.997   2.508  10.443  0.00  0.00    +0.000 N 
ATOM     11  H   UNL     1      45.944   2.254  10.728  0.00  0.00    +0.000 HD
BRANCH  10  12
ATOM     12  C   UNL     1      44.769   2.344   9.034  0.00  0.00    +0.000 C 
ATOM     13  C   UNL     1      46.008   1.884   8.248  0.00  0.00    +0.000 C 
ATOM     14  O   UNL     1      45.892   3.010   7.337  0.00  0.00    +0.000 OA
ATOM     15  C   UNL     1      44.960   3.651   8.246  0.00  0.00    +0.000 C 
ENDBRANCH  10  12
ENDBRANCH   8  10
ENDBRANCH   1   4
BRANCH   1  16
ATOM     16  C   UNL     1      47.193   6.754  12.015  0.00  0.00    +0.000 C 
BRANCH  16  21
ATOM     17  C   UNL     1      47.875   4.365  16.499  0.00  0.00    +0.000 A 
ATOM     18  C   UNL     1      47.102   4.046  15.392  0.00  0.00    +0.000 A 
ATOM     19  C   UNL     1      47.110   4.903  14.292  0.00  0.00    +0.000 A 
ATOM     20  C   UNL     1      47.878   6.067  14.315  0.00  0.00    +0.000 A 
ATOM     21  N   UNL     1      47.928   6.942  13.261  0.00  0.00    +0.000 N 
ATOM     22  N   UNL     1      48.614   6.392  15.395  0.00  0.00    +0.000 NA
ATOM     23  C   UNL     1      48.589   5.550  16.465  0.00  0.00    +0.000 A 
ATOM     24  H   UNL     1      48.545   7.737  13.385  0.00  0.00    +0.000 HD
BRANCH  17  26
ATOM     25  N   UNL     1      46.938   2.584  17.850  0.00  0.00    +0.000 N 
ATOM     26  C   UNL     1      47.935   3.504  17.697  0.00  0.00    +0.000 C 
ATOM     27  O   UNL     1      48.853   3.585  18.501  0.00  0.00    +0.000 OA
ATOM     28  H   UNL     1      47.039   1.933  18.615  0.00  0.00    +0.000 HD
ATOM     29  H   UNL     1      46.308   2.324  17.101  0.00  0.00    +0.000 HD
ENDBRANCH  17  26
ENDBRANCH  16  21
ENDBRANCH   1  16
TORSDOF 6
ENDMDL
MODEL 9
REMARK VINA RESULT:    -6.989      3.269      7.457
REMARK INTER + INTRA:         -10.147
REMARK INTER:                  -9.477
REMARK INTRA:                  -0.671
REMARK UNBOUND:                -0.707
REMARK  Name = 
REMARK  6 active torsions:
REMARK  status: ('A' for Active; 'I' for Inactive)
REMARK    1  A    between atoms: C_2  and  C_4
REMARK    2  A    between atoms: N_8  and  C_9
REMARK    3  A    between atoms: C_9  and  C_10
REMARK    4  A    between atoms: C_10  and  C_13
REMARK    5  A    between atoms: C_17  and  N_18
REMARK    6  A    between atoms: N_18  and  C_19
REMARK                            x       y       z     vdW  Elec       q    Type
REMARK                         _______ _______ _______ _____ _____    ______ ____
ROOT
ATOM      1  C   UNL     1      44.561   6.147  11.318  0.00  0.00    +0.000 C 
ATOM      2  F   UNL     1      43.274   6.557  11.524  0.00  0.00    +0.000 F 
ATOM      3  F   UNL     1      45.165   7.175  10.649  0.00  0.00    +0.000 F 
ENDROOT
BRANCH   1   4
ATOM      4  C   UNL     1      44.626   4.844  10.541  0.00  0.00    +0.000 A 
ATOM      5  C   UNL     1      44.020   3.679  11.027  0.00  0.00    +0.000 A 
ATOM      6  C   UNL     1      44.137   2.479  10.324  0.00  0.00    +0.000 A 
ATOM      7  C   UNL     1      44.870   2.425   9.134  0.00  0.00    +0.000 A 
ATOM      8  C   UNL     1      45.473   3.576   8.623  0.00  0.00    +0.000 A 
ATOM      9  C   UNL     1      45.346   4.776   9.337  0.00  0.00    +0.000 A 
BRANCH   8  10
ATOM     10  N   UNL     1      46.252   3.588   7.449  0.00  0.00    +0.000 N 
ATOM     11  H   UNL     1      46.101   4.461   6.943  0.00  0.00    +0.000 HD
BRANCH  10  12
ATOM     12  C   UNL     1      46.511   2.472   6.580  0.00  0.00    +0.000 C 
ATOM     13  C   UNL     1      47.661   1.566   7.049  0.00  0.00    +0.000 C 
ATOM     14  O   UNL     1      48.341   1.708   5.773  0.00  0.00    +0.000 OA
ATOM     15  C   UNL     1      47.476   2.823   5.435  0.00  0.00    +0.000 C 
ENDBRANCH  10  12
ENDBRANCH   8  10
ENDBRANCH   1   4
BRANCH   1  16
ATOM     16  C   UNL     1      45.255   5.972  12.691  0.00  0.00    +0.000 C 
BRANCH  16  21
ATOM     17  C   UNL     1      49.767   8.399  12.872  0.00  0.00    +0.000 A 
ATOM     18  C   UNL     1      49.388   7.197  12.290  0.00  0.00    +0.000 A 
ATOM     19  C   UNL     1      48.063   6.778  12.408  0.00  0.00    +0.000 A 
ATOM     20  C   UNL     1      47.141   7.553  13.110  0.00  0.00    +0.000 A 
ATOM     21  N   UNL     1      45.827   7.192  13.252  0.00  0.00    +0.000 N 
ATOM     22  N   UNL     1      47.509   8.709  13.695  0.00  0.00    +0.000 NA
ATOM     23  C   UNL     1      48.807   9.101  13.579  0.00  0.00    +0.000 A 
ATOM     24  H   UNL     1      45.247   7.851  13.759  0.00  0.00    +0.000 HD
BRANCH  17  26
ATOM     25  N   UNL     1      52.121   8.040  12.419  0.00  0.00    +0.000 N 
ATOM     26  C   UNL     1      51.144   8.923  12.781  0.00  0.00    +0.000 C 
ATOM     27  O   UNL     1      51.399  10.101  12.987  0.00  0.00    +0.000 OA
ATOM     28  H   UNL     1      53.040   8.425  12.260  0.00  0.00    +0.000 HD
ATOM     29  H   UNL     1      51.921   7.135  12.011  0.00  0.00    +0.000 HD
ENDBRANCH  17  26
ENDBRANCH  16  21
ENDBRANCH   1  16
TORSDOF 6
ENDMDL
