MODEL 1
REMARK VINA RESULT:    -9.134      0.000      0.000
REMARK INTER + INTRA:         -12.920
REMARK INTER:                 -11.804
REMARK INTRA:                  -1.116
REMARK UNBOUND:                -1.116
REMARK  Name = 
REMARK  5 active torsions:
REMARK  status: ('A' for Active; 'I' for Inactive)
REMARK    1  A    between atoms: C_2  and  C_4
REMARK    2  A    between atoms: C_7  and  O_8
REMARK    3  A    between atoms: O_8  and  C_9
REMARK    4  A    between atoms: C_9  and  C_10
REMARK    5  A    between atoms: C_15  and  C_16
REMARK                            x       y       z     vdW  Elec       q    Type
REMARK                         _______ _______ _______ _____ _____    ______ ____
ROOT
ATOM      1  C   UNL     1      44.782   4.877  12.027  0.00  0.00    +0.000 A 
ATOM      2  C   UNL     1      45.410   3.940  12.852  0.00  0.00    +0.000 A 
ATOM      3  C   UNL     1      46.612   4.260  13.467  0.00  0.00    +0.000 A 
ATOM      4  F   UNL     1      47.210   3.354  14.252  0.00  0.00    +0.000 F 
ATOM      5  C   UNL     1      47.219   5.498  13.269  0.00  0.00    +0.000 A 
ATOM      6  C   UNL     1      46.637   6.456  12.423  0.00  0.00    +0.000 A 
ATOM      7  C   UNL     1      45.411   6.118  11.813  0.00  0.00    +0.000 A 
ENDROOT
BRANCH   6   8
ATOM      8  C   UNL     1      47.299   7.755  12.154  0.00  0.00    +0.000 A 
ATOM      9  C   UNL     1      46.618   8.980  12.310  0.00  0.00    +0.000 A 
ATOM     10  C   UNL     1      47.236  10.204  12.029  0.00  0.00    +0.000 A 
ATOM     11  C   UNL     1      48.559  10.232  11.597  0.00  0.00    +0.000 A 
ATOM     12  C   UNL     1      49.244   9.036  11.445  0.00  0.00    +0.000 A 
ATOM     13  F   UNL     1      50.518   9.056  11.028  0.00  0.00    +0.000 F 
ATOM     14  C   UNL     1      48.632   7.814  11.711  0.00  0.00    +0.000 A 
ENDBRANCH   6   8
BRANCH   1  15
ATOM     15  C   UNL     1      43.509   4.511  11.301  0.00  0.00    +0.000 C 
BRANCH  15  16
ATOM     16  O   UNL     1      43.670   4.694   9.893  0.00  0.00    +0.000 OA
BRANCH  16  20
ATOM     17  C   UNL     1      46.359   2.276   7.810  0.00  0.00    +0.000 A 
ATOM     18  C   UNL     1      45.469   1.668   8.703  0.00  0.00    +0.000 A 
ATOM     19  C   UNL     1      44.552   2.444   9.420  0.00  0.00    +0.000 A 
ATOM     20  C   UNL     1      44.519   3.831   9.255  0.00  0.00    +0.000 A 
ATOM     21  C   UNL     1      45.420   4.436   8.374  0.00  0.00    +0.000 A 
ATOM     22  C   UNL     1      46.342   3.665   7.660  0.00  0.00    +0.000 A 
BRANCH  17  24
ATOM     23  N   UNL     1      48.429   2.155   6.533  0.00  0.00    +0.000 N 
ATOM     24  C   UNL     1      47.343   1.485   7.027  0.00  0.00    +0.000 C 
ATOM     25  O   UNL     1      47.216   0.281   6.862  0.00  0.00    +0.000 OA
ATOM     26  H   UNL     1      49.145   1.582   6.105  0.00  0.00    +0.000 HD
ATOM     27  H   UNL     1      48.701   3.067   6.868  0.00  0.00    +0.000 HD
ENDBRANCH  17  24
ENDBRANCH  16  20
ENDBRANCH  15  16
ENDBRANCH   1  15
TORSDOF 5
ENDMDL
MODEL 2
REMARK VINA RESULT:    -9.115      0.970      1.364
REMARK INTER + INTRA:         -12.896
REMARK INTER:                 -11.772
REMARK INTRA:                  -1.123
REMARK UNBOUND:                -1.116
REMARK  Name = 
REMARK  5 active torsions:
REMARK  status: ('A' for Active; 'I' for Inactive)
REMARK    1  A    between atoms: C_2  and  C_4
REMARK    2  A    between atoms: C_7  and  O_8
REMARK    3  A    between atoms: O_8  and  C_9
REMARK    4  A    between atoms: C_9  and  C_10
REMARK    5  A    between atoms: C_15  and  C_16
REMARK                            x       y       z     vdW  Elec       q    Type
REMARK                         _______ _______ _______ _____ _____    ______ ____
ROOT
ATOM      1  C   UNL     1      44.774   4.914  12.036  0.00  0.00    +0.000 A 
ATOM      2  C   UNL     1      45.412   4.000  12.877  0.00  0.00    +0.000 A 
ATOM      3  C   UNL     1      46.607   4.349  13.491  0.00  0.00    +0.000 A 
ATOM      4  F   UNL     1      47.216   3.464  14.293  0.00  0.00    +0.000 F 
ATOM      5  C   UNL     1      47.194   5.594  13.278  0.00  0.00    +0.000 A 
ATOM      6  C   UNL     1      46.600   6.530  12.415  0.00  0.00    +0.000 A 
ATOM      7  C   UNL     1      45.383   6.162  11.805  0.00  0.00    +0.000 A 
ENDROOT
BRANCH   6   8
ATOM      8  C   UNL     1      47.242   7.835  12.130  0.00  0.00    +0.000 A 
ATOM      9  C   UNL     1      48.598   7.927  11.755  0.00  0.00    +0.000 A 
ATOM     10  C   UNL     1      49.210   9.163  11.513  0.00  0.00    +0.000 A 
ATOM     11  C   UNL     1      48.474  10.338  11.627  0.00  0.00    +0.000 A 
ATOM     12  C   UNL     1      47.137  10.263  11.989  0.00  0.00    +0.000 A 
ATOM     13  F   UNL     1      46.422  11.391  12.102  0.00  0.00    +0.000 F 
ATOM     14  C   UNL     1      46.525   9.039  12.243  0.00  0.00    +0.000 A 
ENDBRANCH   6   8
BRANCH   1  15
ATOM     15  C   UNL     1      43.510   4.517  11.309  0.00  0.00    +0.000 C 
BRANCH  15  16
ATOM     16  O   UNL     1      43.668   4.699   9.901  0.00  0.00    +0.000 OA
BRANCH  16  20
ATOM     17  C   UNL     1      46.323   2.254   7.808  0.00  0.00    +0.000 A 
ATOM     18  C   UNL     1      45.430   1.655   8.703  0.00  0.00    +0.000 A 
ATOM     19  C   UNL     1      44.523   2.440   9.423  0.00  0.00    +0.000 A 
ATOM     20  C   UNL     1      44.505   3.827   9.260  0.00  0.00    +0.000 A 
ATOM     21  C   UNL     1      45.410   4.423   8.377  0.00  0.00    +0.000 A 
ATOM     22  C   UNL     1      46.322   3.643   7.659  0.00  0.00    +0.000 A 
BRANCH  17  24
ATOM     23  N   UNL     1      48.396   2.109   6.537  0.00  0.00    +0.000 N 
ATOM     24  C   UNL     1      47.297   1.453   7.021  0.00  0.00    +0.000 C 
ATOM     25  O   UNL     1      47.150   0.253   6.845  0.00  0.00    +0.000 OA
ATOM     26  H   UNL     1      49.104   1.527   6.106  0.00  0.00    +0.000 HD
ATOM     27  H   UNL     1      48.682   3.013   6.880  0.00  0.00    +0.000 HD
ENDBRANCH  17  24
ENDBRANCH  16  20
ENDBRANCH  15  16
ENDBRANCH   1  15
TORSDOF 5
ENDMDL
MODEL 3
REMARK VINA RESULT:    -8.674      2.087      4.227
REMARK INTER + INTRA:         -12.325
REMARK INTER:                 -11.588
REMARK INTRA:                  -0.737
REMARK UNBOUND:                -1.116
REMARK  Name = 
REMARK  5 active torsions:
REMARK  status: ('A' for Active; 'I' for Inactive)
REMARK    1  A    between atoms: C_2  and  C_4
REMARK    2  A    between atoms: C_7  and  O_8
REMARK    3  A    between atoms: O_8  and  C_9
REMARK    4  A    between atoms: C_9  and  C_10
REMARK    5  A    between atoms: C_15  and  C_16
REMARK                            x       y       z     vdW  Elec       q    Type
REMARK                         _______ _______ _______ _____ _____    ______ ____
ROOT
ATOM      1  C   UNL     1      45.465   5.238  12.171  0.00  0.00    +0.000 A 
ATOM      2  C   UNL     1      46.136   6.268  11.508  0.00  0.00    +0.000 A 
ATOM      3  C   UNL     1      47.262   6.839  12.084  0.00  0.00    +0.000 A 
ATOM      4  F   UNL     1      47.896   7.830  11.444  0.00  0.00    +0.000 F 
ATOM      5  C   UNL     1      47.735   6.413  13.323  0.00  0.00    +0.000 A 
ATOM      6  C   UNL     1      47.072   5.401  14.037  0.00  0.00    +0.000 A 
ATOM      7  C   UNL     1      45.934   4.828  13.434  0.00  0.00    +0.000 A 
ENDROOT
BRANCH   6   8
ATOM      8  C   UNL     1      47.527   4.978  15.382  0.00  0.00    +0.000 A 
ATOM      9  C   UNL     1      48.516   5.694  16.089  0.00  0.00    +0.000 A 
ATOM     10  C   UNL     1      48.965   5.277  17.348  0.00  0.00    +0.000 A 
ATOM     11  C   UNL     1      48.424   4.139  17.937  0.00  0.00    +0.000 A 
ATOM     12  C   UNL     1      47.445   3.428  17.258  0.00  0.00    +0.000 A 
ATOM     13  F   UNL     1      46.920   2.330  17.819  0.00  0.00    +0.000 F 
ATOM     14  C   UNL     1      47.003   3.830  16.000  0.00  0.00    +0.000 A 
ENDBRANCH   6   8
BRANCH   1  15
ATOM     15  C   UNL     1      44.199   4.659  11.584  0.00  0.00    +0.000 C 
BRANCH  15  16
ATOM     16  O   UNL     1      44.162   4.876  10.172  0.00  0.00    +0.000 OA
BRANCH  16  20
ATOM     17  C   UNL     1      46.464   2.451   7.677  0.00  0.00    +0.000 A 
ATOM     18  C   UNL     1      45.648   1.838   8.633  0.00  0.00    +0.000 A 
ATOM     19  C   UNL     1      44.860   2.616   9.488  0.00  0.00    +0.000 A 
ATOM     20  C   UNL     1      44.886   4.009   9.399  0.00  0.00    +0.000 A 
ATOM     21  C   UNL     1      45.715   4.619   8.453  0.00  0.00    +0.000 A 
ATOM     22  C   UNL     1      46.508   3.845   7.600  0.00  0.00    +0.000 A 
BRANCH  17  24
ATOM     23  N   UNL     1      48.331   2.318   6.118  0.00  0.00    +0.000 N 
ATOM     24  C   UNL     1      47.311   1.659   6.747  0.00  0.00    +0.000 C 
ATOM     25  O   UNL     1      47.135   0.461   6.578  0.00  0.00    +0.000 OA
ATOM     26  H   UNL     1      48.967   1.741   5.581  0.00  0.00    +0.000 HD
ATOM     27  H   UNL     1      48.668   3.217   6.428  0.00  0.00    +0.000 HD
ENDBRANCH  17  24
ENDBRANCH  16  20
ENDBRANCH  15  16
ENDBRANCH   1  15
TORSDOF 5
ENDMDL
MODEL 4
REMARK VINA RESULT:    -8.390      2.129      2.840
REMARK INTER + INTRA:         -11.959
REMARK INTER:                 -11.098
REMARK INTRA:                  -0.861
REMARK UNBOUND:                -1.116
REMARK  Name = 
REMARK  5 active torsions:
REMARK  status: ('A' for Active; 'I' for Inactive)
REMARK    1  A    between atoms: C_2  and  C_4
REMARK    2  A    between atoms: C_7  and  O_8
REMARK    3  A    between atoms: O_8  and  C_9
REMARK    4  A    between atoms: C_9  and  C_10
REMARK    5  A    between atoms: C_15  and  C_16
REMARK                            x       y       z     vdW  Elec       q    Type
REMARK                         _______ _______ _______ _____ _____    ______ ____
ROOT
ATOM      1  C   UNL     1      44.535   4.923  11.620  0.00  0.00    +0.000 A 
ATOM      2  C   UNL     1      43.595   5.911  11.314  0.00  0.00    +0.000 A 
ATOM      3  C   UNL     1      43.959   7.249  11.372  0.00  0.00    +0.000 A 
ATOM      4  F   UNL     1      43.050   8.190  11.082  0.00  0.00    +0.000 F 
ATOM      5  C   UNL     1      45.246   7.633  11.742  0.00  0.00    +0.000 A 
ATOM      6  C   UNL     1      46.211   6.673  12.087  0.00  0.00    +0.000 A 
ATOM      7  C   UNL     1      45.827   5.318  12.016  0.00  0.00    +0.000 A 
ENDROOT
BRANCH   6   8
ATOM      8  C   UNL     1      47.566   7.067  12.541  0.00  0.00    +0.000 A 
ATOM      9  C   UNL     1      48.521   7.597  11.649  0.00  0.00    +0.000 A 
ATOM     10  C   UNL     1      49.810   7.942  12.074  0.00  0.00    +0.000 A 
ATOM     11  C   UNL     1      50.169   7.778  13.408  0.00  0.00    +0.000 A 
ATOM     12  C   UNL     1      49.239   7.265  14.299  0.00  0.00    +0.000 A 
ATOM     13  F   UNL     1      49.579   7.103  15.586  0.00  0.00    +0.000 F 
ATOM     14  C   UNL     1      47.959   6.907  13.882  0.00  0.00    +0.000 A 
ENDBRANCH   6   8
BRANCH   1  15
ATOM     15  C   UNL     1      44.128   3.468  11.626  0.00  0.00    +0.000 C 
BRANCH  15  16
ATOM     16  O   UNL     1      43.648   3.081  10.337  0.00  0.00    +0.000 OA
BRANCH  16  20
ATOM     17  C   UNL     1      46.524   2.557   7.360  0.00  0.00    +0.000 A 
ATOM     18  C   UNL     1      45.949   3.823   7.516  0.00  0.00    +0.000 A 
ATOM     19  C   UNL     1      44.983   4.040   8.503  0.00  0.00    +0.000 A 
ATOM     20  C   UNL     1      44.578   2.995   9.337  0.00  0.00    +0.000 A 
ATOM     21  C   UNL     1      45.143   1.727   9.167  0.00  0.00    +0.000 A 
ATOM     22  C   UNL     1      46.106   1.505   8.178  0.00  0.00    +0.000 A 
BRANCH  17  24
ATOM     23  N   UNL     1      47.544   3.080   5.211  0.00  0.00    +0.000 N 
ATOM     24  C   UNL     1      47.559   2.289   6.327  0.00  0.00    +0.000 C 
ATOM     25  O   UNL     1      48.415   1.430   6.480  0.00  0.00    +0.000 OA
ATOM     26  H   UNL     1      48.323   2.962   4.575  0.00  0.00    +0.000 HD
ATOM     27  H   UNL     1      47.038   3.951   5.171  0.00  0.00    +0.000 HD
ENDBRANCH  17  24
ENDBRANCH  16  20
ENDBRANCH  15  16
ENDBRANCH   1  15
TORSDOF 5
ENDMDL
MODEL 5
REMARK VINA RESULT:    -7.913      4.130      7.285
REMARK INTER + INTRA:         -11.342
REMARK INTER:                 -10.917
REMARK INTRA:                  -0.425
REMARK UNBOUND:                -1.116
REMARK  Name = 
REMARK  5 active torsions:
REMARK  status: ('A' for Active; 'I' for Inactive)
REMARK    1  A    between atoms: C_2  and  C_4
REMARK    2  A    between atoms: C_7  and  O_8
REMARK    3  A    between atoms: O_8  and  C_9
REMARK    4  A    between atoms: C_9  and  C_10
REMARK    5  A    between atoms: C_15  and  C_16
REMARK                            x       y       z     vdW  Elec       q    Type
REMARK                         _______ _______ _______ _____ _____    ______ ____
ROOT
ATOM      1  C   UNL     1      45.358   6.327  11.455  0.00  0.00    +0.000 A 
ATOM      2  C   UNL     1      43.997   6.235  11.758  0.00  0.00    +0.000 A 
ATOM      3  C   UNL     1      43.211   5.286  11.120  0.00  0.00    +0.000 A 
ATOM      4  F   UNL     1      41.906   5.209  11.413  0.00  0.00    +0.000 F 
ATOM      5  C   UNL     1      43.750   4.424  10.168  0.00  0.00    +0.000 A 
ATOM      6  C   UNL     1      45.106   4.503   9.811  0.00  0.00    +0.000 A 
ATOM      7  C   UNL     1      45.891   5.468  10.475  0.00  0.00    +0.000 A 
ENDROOT
BRANCH   6   8
ATOM      8  C   UNL     1      45.680   3.633   8.757  0.00  0.00    +0.000 A 
ATOM      9  C   UNL     1      46.248   4.169   7.584  0.00  0.00    +0.000 A 
ATOM     10  C   UNL     1      46.765   3.346   6.576  0.00  0.00    +0.000 A 
ATOM     11  C   UNL     1      46.738   1.963   6.727  0.00  0.00    +0.000 A 
ATOM     12  C   UNL     1      46.189   1.420   7.879  0.00  0.00    +0.000 A 
ATOM     13  F   UNL     1      46.159   0.089   8.030  0.00  0.00    +0.000 F 
ATOM     14  C   UNL     1      45.662   2.233   8.880  0.00  0.00    +0.000 A 
ENDBRANCH   6   8
BRANCH   1  15
ATOM     15  C   UNL     1      46.205   7.402  12.094  0.00  0.00    +0.000 C 
BRANCH  15  16
ATOM     16  O   UNL     1      47.493   6.885  12.432  0.00  0.00    +0.000 OA
BRANCH  16  20
ATOM     17  C   UNL     1      47.630   4.656  15.956  0.00  0.00    +0.000 A 
ATOM     18  C   UNL     1      48.318   5.873  15.911  0.00  0.00    +0.000 A 
ATOM     19  C   UNL     1      48.296   6.651  14.748  0.00  0.00    +0.000 A 
ATOM     20  C   UNL     1      47.593   6.216  13.621  0.00  0.00    +0.000 A 
ATOM     21  C   UNL     1      46.920   4.992  13.666  0.00  0.00    +0.000 A 
ATOM     22  C   UNL     1      46.944   4.209  14.824  0.00  0.00    +0.000 A 
BRANCH  17  24
ATOM     23  N   UNL     1      48.648   3.986  18.065  0.00  0.00    +0.000 N 
ATOM     24  C   UNL     1      47.625   3.805  17.175  0.00  0.00    +0.000 C 
ATOM     25  O   UNL     1      46.727   3.007  17.399  0.00  0.00    +0.000 OA
ATOM     26  H   UNL     1      48.566   3.485  18.941  0.00  0.00    +0.000 HD
ATOM     27  H   UNL     1      49.242   4.801  18.049  0.00  0.00    +0.000 HD
ENDBRANCH  17  24
ENDBRANCH  16  20
ENDBRANCH  15  16
ENDBRANCH   1  15
TORSDOF 5
ENDMDL
MODEL 6
REMARK VINA RESULT:    -7.887      3.547      6.791
REMARK INTER + INTRA:         -11.308
REMARK INTER:                 -10.294
REMARK INTRA:                  -1.014
REMARK UNBOUND:                -1.116
REMARK  Name = 
REMARK  5 active torsions:
REMARK  status: ('A' for Active; 'I' for Inactive)
REMARK    1  A    between atoms: C_2  and  C_4
REMARK    2  A    between atoms: C_7  and  O_8
REMARK    3  A    between atoms: O_8  and  C_9
REMARK    4  A    between atoms: C_9  and  C_10
REMARK    5  A    between atoms: C_15  and  C_16
REMARK                            x       y       z     vdW  Elec       q    Type
REMARK                         _______ _______ _______ _____ _____    ______ ____
ROOT
ATOM      1  C   UNL     1      44.369   5.386  11.151  0.00  0.00    +0.000 A 
ATOM      2  C   UNL     1      43.685   4.493  11.979  0.00  0.00    +0.000 A 
ATOM      3  C   UNL     1      43.718   3.134  11.701  0.00  0.00    +0.000 A 
ATOM      4  F   UNL     1      43.055   2.284  12.497  0.00  0.00    +0.000 F 
ATOM      5  C   UNL     1      44.413   2.637  10.601  0.00  0.00    +0.000 A 
ATOM      6  C   UNL     1      45.088   3.505   9.726  0.00  0.00    +0.000 A 
ATOM      7  C   UNL     1      45.051   4.881  10.027  0.00  0.00    +0.000 A 
ENDROOT
BRANCH   6   8
ATOM      8  C   UNL     1      45.782   2.999   8.518  0.00  0.00    +0.000 A 
ATOM      9  C   UNL     1      46.164   3.859   7.469  0.00  0.00    +0.000 A 
ATOM     10  C   UNL     1      46.794   3.376   6.315  0.00  0.00    +0.000 A 
ATOM     11  C   UNL     1      47.069   2.018   6.191  0.00  0.00    +0.000 A 
ATOM     12  C   UNL     1      46.705   1.159   7.218  0.00  0.00    +0.000 A 
ATOM     13  F   UNL     1      46.966  -0.151   7.103  0.00  0.00    +0.000 F 
ATOM     14  C   UNL     1      46.067   1.631   8.362  0.00  0.00    +0.000 A 
ENDBRANCH   6   8
BRANCH   1  15
ATOM     15  C   UNL     1      44.281   6.873  11.407  0.00  0.00    +0.000 C 
BRANCH  15  16
ATOM     16  O   UNL     1      44.935   7.206  12.634  0.00  0.00    +0.000 OA
BRANCH  16  20
ATOM     17  C   UNL     1      49.048   7.859  12.388  0.00  0.00    +0.000 A 
ATOM     18  C   UNL     1      48.597   6.616  12.846  0.00  0.00    +0.000 A 
ATOM     19  C   UNL     1      47.225   6.357  12.942  0.00  0.00    +0.000 A 
ATOM     20  C   UNL     1      46.295   7.338  12.588  0.00  0.00    +0.000 A 
ATOM     21  C   UNL     1      46.751   8.584  12.145  0.00  0.00    +0.000 A 
ATOM     22  C   UNL     1      48.120   8.848  12.053  0.00  0.00    +0.000 A 
BRANCH  17  24
ATOM     23  N   UNL     1      51.213   7.447  11.352  0.00  0.00    +0.000 N 
ATOM     24  C   UNL     1      50.496   8.169  12.266  0.00  0.00    +0.000 C 
ATOM     25  O   UNL     1      51.022   9.057  12.921  0.00  0.00    +0.000 OA
ATOM     26  H   UNL     1      52.167   7.750  11.199  0.00  0.00    +0.000 HD
ATOM     27  H   UNL     1      50.773   6.909  10.621  0.00  0.00    +0.000 HD
ENDBRANCH  17  24
ENDBRANCH  16  20
ENDBRANCH  15  16
ENDBRANCH   1  15
TORSDOF 5
ENDMDL
MODEL 7
REMARK VINA RESULT:    -7.647      1.702      2.353
REMARK INTER + INTRA:         -10.998
REMARK INTER:                 -10.028
REMARK INTRA:                  -0.970
REMARK UNBOUND:                -1.116
REMARK  Name = 
REMARK  5 active torsions:
REMARK  status: ('A' for Active; 'I' for Inactive)
REMARK    1  A    between atoms: C_2  and  C_4
REMARK    2  A    between atoms: C_7  and  O_8
REMARK    3  A    between atoms: O_8  and  C_9
REMARK    4  A    between atoms: C_9  and  C_10
REMARK    5  A    between atoms: C_15  and  C_16
REMARK                            x       y       z     vdW  Elec       q    Type
REMARK                         _______ _______ _______ _____ _____    ______ ____
ROOT
ATOM      1  C   UNL     1      45.830   6.154  11.777  0.00  0.00    +0.000 A 
ATOM      2  C   UNL     1      45.585   5.306  12.859  0.00  0.00    +0.000 A 
ATOM      3  C   UNL     1      46.536   5.178  13.862  0.00  0.00    +0.000 A 
ATOM      4  F   UNL     1      46.296   4.357  14.894  0.00  0.00    +0.000 F 
ATOM      5  C   UNL     1      47.742   5.873  13.808  0.00  0.00    +0.000 A 
ATOM      6  C   UNL     1      48.040   6.713  12.723  0.00  0.00    +0.000 A 
ATOM      7  C   UNL     1      47.060   6.836  11.716  0.00  0.00    +0.000 A 
ENDROOT
BRANCH   6   8
ATOM      8  C   UNL     1      49.343   7.412  12.620  0.00  0.00    +0.000 A 
ATOM      9  C   UNL     1      49.932   7.702  11.373  0.00  0.00    +0.000 A 
ATOM     10  C   UNL     1      51.176   8.337  11.279  0.00  0.00    +0.000 A 
ATOM     11  C   UNL     1      51.855   8.712  12.434  0.00  0.00    +0.000 A 
ATOM     12  C   UNL     1      51.284   8.440  13.669  0.00  0.00    +0.000 A 
ATOM     13  F   UNL     1      51.934   8.797  14.786  0.00  0.00    +0.000 F 
ATOM     14  C   UNL     1      50.054   7.797  13.771  0.00  0.00    +0.000 A 
ENDBRANCH   6   8
BRANCH   1  15
ATOM     15  C   UNL     1      44.831   6.246  10.647  0.00  0.00    +0.000 C 
BRANCH  15  16
ATOM     16  O   UNL     1      44.247   4.967  10.395  0.00  0.00    +0.000 OA
BRANCH  16  20
ATOM     17  C   UNL     1      46.247   2.215   7.979  0.00  0.00    +0.000 A 
ATOM     18  C   UNL     1      46.411   3.578   7.713  0.00  0.00    +0.000 A 
ATOM     19  C   UNL     1      45.759   4.533   8.501  0.00  0.00    +0.000 A 
ATOM     20  C   UNL     1      44.933   4.133   9.554  0.00  0.00    +0.000 A 
ATOM     21  C   UNL     1      44.759   2.770   9.807  0.00  0.00    +0.000 A 
ATOM     22  C   UNL     1      45.405   1.812   9.019  0.00  0.00    +0.000 A 
BRANCH  17  24
ATOM     23  N   UNL     1      46.801  -0.124   7.588  0.00  0.00    +0.000 N 
ATOM     24  C   UNL     1      46.928   1.172   7.169  0.00  0.00    +0.000 C 
ATOM     25  O   UNL     1      47.543   1.448   6.149  0.00  0.00    +0.000 OA
ATOM     26  H   UNL     1      47.171  -0.830   6.963  0.00  0.00    +0.000 HD
ATOM     27  H   UNL     1      46.098  -0.413   8.251  0.00  0.00    +0.000 HD
ENDBRANCH  17  24
ENDBRANCH  16  20
ENDBRANCH  15  16
ENDBRANCH   1  15
TORSDOF 5
ENDMDL
MODEL 8
REMARK VINA RESULT:    -7.456      2.477      3.336
REMARK INTER + INTRA:         -10.752
REMARK INTER:                  -9.936
REMARK INTRA:                  -0.816
REMARK UNBOUND:                -1.116
REMARK  Name = 
REMARK  5 active torsions:
REMARK  status: ('A' for Active; 'I' for Inactive)
REMARK    1  A    between atoms: C_2  and  C_4
REMARK    2  A    between atoms: C_7  and  O_8
REMARK    3  A    between atoms: O_8  and  C_9
REMARK    4  A    between atoms: C_9  and  C_10
REMARK    5  A    between atoms: C_15  and  C_16
REMARK                            x       y       z     vdW  Elec       q    Type
REMARK                         _______ _______ _______ _____ _____    ______ ____
ROOT
ATOM      1  C   UNL     1      45.573   5.510  12.333  0.00  0.00    +0.000 A 
ATOM      2  C   UNL     1      44.872   6.665  11.978  0.00  0.00    +0.000 A 
ATOM      3  C   UNL     1      45.366   7.909  12.342  0.00  0.00    +0.000 A 
ATOM      4  F   UNL     1      44.684   9.012  12.003  0.00  0.00    +0.000 F 
ATOM      5  C   UNL     1      46.548   8.034  13.068  0.00  0.00    +0.000 A 
ATOM      6  C   UNL     1      47.267   6.897  13.471  0.00  0.00    +0.000 A 
ATOM      7  C   UNL     1      46.755   5.641  13.087  0.00  0.00    +0.000 A 
ENDROOT
BRANCH   6   8
ATOM      8  C   UNL     1      48.494   7.009  14.295  0.00  0.00    +0.000 A 
ATOM      9  C   UNL     1      49.632   7.705  13.838  0.00  0.00    +0.000 A 
ATOM     10  C   UNL     1      50.800   7.786  14.607  0.00  0.00    +0.000 A 
ATOM     11  C   UNL     1      50.852   7.184  15.860  0.00  0.00    +0.000 A 
ATOM     12  C   UNL     1      49.737   6.502  16.326  0.00  0.00    +0.000 A 
ATOM     13  F   UNL     1      49.780   5.918  17.532  0.00  0.00    +0.000 F 
ATOM     14  C   UNL     1      48.577   6.406  15.563  0.00  0.00    +0.000 A 
ENDBRANCH   6   8
BRANCH   1  15
ATOM     15  C   UNL     1      45.007   4.149  12.000  0.00  0.00    +0.000 C 
BRANCH  15  16
ATOM     16  O   UNL     1      44.343   4.182  10.735  0.00  0.00    +0.000 OA
BRANCH  16  20
ATOM     17  C   UNL     1      46.536   3.026   7.379  0.00  0.00    +0.000 A 
ATOM     18  C   UNL     1      45.984   2.029   8.191  0.00  0.00    +0.000 A 
ATOM     19  C   UNL     1      45.242   2.375   9.324  0.00  0.00    +0.000 A 
ATOM     20  C   UNL     1      45.050   3.718   9.659  0.00  0.00    +0.000 A 
ATOM     21  C   UNL     1      45.616   4.711   8.854  0.00  0.00    +0.000 A 
ATOM     22  C   UNL     1      46.363   4.369   7.723  0.00  0.00    +0.000 A 
BRANCH  17  24
ATOM     23  N   UNL     1      48.630   2.331   6.348  0.00  0.00    +0.000 N 
ATOM     24  C   UNL     1      47.325   2.697   6.163  0.00  0.00    +0.000 C 
ATOM     25  O   UNL     1      46.825   2.711   5.048  0.00  0.00    +0.000 OA
ATOM     26  H   UNL     1      49.117   1.999   5.525  0.00  0.00    +0.000 HD
ATOM     27  H   UNL     1      48.993   2.054   7.247  0.00  0.00    +0.000 HD
ENDBRANCH  17  24
ENDBRANCH  16  20
ENDBRANCH  15  16
ENDBRANCH   1  15
TORSDOF 5
ENDMDL
MODEL 9
REMARK VINA RESULT:    -7.347      4.587      7.761
REMARK INTER + INTRA:         -10.611
REMARK INTER:                  -9.820
REMARK INTRA:                  -0.792
REMARK UNBOUND:                -1.116
REMARK  Name = 
REMARK  5 active torsions:
REMARK  status: ('A' for Active; 'I' for Inactive)
REMARK    1  A    between atoms: C_2  and  C_4
REMARK    2  A    between atoms: C_7  and  O_8
REMARK    3  A    between atoms: O_8  and  C_9
REMARK    4  A    between atoms: C_9  and  C_10
REMARK    5  A    between atoms: C_15  and  C_16
REMARK                            x       y       z     vdW  Elec       q    Type
REMARK                         _______ _______ _______ _____ _____    ______ ____
ROOT
ATOM      1  C   UNL     1      45.322   5.947  12.377  0.00  0.00    +0.000 A 
ATOM      2  C   UNL     1      43.952   6.184  12.519  0.00  0.00    +0.000 A 
ATOM      3  C   UNL     1      43.055   5.580  11.649  0.00  0.00    +0.000 A 
ATOM      4  F   UNL     1      41.744   5.818  11.789  0.00  0.00    +0.000 F 
ATOM      5  C   UNL     1      43.492   4.745  10.624  0.00  0.00    +0.000 A 
ATOM      6  C   UNL     1      44.862   4.504  10.428  0.00  0.00    +0.000 A 
ATOM      7  C   UNL     1      45.759   5.120  11.324  0.00  0.00    +0.000 A 
ENDROOT
BRANCH   6   8
ATOM      8  C   UNL     1      45.347   3.667   9.305  0.00  0.00    +0.000 A 
ATOM      9  C   UNL     1      45.355   2.259   9.381  0.00  0.00    +0.000 A 
ATOM     10  C   UNL     1      45.840   1.471   8.330  0.00  0.00    +0.000 A 
ATOM     11  C   UNL     1      46.317   2.074   7.171  0.00  0.00    +0.000 A 
ATOM     12  C   UNL     1      46.308   3.458   7.078  0.00  0.00    +0.000 A 
ATOM     13  F   UNL     1      46.767   4.045   5.964  0.00  0.00    +0.000 F 
ATOM     14  C   UNL     1      45.839   4.249   8.123  0.00  0.00    +0.000 A 
ENDBRANCH   6   8
BRANCH   1  15
ATOM     15  C   UNL     1      46.309   6.655  13.275  0.00  0.00    +0.000 C 
BRANCH  15  16
ATOM     16  O   UNL     1      47.438   5.817  13.531  0.00  0.00    +0.000 OA
BRANCH  16  20
ATOM     17  C   UNL     1      48.133   4.760  17.507  0.00  0.00    +0.000 A 
ATOM     18  C   UNL     1      47.331   3.922  16.725  0.00  0.00    +0.000 A 
ATOM     19  C   UNL     1      47.075   4.240  15.387  0.00  0.00    +0.000 A 
ATOM     20  C   UNL     1      47.611   5.400  14.823  0.00  0.00    +0.000 A 
ATOM     21  C   UNL     1      48.400   6.243  15.612  0.00  0.00    +0.000 A 
ATOM     22  C   UNL     1      48.654   5.931  16.951  0.00  0.00    +0.000 A 
BRANCH  17  24
ATOM     23  N   UNL     1      48.535   3.132  19.273  0.00  0.00    +0.000 N 
ATOM     24  C   UNL     1      48.433   4.452  18.929  0.00  0.00    +0.000 C 
ATOM     25  O   UNL     1      48.623   5.335  19.754  0.00  0.00    +0.000 OA
ATOM     26  H   UNL     1      48.855   2.943  20.215  0.00  0.00    +0.000 HD
ATOM     27  H   UNL     1      48.651   2.401  18.587  0.00  0.00    +0.000 HD
ENDBRANCH  17  24
ENDBRANCH  16  20
ENDBRANCH  15  16
ENDBRANCH   1  15
TORSDOF 5
ENDMDL
