MODEL 1
REMARK VINA RESULT:    -9.291      0.000      0.000
REMARK INTER + INTRA:         -12.137
REMARK INTER:                 -11.464
REMARK INTRA:                  -0.673
REMARK UNBOUND:                -0.673
REMARK  Name = 
REMARK  4 active torsions:
REMARK  status: ('A' for Active; 'I' for Inactive)
REMARK    1  A    between atoms: C_2  and  C_4
REMARK    2  A    between atoms: N_8  and  C_9
REMARK    3  A    between atoms: C_9  and  C_10
REMARK    4  A    between atoms: C_14  and  C_15
REMARK                            x       y       z     vdW  Elec       q    Type
REMARK                         _______ _______ _______ _____ _____    ______ ____
ROOT
ATOM      1  C   UNL     1      43.466   4.845  11.005  0.00  0.00    +0.000 C 
ENDROOT
BRANCH   1   6
ATOM      2  C   UNL     1      46.374   2.262   7.664  0.00  0.00    +0.000 A 
ATOM      3  C   UNL     1      45.640   1.782   8.744  0.00  0.00    +0.000 A 
ATOM      4  C   UNL     1      44.783   2.642   9.421  0.00  0.00    +0.000 A 
ATOM      5  C   UNL     1      44.678   3.971   9.024  0.00  0.00    +0.000 A 
ATOM      6  N   UNL     1      43.781   4.855   9.586  0.00  0.00    +0.000 N 
ATOM      7  N   UNL     1      45.396   4.455   7.994  0.00  0.00    +0.000 NA
ATOM      8  C   UNL     1      46.236   3.602   7.340  0.00  0.00    +0.000 A 
ATOM      9  H   UNL     1      43.922   5.766   9.164  0.00  0.00    +0.000 HD
BRANCH   2  11
ATOM     10  N   UNL     1      48.346   2.012   6.268  0.00  0.00    +0.000 N 
ATOM     11  C   UNL     1      47.281   1.402   6.877  0.00  0.00    +0.000 C 
ATOM     12  O   UNL     1      47.110   0.194   6.798  0.00  0.00    +0.000 OA
ATOM     13  H   UNL     1      49.011   1.408   5.803  0.00  0.00    +0.000 HD
ATOM     14  H   UNL     1      48.653   2.944   6.510  0.00  0.00    +0.000 HD
ENDBRANCH   2  11
ENDBRANCH   1   6
BRANCH   1  15
ATOM     15  C   UNL     1      44.656   5.042  11.907  0.00  0.00    +0.000 A 
ATOM     16  C   UNL     1      44.754   4.324  13.093  0.00  0.00    +0.000 A 
ATOM     17  N   UNL     1      45.729   4.500  14.010  0.00  0.00    +0.000 NA
ATOM     18  C   UNL     1      46.659   5.446  13.734  0.00  0.00    +0.000 A 
ATOM     19  C   UNL     1      46.680   6.245  12.589  0.00  0.00    +0.000 A 
ATOM     20  C   UNL     1      45.635   6.021  11.679  0.00  0.00    +0.000 A 
BRANCH  19  21
ATOM     21  C   UNL     1      47.721   7.268  12.348  0.00  0.00    +0.000 A 
ATOM     22  C   UNL     1      49.091   6.968  12.501  0.00  0.00    +0.000 A 
ATOM     23  C   UNL     1      50.086   7.926  12.265  0.00  0.00    +0.000 A 
ATOM     24  C   UNL     1      49.730   9.214  11.885  0.00  0.00    +0.000 A 
ATOM     25  C   UNL     1      48.388   9.529  11.736  0.00  0.00    +0.000 A 
ATOM     26  F   UNL     1      48.039  10.770  11.371  0.00  0.00    +0.000 F 
ATOM     27  C   UNL     1      47.393   8.577  11.954  0.00  0.00    +0.000 A 
ENDBRANCH  19  21
ENDBRANCH   1  15
TORSDOF 4
ENDMDL
MODEL 2
REMARK VINA RESULT:    -8.600      2.514      3.595
REMARK INTER + INTRA:         -11.284
REMARK INTER:                 -10.549
REMARK INTRA:                  -0.735
REMARK UNBOUND:                -0.673
REMARK  Name = 
REMARK  4 active torsions:
REMARK  status: ('A' for Active; 'I' for Inactive)
REMARK    1  A    between atoms: C_2  and  C_4
REMARK    2  A    between atoms: N_8  and  C_9
REMARK    3  A    between atoms: C_9  and  C_10
REMARK    4  A    between atoms: C_14  and  C_15
REMARK                            x       y       z     vdW  Elec       q    Type
REMARK                         _______ _______ _______ _____ _____    ______ ____
ROOT
ATOM      1  C   UNL     1      44.044   5.058  11.289  0.00  0.00    +0.000 C 
ENDROOT
BRANCH   1   6
ATOM      2  C   UNL     1      46.508   2.388   7.670  0.00  0.00    +0.000 A 
ATOM      3  C   UNL     1      45.831   1.926   8.794  0.00  0.00    +0.000 A 
ATOM      4  C   UNL     1      45.087   2.820   9.556  0.00  0.00    +0.000 A 
ATOM      5  C   UNL     1      45.038   4.163   9.198  0.00  0.00    +0.000 A 
ATOM      6  N   UNL     1      44.248   5.086   9.849  0.00  0.00    +0.000 N 
ATOM      7  N   UNL     1      45.704   4.629   8.125  0.00  0.00    +0.000 NA
ATOM      8  C   UNL     1      46.432   3.743   7.387  0.00  0.00    +0.000 A 
ATOM      9  H   UNL     1      44.414   5.998   9.438  0.00  0.00    +0.000 HD
BRANCH   2  11
ATOM     10  N   UNL     1      48.359   2.047   6.135  0.00  0.00    +0.000 N 
ATOM     11  C   UNL     1      47.293   1.494   6.795  0.00  0.00    +0.000 C 
ATOM     12  O   UNL     1      47.025   0.306   6.687  0.00  0.00    +0.000 OA
ATOM     13  H   UNL     1      48.944   1.414   5.605  0.00  0.00    +0.000 HD
ATOM     14  H   UNL     1      48.752   2.943   6.386  0.00  0.00    +0.000 HD
ENDBRANCH   2  11
ENDBRANCH   1   6
BRANCH   1  15
ATOM     15  C   UNL     1      45.143   5.713  12.084  0.00  0.00    +0.000 A 
ATOM     16  C   UNL     1      45.683   6.920  11.656  0.00  0.00    +0.000 A 
ATOM     17  N   UNL     1      46.732   7.534  12.243  0.00  0.00    +0.000 NA
ATOM     18  C   UNL     1      47.276   6.913  13.317  0.00  0.00    +0.000 A 
ATOM     19  C   UNL     1      46.842   5.697  13.849  0.00  0.00    +0.000 A 
ATOM     20  C   UNL     1      45.755   5.103  13.188  0.00  0.00    +0.000 A 
BRANCH  19  21
ATOM     21  C   UNL     1      47.484   5.063  15.022  0.00  0.00    +0.000 A 
ATOM     22  C   UNL     1      47.257   3.707  15.337  0.00  0.00    +0.000 A 
ATOM     23  C   UNL     1      47.866   3.094  16.439  0.00  0.00    +0.000 A 
ATOM     24  C   UNL     1      48.708   3.831  17.264  0.00  0.00    +0.000 A 
ATOM     25  C   UNL     1      48.939   5.167  16.973  0.00  0.00    +0.000 A 
ATOM     26  F   UNL     1      49.748   5.883  17.765  0.00  0.00    +0.000 F 
ATOM     27  C   UNL     1      48.347   5.781  15.870  0.00  0.00    +0.000 A 
ENDBRANCH  19  21
ENDBRANCH   1  15
TORSDOF 4
ENDMDL
MODEL 3
REMARK VINA RESULT:    -8.572      4.021      6.996
REMARK INTER + INTRA:         -11.250
REMARK INTER:                 -10.792
REMARK INTRA:                  -0.458
REMARK UNBOUND:                -0.673
REMARK  Name = 
REMARK  4 active torsions:
REMARK  status: ('A' for Active; 'I' for Inactive)
REMARK    1  A    between atoms: C_2  and  C_4
REMARK    2  A    between atoms: N_8  and  C_9
REMARK    3  A    between atoms: C_9  and  C_10
REMARK    4  A    between atoms: C_14  and  C_15
REMARK                            x       y       z     vdW  Elec       q    Type
REMARK                         _______ _______ _______ _____ _____    ______ ____
ROOT
ATOM      1  C   UNL     1      43.616   6.461  11.375  0.00  0.00    +0.000 C 
ENDROOT
BRANCH   1   6
ATOM      2  C   UNL     1      48.270   7.097  13.433  0.00  0.00    +0.000 A 
ATOM      3  C   UNL     1      47.521   5.931  13.297  0.00  0.00    +0.000 A 
ATOM      4  C   UNL     1      46.348   5.959  12.552  0.00  0.00    +0.000 A 
ATOM      5  C   UNL     1      45.927   7.147  11.964  0.00  0.00    +0.000 A 
ATOM      6  N   UNL     1      44.828   7.229  11.137  0.00  0.00    +0.000 N 
ATOM      7  N   UNL     1      46.629   8.287  12.104  0.00  0.00    +0.000 NA
ATOM      8  C   UNL     1      47.777   8.248  12.839  0.00  0.00    +0.000 A 
ATOM      9  H   UNL     1      44.698   8.198  10.869  0.00  0.00    +0.000 HD
BRANCH   2  11
ATOM     10  N   UNL     1      50.595   7.778  13.585  0.00  0.00    +0.000 N 
ATOM     11  C   UNL     1      49.542   7.138  14.182  0.00  0.00    +0.000 C 
ATOM     12  O   UNL     1      49.644   6.651  15.299  0.00  0.00    +0.000 OA
ATOM     13  H   UNL     1      51.438   7.879  14.136  0.00  0.00    +0.000 HD
ATOM     14  H   UNL     1      50.483   8.393  12.791  0.00  0.00    +0.000 HD
ENDBRANCH   2  11
ENDBRANCH   1   6
BRANCH   1  15
ATOM     15  C   UNL     1      43.707   5.014  10.965  0.00  0.00    +0.000 A 
ATOM     16  C   UNL     1      43.061   4.039  11.716  0.00  0.00    +0.000 A 
ATOM     17  N   UNL     1      43.163   2.713  11.486  0.00  0.00    +0.000 NA
ATOM     18  C   UNL     1      43.953   2.333  10.453  0.00  0.00    +0.000 A 
ATOM     19  C   UNL     1      44.665   3.201   9.623  0.00  0.00    +0.000 A 
ATOM     20  C   UNL     1      44.526   4.567   9.918  0.00  0.00    +0.000 A 
BRANCH  19  21
ATOM     21  C   UNL     1      45.519   2.724   8.512  0.00  0.00    +0.000 A 
ATOM     22  C   UNL     1      45.935   3.595   7.483  0.00  0.00    +0.000 A 
ATOM     23  C   UNL     1      46.751   3.158   6.433  0.00  0.00    +0.000 A 
ATOM     24  C   UNL     1      47.158   1.830   6.379  0.00  0.00    +0.000 A 
ATOM     25  C   UNL     1      46.754   0.958   7.379  0.00  0.00    +0.000 A 
ATOM     26  F   UNL     1      47.143  -0.323   7.332  0.00  0.00    +0.000 F 
ATOM     27  C   UNL     1      45.954   1.390   8.435  0.00  0.00    +0.000 A 
ENDBRANCH  19  21
ENDBRANCH   1  15
TORSDOF 4
ENDMDL
MODEL 4
REMARK VINA RESULT:    -8.471      3.991      7.059
REMARK INTER + INTRA:         -11.125
REMARK INTER:                 -10.364
REMARK INTRA:                  -0.761
REMARK UNBOUND:                -0.673
REMARK  Name = 
REMARK  4 active torsions:
REMARK  status: ('A' for Active; 'I' for Inactive)
REMARK    1  A    between atoms: C_2  and  C_4
REMARK    2  A    between atoms: N_8  and  C_9
REMARK    3  A    between atoms: C_9  and  C_10
REMARK    4  A    between atoms: C_14  and  C_15
REMARK                            x       y       z     vdW  Elec       q    Type
REMARK                         _______ _______ _______ _____ _____    ______ ____
ROOT
ATOM      1  C   UNL     1      44.040   6.555  11.606  0.00  0.00    +0.000 C 
ENDROOT
BRANCH   1   6
ATOM      2  C   UNL     1      48.909   7.526  12.887  0.00  0.00    +0.000 A 
ATOM      3  C   UNL     1      48.152   8.057  11.847  0.00  0.00    +0.000 A 
ATOM      4  C   UNL     1      46.791   7.778  11.784  0.00  0.00    +0.000 A 
ATOM      5  C   UNL     1      46.205   6.964  12.747  0.00  0.00    +0.000 A 
ATOM      6  N   UNL     1      44.849   6.721  12.803  0.00  0.00    +0.000 N 
ATOM      7  N   UNL     1      46.928   6.427  13.749  0.00  0.00    +0.000 NA
ATOM      8  C   UNL     1      48.262   6.706  13.797  0.00  0.00    +0.000 A 
ATOM      9  H   UNL     1      44.670   6.070  13.559  0.00  0.00    +0.000 HD
BRANCH   2  11
ATOM     10  N   UNL     1      51.121   7.731  11.907  0.00  0.00    +0.000 N 
ATOM     11  C   UNL     1      50.352   7.803  13.038  0.00  0.00    +0.000 C 
ATOM     12  O   UNL     1      50.835   8.115  14.117  0.00  0.00    +0.000 OA
ATOM     13  H   UNL     1      52.091   8.004  11.998  0.00  0.00    +0.000 HD
ATOM     14  H   UNL     1      50.727   7.721  10.977  0.00  0.00    +0.000 HD
ENDBRANCH   2  11
ENDBRANCH   1   6
BRANCH   1  15
ATOM     15  C   UNL     1      43.969   5.140  11.096  0.00  0.00    +0.000 A 
ATOM     16  C   UNL     1      43.172   4.207  11.748  0.00  0.00    +0.000 A 
ATOM     17  N   UNL     1      43.118   2.897  11.427  0.00  0.00    +0.000 NA
ATOM     18  C   UNL     1      43.903   2.490  10.400  0.00  0.00    +0.000 A 
ATOM     19  C   UNL     1      44.756   3.314   9.664  0.00  0.00    +0.000 A 
ATOM     20  C   UNL     1      44.775   4.663  10.052  0.00  0.00    +0.000 A 
BRANCH  19  21
ATOM     21  C   UNL     1      45.596   2.808   8.556  0.00  0.00    +0.000 A 
ATOM     22  C   UNL     1      46.075   3.670   7.547  0.00  0.00    +0.000 A 
ATOM     23  C   UNL     1      46.878   3.205   6.499  0.00  0.00    +0.000 A 
ATOM     24  C   UNL     1      47.209   1.857   6.426  0.00  0.00    +0.000 A 
ATOM     25  C   UNL     1      46.742   0.993   7.406  0.00  0.00    +0.000 A 
ATOM     26  F   UNL     1      47.056  -0.308   7.340  0.00  0.00    +0.000 F 
ATOM     27  C   UNL     1      45.954   1.451   8.460  0.00  0.00    +0.000 A 
ENDBRANCH  19  21
ENDBRANCH   1  15
TORSDOF 4
ENDMDL
MODEL 5
REMARK VINA RESULT:    -8.401      4.200      7.375
REMARK INTER + INTRA:         -11.039
REMARK INTER:                 -10.544
REMARK INTRA:                  -0.494
REMARK UNBOUND:                -0.673
REMARK  Name = 
REMARK  4 active torsions:
REMARK  status: ('A' for Active; 'I' for Inactive)
REMARK    1  A    between atoms: C_2  and  C_4
REMARK    2  A    between atoms: N_8  and  C_9
REMARK    3  A    between atoms: C_9  and  C_10
REMARK    4  A    between atoms: C_14  and  C_15
REMARK                            x       y       z     vdW  Elec       q    Type
REMARK                         _______ _______ _______ _____ _____    ______ ____
ROOT
ATOM      1  C   UNL     1      44.886   6.792  11.457  0.00  0.00    +0.000 C 
ENDROOT
BRANCH   1   6
ATOM      2  C   UNL     1      47.909   5.428  15.368  0.00  0.00    +0.000 A 
ATOM      3  C   UNL     1      46.886   4.709  14.757  0.00  0.00    +0.000 A 
ATOM      4  C   UNL     1      46.304   5.207  13.596  0.00  0.00    +0.000 A 
ATOM      5  C   UNL     1      46.737   6.418  13.067  0.00  0.00    +0.000 A 
ATOM      6  N   UNL     1      46.273   6.926  11.873  0.00  0.00    +0.000 N 
ATOM      7  N   UNL     1      47.712   7.135  13.659  0.00  0.00    +0.000 NA
ATOM      8  C   UNL     1      48.273   6.637  14.798  0.00  0.00    +0.000 A 
ATOM      9  H   UNL     1      46.701   7.833  11.721  0.00  0.00    +0.000 HD
BRANCH   2  11
ATOM     10  N   UNL     1      47.828   4.314  17.524  0.00  0.00    +0.000 N 
ATOM     11  C   UNL     1      48.596   4.948  16.584  0.00  0.00    +0.000 C 
ATOM     12  O   UNL     1      49.803   5.082  16.733  0.00  0.00    +0.000 OA
ATOM     13  H   UNL     1      48.316   3.913  18.315  0.00  0.00    +0.000 HD
ATOM     14  H   UNL     1      46.898   3.973  17.330  0.00  0.00    +0.000 HD
ENDBRANCH   2  11
ENDBRANCH   1   6
BRANCH   1  15
ATOM     15  C   UNL     1      44.534   5.439  10.897  0.00  0.00    +0.000 A 
ATOM     16  C   UNL     1      43.497   4.705  11.459  0.00  0.00    +0.000 A 
ATOM     17  N   UNL     1      43.170   3.448  11.093  0.00  0.00    +0.000 NA
ATOM     18  C   UNL     1      43.917   2.886  10.112  0.00  0.00    +0.000 A 
ATOM     19  C   UNL     1      44.991   3.503   9.466  0.00  0.00    +0.000 A 
ATOM     20  C   UNL     1      45.288   4.805   9.899  0.00  0.00    +0.000 A 
BRANCH  19  21
ATOM     21  C   UNL     1      45.776   2.834   8.405  0.00  0.00    +0.000 A 
ATOM     22  C   UNL     1      46.328   3.565   7.332  0.00  0.00    +0.000 A 
ATOM     23  C   UNL     1      47.081   2.944   6.327  0.00  0.00    +0.000 A 
ATOM     24  C   UNL     1      47.286   1.570   6.364  0.00  0.00    +0.000 A 
ATOM     25  C   UNL     1      46.746   0.834   7.409  0.00  0.00    +0.000 A 
ATOM     26  F   UNL     1      46.939  -0.491   7.449  0.00  0.00    +0.000 F 
ATOM     27  C   UNL     1      46.008   1.447   8.420  0.00  0.00    +0.000 A 
ENDBRANCH  19  21
ENDBRANCH   1  15
TORSDOF 4
ENDMDL
MODEL 6
REMARK VINA RESULT:    -8.047      4.041      7.149
REMARK INTER + INTRA:         -10.602
REMARK INTER:                  -9.894
REMARK INTRA:                  -0.708
REMARK UNBOUND:                -0.673
REMARK  Name = 
REMARK  4 active torsions:
REMARK  status: ('A' for Active; 'I' for Inactive)
REMARK    1  A    between atoms: C_2  and  C_4
REMARK    2  A    between atoms: N_8  and  C_9
REMARK    3  A    between atoms: C_9  and  C_10
REMARK    4  A    between atoms: C_14  and  C_15
REMARK                            x       y       z     vdW  Elec       q    Type
REMARK                         _______ _______ _______ _____ _____    ______ ____
ROOT
ATOM      1  C   UNL     1      44.817   5.457  13.164  0.00  0.00    +0.000 C 
ENDROOT
BRANCH   1   6
ATOM      2  C   UNL     1      48.043   9.236  11.894  0.00  0.00    +0.000 A 
ATOM      3  C   UNL     1      48.182   7.863  11.710  0.00  0.00    +0.000 A 
ATOM      4  C   UNL     1      47.103   7.028  11.979  0.00  0.00    +0.000 A 
ATOM      5  C   UNL     1      45.908   7.566  12.441  0.00  0.00    +0.000 A 
ATOM      6  N   UNL     1      44.770   6.813  12.639  0.00  0.00    +0.000 N 
ATOM      7  N   UNL     1      45.764   8.890  12.644  0.00  0.00    +0.000 NA
ATOM      8  C   UNL     1      46.830   9.698  12.379  0.00  0.00    +0.000 A 
ATOM      9  H   UNL     1      44.047   7.415  13.017  0.00  0.00    +0.000 HD
BRANCH   2  11
ATOM     10  N   UNL     1      50.183  10.224  12.479  0.00  0.00    +0.000 N 
ATOM     11  C   UNL     1      49.133  10.189  11.600  0.00  0.00    +0.000 C 
ATOM     12  O   UNL     1      49.116  10.893  10.600  0.00  0.00    +0.000 OA
ATOM     13  H   UNL     1      50.965  10.815  12.229  0.00  0.00    +0.000 HD
ATOM     14  H   UNL     1      50.347   9.500  13.164  0.00  0.00    +0.000 HD
ENDBRANCH   2  11
ENDBRANCH   1   6
BRANCH   1  15
ATOM     15  C   UNL     1      44.434   4.393  12.170  0.00  0.00    +0.000 A 
ATOM     16  C   UNL     1      43.418   3.494  12.474  0.00  0.00    +0.000 A 
ATOM     17  N   UNL     1      43.069   2.450  11.693  0.00  0.00    +0.000 NA
ATOM     18  C   UNL     1      43.770   2.287  10.546  0.00  0.00    +0.000 A 
ATOM     19  C   UNL     1      44.819   3.106  10.120  0.00  0.00    +0.000 A 
ATOM     20  C   UNL     1      45.140   4.169  10.979  0.00  0.00    +0.000 A 
BRANCH  19  21
ATOM     21  C   UNL     1      45.553   2.872   8.857  0.00  0.00    +0.000 A 
ATOM     22  C   UNL     1      45.867   3.936   7.985  0.00  0.00    +0.000 A 
ATOM     23  C   UNL     1      46.570   3.728   6.792  0.00  0.00    +0.000 A 
ATOM     24  C   UNL     1      46.964   2.444   6.435  0.00  0.00    +0.000 A 
ATOM     25  C   UNL     1      46.659   1.385   7.277  0.00  0.00    +0.000 A 
ATOM     26  F   UNL     1      47.035   0.145   6.938  0.00  0.00    +0.000 F 
ATOM     27  C   UNL     1      45.972   1.586   8.473  0.00  0.00    +0.000 A 
ENDBRANCH  19  21
ENDBRANCH   1  15
TORSDOF 4
ENDMDL
MODEL 7
REMARK VINA RESULT:    -8.003      2.030      2.582
REMARK INTER + INTRA:         -10.547
REMARK INTER:                 -10.248
REMARK INTRA:                  -0.299
REMARK UNBOUND:                -0.673
REMARK  Name = 
REMARK  4 active torsions:
REMARK  status: ('A' for Active; 'I' for Inactive)
REMARK    1  A    between atoms: C_2  and  C_4
REMARK    2  A    between atoms: N_8  and  C_9
REMARK    3  A    between atoms: C_9  and  C_10
REMARK    4  A    between atoms: C_14  and  C_15
REMARK                            x       y       z     vdW  Elec       q    Type
REMARK                         _______ _______ _______ _____ _____    ______ ____
ROOT
ATOM      1  C   UNL     1      43.477   3.443  11.019  0.00  0.00    +0.000 C 
ENDROOT
BRANCH   1   6
ATOM      2  C   UNL     1      46.698   2.495   7.143  0.00  0.00    +0.000 A 
ATOM      3  C   UNL     1      46.231   3.717   7.618  0.00  0.00    +0.000 A 
ATOM      4  C   UNL     1      45.491   3.752   8.795  0.00  0.00    +0.000 A 
ATOM      5  C   UNL     1      45.213   2.572   9.475  0.00  0.00    +0.000 A 
ATOM      6  N   UNL     1      44.569   2.539  10.693  0.00  0.00    +0.000 N 
ATOM      7  N   UNL     1      45.642   1.380   9.017  0.00  0.00    +0.000 NA
ATOM      8  C   UNL     1      46.364   1.358   7.861  0.00  0.00    +0.000 A 
ATOM      9  H   UNL     1      44.445   1.570  10.965  0.00  0.00    +0.000 HD
BRANCH   2  11
ATOM     10  N   UNL     1      47.340   3.345   4.961  0.00  0.00    +0.000 N 
ATOM     11  C   UNL     1      47.516   2.382   5.918  0.00  0.00    +0.000 C 
ATOM     12  O   UNL     1      48.337   1.487   5.777  0.00  0.00    +0.000 OA
ATOM     13  H   UNL     1      47.962   3.313   4.163  0.00  0.00    +0.000 HD
ATOM     14  H   UNL     1      46.864   4.217   5.144  0.00  0.00    +0.000 HD
ENDBRANCH   2  11
ENDBRANCH   1   6
BRANCH   1  15
ATOM     15  C   UNL     1      43.911   4.847  11.347  0.00  0.00    +0.000 A 
ATOM     16  C   UNL     1      43.065   5.916  11.076  0.00  0.00    +0.000 A 
ATOM     17  N   UNL     1      43.400   7.212  11.242  0.00  0.00    +0.000 NA
ATOM     18  C   UNL     1      44.649   7.463  11.703  0.00  0.00    +0.000 A 
ATOM     19  C   UNL     1      45.604   6.491  12.008  0.00  0.00    +0.000 A 
ATOM     20  C   UNL     1      45.199   5.162  11.804  0.00  0.00    +0.000 A 
BRANCH  19  21
ATOM     21  C   UNL     1      46.958   6.828  12.502  0.00  0.00    +0.000 A 
ATOM     22  C   UNL     1      47.869   7.553  11.705  0.00  0.00    +0.000 A 
ATOM     23  C   UNL     1      49.149   7.886  12.165  0.00  0.00    +0.000 A 
ATOM     24  C   UNL     1      49.554   7.486  13.433  0.00  0.00    +0.000 A 
ATOM     25  C   UNL     1      48.674   6.767  14.229  0.00  0.00    +0.000 A 
ATOM     26  F   UNL     1      49.060   6.378  15.451  0.00  0.00    +0.000 F 
ATOM     27  C   UNL     1      47.394   6.445  13.783  0.00  0.00    +0.000 A 
ENDBRANCH  19  21
ENDBRANCH   1  15
TORSDOF 4
ENDMDL
MODEL 8
REMARK VINA RESULT:    -7.781      4.774      8.135
REMARK INTER + INTRA:         -10.274
REMARK INTER:                  -9.797
REMARK INTRA:                  -0.477
REMARK UNBOUND:                -0.673
REMARK  Name = 
REMARK  4 active torsions:
REMARK  status: ('A' for Active; 'I' for Inactive)
REMARK    1  A    between atoms: C_2  and  C_4
REMARK    2  A    between atoms: N_8  and  C_9
REMARK    3  A    between atoms: C_9  and  C_10
REMARK    4  A    between atoms: C_14  and  C_15
REMARK                            x       y       z     vdW  Elec       q    Type
REMARK                         _______ _______ _______ _____ _____    ______ ____
ROOT
ATOM      1  C   UNL     1      45.373   4.500  13.579  0.00  0.00    +0.000 C 
ENDROOT
BRANCH   1   6
ATOM      2  C   UNL     1      48.830   5.007  17.332  0.00  0.00    +0.000 A 
ATOM      3  C   UNL     1      47.854   4.029  17.163  0.00  0.00    +0.000 A 
ATOM      4  C   UNL     1      47.129   3.989  15.976  0.00  0.00    +0.000 A 
ATOM      5  C   UNL     1      47.374   4.929  14.982  0.00  0.00    +0.000 A 
ATOM      6  N   UNL     1      46.762   4.894  13.747  0.00  0.00    +0.000 N 
ATOM      7  N   UNL     1      48.300   5.894  15.139  0.00  0.00    +0.000 NA
ATOM      8  C   UNL     1      49.002   5.924  16.307  0.00  0.00    +0.000 A 
ATOM      9  H   UNL     1      47.067   5.702  13.214  0.00  0.00    +0.000 HD
BRANCH   2  11
ATOM     10  N   UNL     1      49.582   4.051  19.433  0.00  0.00    +0.000 N 
ATOM     11  C   UNL     1      49.661   5.094  18.549  0.00  0.00    +0.000 C 
ATOM     12  O   UNL     1      50.411   6.040  18.747  0.00  0.00    +0.000 OA
ATOM     13  H   UNL     1      50.215   4.074  20.222  0.00  0.00    +0.000 HD
ATOM     14  H   UNL     1      49.173   3.160  19.191  0.00  0.00    +0.000 HD
ENDBRANCH   2  11
ENDBRANCH   1   6
BRANCH   1  15
ATOM     15  C   UNL     1      44.887   4.532  12.153  0.00  0.00    +0.000 A 
ATOM     16  C   UNL     1      43.680   5.148  11.846  0.00  0.00    +0.000 A 
ATOM     17  N   UNL     1      43.115   5.144  10.620  0.00  0.00    +0.000 NA
ATOM     18  C   UNL     1      43.787   4.488   9.643  0.00  0.00    +0.000 A 
ATOM     19  C   UNL     1      45.002   3.820   9.811  0.00  0.00    +0.000 A 
ATOM     20  C   UNL     1      45.533   3.852  11.110  0.00  0.00    +0.000 A 
BRANCH  19  21
ATOM     21  C   UNL     1      45.685   3.114   8.704  0.00  0.00    +0.000 A 
ATOM     22  C   UNL     1      46.190   3.816   7.590  0.00  0.00    +0.000 A 
ATOM     23  C   UNL     1      46.847   3.160   6.541  0.00  0.00    +0.000 A 
ATOM     24  C   UNL     1      47.001   1.779   6.577  0.00  0.00    +0.000 A 
ATOM     25  C   UNL     1      46.505   1.072   7.662  0.00  0.00    +0.000 A 
ATOM     26  F   UNL     1      46.649  -0.260   7.701  0.00  0.00    +0.000 F 
ATOM     27  C   UNL     1      45.863   1.719   8.716  0.00  0.00    +0.000 A 
ENDBRANCH  19  21
ENDBRANCH   1  15
TORSDOF 4
ENDMDL
MODEL 9
REMARK VINA RESULT:    -7.619      2.389      2.843
REMARK INTER + INTRA:         -10.075
REMARK INTER:                  -9.472
REMARK INTRA:                  -0.602
REMARK UNBOUND:                -0.673
REMARK  Name = 
REMARK  4 active torsions:
REMARK  status: ('A' for Active; 'I' for Inactive)
REMARK    1  A    between atoms: C_2  and  C_4
REMARK    2  A    between atoms: N_8  and  C_9
REMARK    3  A    between atoms: C_9  and  C_10
REMARK    4  A    between atoms: C_14  and  C_15
REMARK                            x       y       z     vdW  Elec       q    Type
REMARK                         _______ _______ _______ _____ _____    ______ ____
ROOT
ATOM      1  C   UNL     1      44.036   5.426  11.105  0.00  0.00    +0.000 C 
ENDROOT
BRANCH   1   6
ATOM      2  C   UNL     1      46.326   2.072   7.975  0.00  0.00    +0.000 A 
ATOM      3  C   UNL     1      45.575   1.831   9.121  0.00  0.00    +0.000 A 
ATOM      4  C   UNL     1      44.901   2.886   9.727  0.00  0.00    +0.000 A 
ATOM      5  C   UNL     1      44.995   4.167   9.194  0.00  0.00    +0.000 A 
ATOM      6  N   UNL     1      44.282   5.240   9.684  0.00  0.00    +0.000 N 
ATOM      7  N   UNL     1      45.734   4.419   8.097  0.00  0.00    +0.000 NA
ATOM      8  C   UNL     1      46.392   3.377   7.513  0.00  0.00    +0.000 A 
ATOM      9  H   UNL     1      44.549   6.068   9.164  0.00  0.00    +0.000 HD
BRANCH   2  11
ATOM     10  N   UNL     1      46.748  -0.292   7.612  0.00  0.00    +0.000 N 
ATOM     11  C   UNL     1      47.043   0.998   7.258  0.00  0.00    +0.000 C 
ATOM     12  O   UNL     1      47.842   1.246   6.366  0.00  0.00    +0.000 OA
ATOM     13  H   UNL     1      47.177  -1.024   7.061  0.00  0.00    +0.000 HD
ATOM     14  H   UNL     1      45.933  -0.536   8.156  0.00  0.00    +0.000 HD
ENDBRANCH   2  11
ENDBRANCH   1   6
BRANCH   1  15
ATOM     15  C   UNL     1      44.787   6.578  11.720  0.00  0.00    +0.000 A 
ATOM     16  C   UNL     1      44.410   7.884  11.431  0.00  0.00    +0.000 A 
ATOM     17  N   UNL     1      45.078   8.978  11.853  0.00  0.00    +0.000 NA
ATOM     18  C   UNL     1      46.185   8.763  12.604  0.00  0.00    +0.000 A 
ATOM     19  C   UNL     1      46.683   7.509  12.963  0.00  0.00    +0.000 A 
ATOM     20  C   UNL     1      45.950   6.410  12.485  0.00  0.00    +0.000 A 
BRANCH  19  21
ATOM     21  C   UNL     1      47.904   7.338  13.781  0.00  0.00    +0.000 A 
ATOM     22  C   UNL     1      49.091   8.040  13.480  0.00  0.00    +0.000 A 
ATOM     23  C   UNL     1      50.249   7.893  14.253  0.00  0.00    +0.000 A 
ATOM     24  C   UNL     1      50.253   7.025  15.338  0.00  0.00    +0.000 A 
ATOM     25  C   UNL     1      49.097   6.322  15.645  0.00  0.00    +0.000 A 
ATOM     26  F   UNL     1      49.095   5.483  16.689  0.00  0.00    +0.000 F 
ATOM     27  C   UNL     1      47.936   6.474  14.889  0.00  0.00    +0.000 A 
ENDBRANCH  19  21
ENDBRANCH   1  15
TORSDOF 4
ENDMDL
