MODEL 1
REMARK VINA RESULT:    -9.151      0.000      0.000
REMARK INTER + INTRA:         -14.168
REMARK INTER:                 -12.895
REMARK INTRA:                  -1.273
REMARK UNBOUND:                -1.273
REMARK  Name = 
REMARK  7 active torsions:
REMARK  status: ('A' for Active; 'I' for Inactive)
REMARK    1  A    between atoms: C_2  and  C_4
REMARK    2  A    between atoms: N_8  and  C_9
REMARK    3  A    between atoms: C_9  and  C_10
REMARK    4  A    between atoms: C_10  and  C_11
REMARK    5  A    between atoms: C_15  and  C_16
REMARK    6  A    between atoms: C_19  and  O_20
REMARK    7  A    between atoms: O_20  and  C_21
REMARK                            x       y       z     vdW  Elec       q    Type
REMARK                         _______ _______ _______ _____ _____    ______ ____
ROOT
ATOM      1  C   UNL     1      45.069   5.873  12.356  0.00  0.00    +0.000 A 
ATOM      2  C   UNL     1      45.847   6.685  11.517  0.00  0.00    +0.000 A 
ATOM      3  C   UNL     1      47.186   6.922  11.795  0.00  0.00    +0.000 A 
ATOM      4  C   UNL     1      47.767   6.367  12.929  0.00  0.00    +0.000 A 
ATOM      5  C   UNL     1      47.020   5.582  13.826  0.00  0.00    +0.000 A 
ATOM      6  C   UNL     1      45.677   5.318  13.497  0.00  0.00    +0.000 A 
ENDROOT
BRANCH   5   7
ATOM      7  C   UNL     1      47.608   5.148  15.112  0.00  0.00    +0.000 A 
ATOM      8  C   UNL     1      48.576   5.945  15.752  0.00  0.00    +0.000 A 
ATOM      9  C   UNL     1      49.099   5.617  17.011  0.00  0.00    +0.000 A 
ATOM     10  C   UNL     1      48.619   4.506  17.685  0.00  0.00    +0.000 A 
ATOM     11  C   UNL     1      47.704   3.666  17.046  0.00  0.00    +0.000 A 
ATOM     12  C   UNL     1      47.206   3.980  15.774  0.00  0.00    +0.000 A 
BRANCH  10  13
ATOM     13  O   UNL     1      48.980   4.119  18.941  0.00  0.00    +0.000 OA
BRANCH  13  14
ATOM     14  C   UNL     1      48.590   4.916  20.053  0.00  0.00    +0.000 C 
ATOM     15  F   UNL     1      47.400   5.533  19.910  0.00  0.00    +0.000 F 
ATOM     16  F   UNL     1      48.504   4.113  21.139  0.00  0.00    +0.000 F 
ATOM     17  F   UNL     1      49.540   5.846  20.293  0.00  0.00    +0.000 F 
ENDBRANCH  13  14
ENDBRANCH  10  13
ENDBRANCH   5   7
BRANCH   1  18
ATOM     18  C   UNL     1      43.596   5.594  12.097  0.00  0.00    +0.000 C 
BRANCH  18  19
ATOM     19  C   UNL     1      43.345   4.445  11.117  0.00  0.00    +0.000 C 
BRANCH  19  24
ATOM     20  C   UNL     1      46.495   2.513   7.696  0.00  0.00    +0.000 A 
ATOM     21  C   UNL     1      45.673   1.862   8.608  0.00  0.00    +0.000 A 
ATOM     22  C   UNL     1      44.744   2.610   9.327  0.00  0.00    +0.000 A 
ATOM     23  C   UNL     1      44.666   3.992   9.140  0.00  0.00    +0.000 A 
ATOM     24  N   UNL     1      43.701   4.785   9.752  0.00  0.00    +0.000 N 
ATOM     25  N   UNL     1      45.492   4.634   8.295  0.00  0.00    +0.000 NA
ATOM     26  C   UNL     1      46.390   3.889   7.595  0.00  0.00    +0.000 A 
ATOM     27  H   UNL     1      43.967   5.753   9.582  0.00  0.00    +0.000 HD
BRANCH  20  29
ATOM     28  N   UNL     1      48.559   2.495   6.416  0.00  0.00    +0.000 N 
ATOM     29  C   UNL     1      47.458   1.796   6.837  0.00  0.00    +0.000 C 
ATOM     30  O   UNL     1      47.308   0.618   6.553  0.00  0.00    +0.000 OA
ATOM     31  H   UNL     1      49.270   1.958   5.937  0.00  0.00    +0.000 HD
ATOM     32  H   UNL     1      48.843   3.364   6.844  0.00  0.00    +0.000 HD
ENDBRANCH  20  29
ENDBRANCH  19  24
ENDBRANCH  18  19
ENDBRANCH   1  18
TORSDOF 7
ENDMDL
MODEL 2
REMARK VINA RESULT:    -8.578      0.825      1.283
REMARK INTER + INTRA:         -13.361
REMARK INTER:                 -11.872
REMARK INTRA:                  -1.489
REMARK UNBOUND:                -1.273
REMARK  Name = 
REMARK  7 active torsions:
REMARK  status: ('A' for Active; 'I' for Inactive)
REMARK    1  A    between atoms: C_2  and  C_4
REMARK    2  A    between atoms: N_8  and  C_9
REMARK    3  A    between atoms: C_9  and  C_10
REMARK    4  A    between atoms: C_10  and  C_11
REMARK    5  A    between atoms: C_15  and  C_16
REMARK    6  A    between atoms: C_19  and  O_20
REMARK    7  A    between atoms: O_20  and  C_21
REMARK                            x       y       z     vdW  Elec       q    Type
REMARK                         _______ _______ _______ _____ _____    ______ ____
ROOT
ATOM      1  C   UNL     1      44.888   5.952  12.195  0.00  0.00    +0.000 A 
ATOM      2  C   UNL     1      45.575   6.902  11.426  0.00  0.00    +0.000 A 
ATOM      3  C   UNL     1      46.883   7.255  11.728  0.00  0.00    +0.000 A 
ATOM      4  C   UNL     1      47.522   6.676  12.819  0.00  0.00    +0.000 A 
ATOM      5  C   UNL     1      46.863   5.751  13.649  0.00  0.00    +0.000 A 
ATOM      6  C   UNL     1      45.554   5.375  13.293  0.00  0.00    +0.000 A 
ENDROOT
BRANCH   5   7
ATOM      7  C   UNL     1      47.496   5.281  14.900  0.00  0.00    +0.000 A 
ATOM      8  C   UNL     1      48.469   6.071  15.540  0.00  0.00    +0.000 A 
ATOM      9  C   UNL     1      49.036   5.707  16.770  0.00  0.00    +0.000 A 
ATOM     10  C   UNL     1      48.595   4.564  17.417  0.00  0.00    +0.000 A 
ATOM     11  C   UNL     1      47.675   3.731  16.774  0.00  0.00    +0.000 A 
ATOM     12  C   UNL     1      47.135   4.082  15.530  0.00  0.00    +0.000 A 
BRANCH  10  13
ATOM     13  O   UNL     1      48.999   4.139  18.646  0.00  0.00    +0.000 OA
BRANCH  13  14
ATOM     14  C   UNL     1      48.638   4.893  19.797  0.00  0.00    +0.000 C 
ATOM     15  F   UNL     1      49.490   5.894  20.101  0.00  0.00    +0.000 F 
ATOM     16  F   UNL     1      47.423   5.446  19.576  0.00  0.00    +0.000 F 
ATOM     17  F   UNL     1      48.537   4.066  20.860  0.00  0.00    +0.000 F 
ENDBRANCH  13  14
ENDBRANCH  10  13
ENDBRANCH   5   7
BRANCH   1  18
ATOM     18  C   UNL     1      43.452   5.542  11.907  0.00  0.00    +0.000 C 
BRANCH  18  19
ATOM     19  C   UNL     1      43.295   4.654  10.670  0.00  0.00    +0.000 C 
BRANCH  19  24
ATOM     20  C   UNL     1      46.604   2.701   7.414  0.00  0.00    +0.000 A 
ATOM     21  C   UNL     1      46.333   4.032   7.709  0.00  0.00    +0.000 A 
ATOM     22  C   UNL     1      45.505   4.325   8.789  0.00  0.00    +0.000 A 
ATOM     23  C   UNL     1      44.945   3.290   9.541  0.00  0.00    +0.000 A 
ATOM     24  N   UNL     1      44.188   3.509  10.686  0.00  0.00    +0.000 N 
ATOM     25  N   UNL     1      45.164   1.999   9.230  0.00  0.00    +0.000 NA
ATOM     26  C   UNL     1      45.980   1.728   8.177  0.00  0.00    +0.000 A 
ATOM     27  H   UNL     1      43.772   2.615  10.939  0.00  0.00    +0.000 HD
BRANCH  20  29
ATOM     28  N   UNL     1      47.456   2.993   5.159  0.00  0.00    +0.000 N 
ATOM     29  C   UNL     1      47.527   2.294   6.337  0.00  0.00    +0.000 C 
ATOM     30  O   UNL     1      48.352   1.410   6.500  0.00  0.00    +0.000 OA
ATOM     31  H   UNL     1      48.177   2.791   4.478  0.00  0.00    +0.000 HD
ATOM     32  H   UNL     1      46.985   3.883   5.087  0.00  0.00    +0.000 HD
ENDBRANCH  20  29
ENDBRANCH  19  24
ENDBRANCH  18  19
ENDBRANCH   1  18
TORSDOF 7
ENDMDL
MODEL 3
REMARK VINA RESULT:    -8.432      4.552      5.674
REMARK INTER + INTRA:         -13.155
REMARK INTER:                 -11.822
REMARK INTRA:                  -1.333
REMARK UNBOUND:                -1.273
REMARK  Name = 
REMARK  7 active torsions:
REMARK  status: ('A' for Active; 'I' for Inactive)
REMARK    1  A    between atoms: C_2  and  C_4
REMARK    2  A    between atoms: N_8  and  C_9
REMARK    3  A    between atoms: C_9  and  C_10
REMARK    4  A    between atoms: C_10  and  C_11
REMARK    5  A    between atoms: C_15  and  C_16
REMARK    6  A    between atoms: C_19  and  O_20
REMARK    7  A    between atoms: O_20  and  C_21
REMARK                            x       y       z     vdW  Elec       q    Type
REMARK                         _______ _______ _______ _____ _____    ______ ____
ROOT
ATOM      1  C   UNL     1      45.047   5.628  12.777  0.00  0.00    +0.000 A 
ATOM      2  C   UNL     1      45.447   4.553  13.584  0.00  0.00    +0.000 A 
ATOM      3  C   UNL     1      46.712   4.520  14.155  0.00  0.00    +0.000 A 
ATOM      4  C   UNL     1      47.608   5.554  13.912  0.00  0.00    +0.000 A 
ATOM      5  C   UNL     1      47.273   6.634  13.075  0.00  0.00    +0.000 A 
ATOM      6  C   UNL     1      45.968   6.667  12.547  0.00  0.00    +0.000 A 
ENDROOT
BRANCH   5   7
ATOM      7  C   UNL     1      48.296   7.631  12.689  0.00  0.00    +0.000 A 
ATOM      8  C   UNL     1      49.617   7.505  13.157  0.00  0.00    +0.000 A 
ATOM      9  C   UNL     1      50.639   8.376  12.753  0.00  0.00    +0.000 A 
ATOM     10  C   UNL     1      50.369   9.364  11.820  0.00  0.00    +0.000 A 
ATOM     11  C   UNL     1      49.053   9.548  11.387  0.00  0.00    +0.000 A 
ATOM     12  C   UNL     1      48.028   8.695  11.818  0.00  0.00    +0.000 A 
BRANCH  10  13
ATOM     13  O   UNL     1      51.279  10.222  11.283  0.00  0.00    +0.000 OA
BRANCH  13  14
ATOM     14  C   UNL     1      52.108   9.779  10.215  0.00  0.00    +0.000 C 
ATOM     15  F   UNL     1      51.930   8.488   9.867  0.00  0.00    +0.000 F 
ATOM     16  F   UNL     1      51.837  10.535   9.126  0.00  0.00    +0.000 F 
ATOM     17  F   UNL     1      53.404   9.968  10.546  0.00  0.00    +0.000 F 
ENDBRANCH  13  14
ENDBRANCH  10  13
ENDBRANCH   5   7
BRANCH   1  18
ATOM     18  C   UNL     1      43.676   5.702  12.124  0.00  0.00    +0.000 C 
BRANCH  18  19
ATOM     19  C   UNL     1      43.384   4.547  11.161  0.00  0.00    +0.000 C 
BRANCH  19  24
ATOM     20  C   UNL     1      46.439   2.456   7.747  0.00  0.00    +0.000 A 
ATOM     21  C   UNL     1      45.598   1.848   8.672  0.00  0.00    +0.000 A 
ATOM     22  C   UNL     1      44.702   2.640   9.386  0.00  0.00    +0.000 A 
ATOM     23  C   UNL     1      44.675   4.021   9.183  0.00  0.00    +0.000 A 
ATOM     24  N   UNL     1      43.745   4.858   9.790  0.00  0.00    +0.000 N 
ATOM     25  N   UNL     1      45.521   4.621   8.326  0.00  0.00    +0.000 NA
ATOM     26  C   UNL     1      46.385   3.835   7.630  0.00  0.00    +0.000 A 
ATOM     27  H   UNL     1      44.046   5.813   9.607  0.00  0.00    +0.000 HD
BRANCH  20  29
ATOM     28  N   UNL     1      48.497   2.342   6.463  0.00  0.00    +0.000 N 
ATOM     29  C   UNL     1      47.369   1.693   6.892  0.00  0.00    +0.000 C 
ATOM     30  O   UNL     1      47.170   0.520   6.618  0.00  0.00    +0.000 OA
ATOM     31  H   UNL     1      49.184   1.772   5.988  0.00  0.00    +0.000 HD
ATOM     32  H   UNL     1      48.818   3.203   6.883  0.00  0.00    +0.000 HD
ENDBRANCH  20  29
ENDBRANCH  19  24
ENDBRANCH  18  19
ENDBRANCH   1  18
TORSDOF 7
ENDMDL
MODEL 4
REMARK VINA RESULT:    -8.432      1.883      2.335
REMARK INTER + INTRA:         -13.155
REMARK INTER:                 -11.776
REMARK INTRA:                  -1.379
REMARK UNBOUND:                -1.273
REMARK  Name = 
REMARK  7 active torsions:
REMARK  status: ('A' for Active; 'I' for Inactive)
REMARK    1  A    between atoms: C_2  and  C_4
REMARK    2  A    between atoms: N_8  and  C_9
REMARK    3  A    between atoms: C_9  and  C_10
REMARK    4  A    between atoms: C_10  and  C_11
REMARK    5  A    between atoms: C_15  and  C_16
REMARK    6  A    between atoms: C_19  and  O_20
REMARK    7  A    between atoms: O_20  and  C_21
REMARK                            x       y       z     vdW  Elec       q    Type
REMARK                         _______ _______ _______ _____ _____    ______ ____
ROOT
ATOM      1  C   UNL     1      44.708   5.201  12.725  0.00  0.00    +0.000 A 
ATOM      2  C   UNL     1      45.137   6.283  11.943  0.00  0.00    +0.000 A 
ATOM      3  C   UNL     1      46.368   6.883  12.166  0.00  0.00    +0.000 A 
ATOM      4  C   UNL     1      47.187   6.422  13.191  0.00  0.00    +0.000 A 
ATOM      5  C   UNL     1      46.787   5.369  14.033  0.00  0.00    +0.000 A 
ATOM      6  C   UNL     1      45.554   4.747  13.755  0.00  0.00    +0.000 A 
ENDROOT
BRANCH   5   7
ATOM      7  C   UNL     1      47.590   5.010  15.222  0.00  0.00    +0.000 A 
ATOM      8  C   UNL     1      47.551   3.700  15.732  0.00  0.00    +0.000 A 
ATOM      9  C   UNL     1      48.357   3.291  16.804  0.00  0.00    +0.000 A 
ATOM     10  C   UNL     1      49.268   4.178  17.354  0.00  0.00    +0.000 A 
ATOM     11  C   UNL     1      49.283   5.502  16.906  0.00  0.00    +0.000 A 
ATOM     12  C   UNL     1      48.453   5.915  15.856  0.00  0.00    +0.000 A 
BRANCH  10  13
ATOM     13  O   UNL     1      50.163   3.892  18.340  0.00  0.00    +0.000 OA
BRANCH  13  14
ATOM     14  C   UNL     1      51.494   3.534  17.989  0.00  0.00    +0.000 C 
ATOM     15  F   UNL     1      52.133   4.439  17.220  0.00  0.00    +0.000 F 
ATOM     16  F   UNL     1      52.209   3.392  19.129  0.00  0.00    +0.000 F 
ATOM     17  F   UNL     1      51.484   2.344  17.349  0.00  0.00    +0.000 F 
ENDBRANCH  13  14
ENDBRANCH  10  13
ENDBRANCH   5   7
BRANCH   1  18
ATOM     18  C   UNL     1      43.364   4.520  12.524  0.00  0.00    +0.000 C 
BRANCH  18  19
ATOM     19  C   UNL     1      43.232   3.789  11.184  0.00  0.00    +0.000 C 
BRANCH  19  24
ATOM     20  C   UNL     1      46.436   2.866   7.410  0.00  0.00    +0.000 A 
ATOM     21  C   UNL     1      45.982   4.082   7.908  0.00  0.00    +0.000 A 
ATOM     22  C   UNL     1      45.242   4.090   9.087  0.00  0.00    +0.000 A 
ATOM     23  C   UNL     1      44.949   2.888   9.736  0.00  0.00    +0.000 A 
ATOM     24  N   UNL     1      44.299   2.830  10.963  0.00  0.00    +0.000 N 
ATOM     25  N   UNL     1      45.343   1.705   9.233  0.00  0.00    +0.000 NA
ATOM     26  C   UNL     1      46.071   1.713   8.084  0.00  0.00    +0.000 A 
ATOM     27  H   UNL     1      44.068   1.852  11.126  0.00  0.00    +0.000 HD
BRANCH  20  29
ATOM     28  N   UNL     1      48.624   2.536   6.410  0.00  0.00    +0.000 N 
ATOM     29  C   UNL     1      47.287   2.764   6.209  0.00  0.00    +0.000 C 
ATOM     30  O   UNL     1      46.819   2.830   5.084  0.00  0.00    +0.000 OA
ATOM     31  H   UNL     1      49.172   2.342   5.582  0.00  0.00    +0.000 HD
ATOM     32  H   UNL     1      48.990   2.216   7.295  0.00  0.00    +0.000 HD
ENDBRANCH  20  29
ENDBRANCH  19  24
ENDBRANCH  18  19
ENDBRANCH   1  18
TORSDOF 7
ENDMDL
MODEL 5
REMARK VINA RESULT:    -8.037      5.501      6.396
REMARK INTER + INTRA:         -12.599
REMARK INTER:                 -11.370
REMARK INTRA:                  -1.229
REMARK UNBOUND:                -1.273
REMARK  Name = 
REMARK  7 active torsions:
REMARK  status: ('A' for Active; 'I' for Inactive)
REMARK    1  A    between atoms: C_2  and  C_4
REMARK    2  A    between atoms: N_8  and  C_9
REMARK    3  A    between atoms: C_9  and  C_10
REMARK    4  A    between atoms: C_10  and  C_11
REMARK    5  A    between atoms: C_15  and  C_16
REMARK    6  A    between atoms: C_19  and  O_20
REMARK    7  A    between atoms: O_20  and  C_21
REMARK                            x       y       z     vdW  Elec       q    Type
REMARK                         _______ _______ _______ _____ _____    ______ ____
ROOT
ATOM      1  C   UNL     1      45.784   6.518  12.183  0.00  0.00    +0.000 A 
ATOM      2  C   UNL     1      44.970   7.530  12.714  0.00  0.00    +0.000 A 
ATOM      3  C   UNL     1      45.424   8.837  12.806  0.00  0.00    +0.000 A 
ATOM      4  C   UNL     1      46.710   9.155  12.385  0.00  0.00    +0.000 A 
ATOM      5  C   UNL     1      47.583   8.171  11.886  0.00  0.00    +0.000 A 
ATOM      6  C   UNL     1      47.082   6.861  11.759  0.00  0.00    +0.000 A 
ENDROOT
BRANCH   5   7
ATOM      7  C   UNL     1      49.000   8.494  11.609  0.00  0.00    +0.000 A 
ATOM      8  C   UNL     1      49.936   7.460  11.421  0.00  0.00    +0.000 A 
ATOM      9  C   UNL     1      51.270   7.715  11.074  0.00  0.00    +0.000 A 
ATOM     10  C   UNL     1      51.684   9.018  10.851  0.00  0.00    +0.000 A 
ATOM     11  C   UNL     1      50.790  10.066  11.091  0.00  0.00    +0.000 A 
ATOM     12  C   UNL     1      49.465   9.808  11.468  0.00  0.00    +0.000 A 
BRANCH  10  13
ATOM     13  O   UNL     1      52.923   9.401  10.434  0.00  0.00    +0.000 OA
BRANCH  13  14
ATOM     14  C   UNL     1      53.274   9.247   9.064  0.00  0.00    +0.000 C 
ATOM     15  F   UNL     1      53.213   7.979   8.609  0.00  0.00    +0.000 F 
ATOM     16  F   UNL     1      52.417   9.987   8.323  0.00  0.00    +0.000 F 
ATOM     17  F   UNL     1      54.521   9.725   8.865  0.00  0.00    +0.000 F 
ENDBRANCH  13  14
ENDBRANCH  10  13
ENDBRANCH   5   7
BRANCH   1  18
ATOM     18  C   UNL     1      45.332   5.070  12.073  0.00  0.00    +0.000 C 
BRANCH  18  19
ATOM     19  C   UNL     1      44.040   4.882  11.273  0.00  0.00    +0.000 C 
BRANCH  19  24
ATOM     20  C   UNL     1      46.611   2.560   7.619  0.00  0.00    +0.000 A 
ATOM     21  C   UNL     1      45.892   2.016   8.677  0.00  0.00    +0.000 A 
ATOM     22  C   UNL     1      45.102   2.860   9.454  0.00  0.00    +0.000 A 
ATOM     23  C   UNL     1      45.060   4.228   9.179  0.00  0.00    +0.000 A 
ATOM     24  N   UNL     1      44.223   5.111   9.851  0.00  0.00    +0.000 N 
ATOM     25  N   UNL     1      45.793   4.767   8.187  0.00  0.00    +0.000 NA
ATOM     26  C   UNL     1      46.553   3.930   7.432  0.00  0.00    +0.000 A 
ATOM     27  H   UNL     1      44.506   6.049   9.578  0.00  0.00    +0.000 HD
BRANCH  20  29
ATOM     28  N   UNL     1      48.502   2.335   6.111  0.00  0.00    +0.000 N 
ATOM     29  C   UNL     1      47.416   1.736   6.696  0.00  0.00    +0.000 C 
ATOM     30  O   UNL     1      47.159   0.560   6.498  0.00  0.00    +0.000 OA
ATOM     31  H   UNL     1      49.115   1.727   5.584  0.00  0.00    +0.000 HD
ATOM     32  H   UNL     1      48.889   3.202   6.453  0.00  0.00    +0.000 HD
ENDBRANCH  20  29
ENDBRANCH  19  24
ENDBRANCH  18  19
ENDBRANCH   1  18
TORSDOF 7
ENDMDL
MODEL 6
REMARK VINA RESULT:    -7.864      3.422      4.357
REMARK INTER + INTRA:         -12.355
REMARK INTER:                 -11.000
REMARK INTRA:                  -1.355
REMARK UNBOUND:                -1.273
REMARK  Name = 
REMARK  7 active torsions:
REMARK  status: ('A' for Active; 'I' for Inactive)
REMARK    1  A    between atoms: C_2  and  C_4
REMARK    2  A    between atoms: N_8  and  C_9
REMARK    3  A    between atoms: C_9  and  C_10
REMARK    4  A    between atoms: C_10  and  C_11
REMARK    5  A    between atoms: C_15  and  C_16
REMARK    6  A    between atoms: C_19  and  O_20
REMARK    7  A    between atoms: O_20  and  C_21
REMARK                            x       y       z     vdW  Elec       q    Type
REMARK                         _______ _______ _______ _____ _____    ______ ____
ROOT
ATOM      1  C   UNL     1      45.147   5.348  12.622  0.00  0.00    +0.000 A 
ATOM      2  C   UNL     1      45.410   4.027  13.015  0.00  0.00    +0.000 A 
ATOM      3  C   UNL     1      46.603   3.692  13.640  0.00  0.00    +0.000 A 
ATOM      4  C   UNL     1      47.565   4.669  13.865  0.00  0.00    +0.000 A 
ATOM      5  C   UNL     1      47.370   5.999  13.451  0.00  0.00    +0.000 A 
ATOM      6  C   UNL     1      46.133   6.323  12.863  0.00  0.00    +0.000 A 
ENDROOT
BRANCH   5   7
ATOM      7  C   UNL     1      48.472   6.983  13.542  0.00  0.00    +0.000 A 
ATOM      8  C   UNL     1      49.322   6.991  14.663  0.00  0.00    +0.000 A 
ATOM      9  C   UNL     1      50.428   7.847  14.755  0.00  0.00    +0.000 A 
ATOM     10  C   UNL     1      50.741   8.680  13.694  0.00  0.00    +0.000 A 
ATOM     11  C   UNL     1      49.879   8.735  12.596  0.00  0.00    +0.000 A 
ATOM     12  C   UNL     1      48.755   7.900  12.521  0.00  0.00    +0.000 A 
BRANCH  10  13
ATOM     13  O   UNL     1      51.826   9.500  13.618  0.00  0.00    +0.000 OA
BRANCH  13  14
ATOM     14  C   UNL     1      51.945  10.584  14.531  0.00  0.00    +0.000 C 
ATOM     15  F   UNL     1      52.878  11.498  14.197  0.00  0.00    +0.000 F 
ATOM     16  F   UNL     1      50.753  11.222  14.588  0.00  0.00    +0.000 F 
ATOM     17  F   UNL     1      52.223  10.104  15.762  0.00  0.00    +0.000 F 
ENDBRANCH  13  14
ENDBRANCH  10  13
ENDBRANCH   5   7
BRANCH   1  18
ATOM     18  C   UNL     1      43.859   5.758  11.926  0.00  0.00    +0.000 C 
BRANCH  18  19
ATOM     19  C   UNL     1      43.293   4.690  10.987  0.00  0.00    +0.000 C 
BRANCH  19  24
ATOM     20  C   UNL     1      46.381   2.295   7.810  0.00  0.00    +0.000 A 
ATOM     21  C   UNL     1      45.507   1.773   8.757  0.00  0.00    +0.000 A 
ATOM     22  C   UNL     1      44.611   2.632   9.389  0.00  0.00    +0.000 A 
ATOM     23  C   UNL     1      44.617   3.995   9.084  0.00  0.00    +0.000 A 
ATOM     24  N   UNL     1      43.691   4.891   9.605  0.00  0.00    +0.000 N 
ATOM     25  N   UNL     1      45.494   4.514   8.206  0.00  0.00    +0.000 NA
ATOM     26  C   UNL     1      46.357   3.662   7.591  0.00  0.00    +0.000 A 
ATOM     27  H   UNL     1      44.016   5.824   9.360  0.00  0.00    +0.000 HD
BRANCH  20  29
ATOM     28  N   UNL     1      48.402   2.076   6.483  0.00  0.00    +0.000 N 
ATOM     29  C   UNL     1      47.313   1.453   7.036  0.00  0.00    +0.000 C 
ATOM     30  O   UNL     1      47.153   0.248   6.933  0.00  0.00    +0.000 OA
ATOM     31  H   UNL     1      49.097   1.470   6.066  0.00  0.00    +0.000 HD
ATOM     32  H   UNL     1      48.701   2.997   6.769  0.00  0.00    +0.000 HD
ENDBRANCH  20  29
ENDBRANCH  19  24
ENDBRANCH  18  19
ENDBRANCH   1  18
TORSDOF 7
ENDMDL
MODEL 7
REMARK VINA RESULT:    -7.692      2.386      2.903
REMARK INTER + INTRA:         -12.113
REMARK INTER:                 -10.711
REMARK INTRA:                  -1.402
REMARK UNBOUND:                -1.273
REMARK  Name = 
REMARK  7 active torsions:
REMARK  status: ('A' for Active; 'I' for Inactive)
REMARK    1  A    between atoms: C_2  and  C_4
REMARK    2  A    between atoms: N_8  and  C_9
REMARK    3  A    between atoms: C_9  and  C_10
REMARK    4  A    between atoms: C_10  and  C_11
REMARK    5  A    between atoms: C_15  and  C_16
REMARK    6  A    between atoms: C_19  and  O_20
REMARK    7  A    between atoms: O_20  and  C_21
REMARK                            x       y       z     vdW  Elec       q    Type
REMARK                         _______ _______ _______ _____ _____    ______ ____
ROOT
ATOM      1  C   UNL     1      44.483   5.523  12.364  0.00  0.00    +0.000 A 
ATOM      2  C   UNL     1      44.212   6.625  11.539  0.00  0.00    +0.000 A 
ATOM      3  C   UNL     1      45.102   7.685  11.448  0.00  0.00    +0.000 A 
ATOM      4  C   UNL     1      46.273   7.672  12.196  0.00  0.00    +0.000 A 
ATOM      5  C   UNL     1      46.573   6.613  13.072  0.00  0.00    +0.000 A 
ATOM      6  C   UNL     1      45.677   5.527  13.110  0.00  0.00    +0.000 A 
ENDROOT
BRANCH   5   7
ATOM      7  C   UNL     1      47.733   6.699  13.986  0.00  0.00    +0.000 A 
ATOM      8  C   UNL     1      48.739   7.657  13.763  0.00  0.00    +0.000 A 
ATOM      9  C   UNL     1      49.813   7.832  14.648  0.00  0.00    +0.000 A 
ATOM     10  C   UNL     1      49.871   7.085  15.813  0.00  0.00    +0.000 A 
ATOM     11  C   UNL     1      48.918   6.085  16.027  0.00  0.00    +0.000 A 
ATOM     12  C   UNL     1      47.863   5.891  15.124  0.00  0.00    +0.000 A 
BRANCH  10  13
ATOM     13  O   UNL     1      50.809   7.208  16.792  0.00  0.00    +0.000 OA
BRANCH  13  14
ATOM     14  C   UNL     1      51.941   6.347  16.784  0.00  0.00    +0.000 C 
ATOM     15  F   UNL     1      51.647   5.035  16.891  0.00  0.00    +0.000 F 
ATOM     16  F   UNL     1      52.598   6.523  15.615  0.00  0.00    +0.000 F 
ATOM     17  F   UNL     1      52.774   6.693  17.790  0.00  0.00    +0.000 F 
ENDBRANCH  13  14
ENDBRANCH  10  13
ENDBRANCH   5   7
BRANCH   1  18
ATOM     18  C   UNL     1      43.533   4.344  12.502  0.00  0.00    +0.000 C 
BRANCH  18  19
ATOM     19  C   UNL     1      43.324   3.559  11.205  0.00  0.00    +0.000 C 
BRANCH  19  24
ATOM     20  C   UNL     1      46.479   2.840   7.345  0.00  0.00    +0.000 A 
ATOM     21  C   UNL     1      46.008   4.028   7.894  0.00  0.00    +0.000 A 
ATOM     22  C   UNL     1      45.289   3.977   9.085  0.00  0.00    +0.000 A 
ATOM     23  C   UNL     1      45.034   2.747   9.696  0.00  0.00    +0.000 A 
ATOM     24  N   UNL     1      44.407   2.631  10.931  0.00  0.00    +0.000 N 
ATOM     25  N   UNL     1      45.444   1.592   9.144  0.00  0.00    +0.000 NA
ATOM     26  C   UNL     1      46.151   1.656   7.984  0.00  0.00    +0.000 A 
ATOM     27  H   UNL     1      44.200   1.643  11.063  0.00  0.00    +0.000 HD
BRANCH  20  29
ATOM     28  N   UNL     1      48.613   2.397   6.274  0.00  0.00    +0.000 N 
ATOM     29  C   UNL     1      47.311   2.800   6.127  0.00  0.00    +0.000 C 
ATOM     30  O   UNL     1      46.850   3.064   5.028  0.00  0.00    +0.000 OA
ATOM     31  H   UNL     1      49.133   2.251   5.419  0.00  0.00    +0.000 HD
ATOM     32  H   UNL     1      48.941   1.924   7.104  0.00  0.00    +0.000 HD
ENDBRANCH  20  29
ENDBRANCH  19  24
ENDBRANCH  18  19
ENDBRANCH   1  18
TORSDOF 7
ENDMDL
MODEL 8
REMARK VINA RESULT:    -7.628      5.710      9.034
REMARK INTER + INTRA:         -12.022
REMARK INTER:                 -10.841
REMARK INTRA:                  -1.181
REMARK UNBOUND:                -1.273
REMARK  Name = 
REMARK  7 active torsions:
REMARK  status: ('A' for Active; 'I' for Inactive)
REMARK    1  A    between atoms: C_2  and  C_4
REMARK    2  A    between atoms: N_8  and  C_9
REMARK    3  A    between atoms: C_9  and  C_10
REMARK    4  A    between atoms: C_10  and  C_11
REMARK    5  A    between atoms: C_15  and  C_16
REMARK    6  A    between atoms: C_19  and  O_20
REMARK    7  A    between atoms: O_20  and  C_21
REMARK                            x       y       z     vdW  Elec       q    Type
REMARK                         _______ _______ _______ _____ _____    ______ ____
ROOT
ATOM      1  C   UNL     1      48.622   7.413  14.686  0.00  0.00    +0.000 A 
ATOM      2  C   UNL     1      48.236   8.746  14.479  0.00  0.00    +0.000 A 
ATOM      3  C   UNL     1      47.159   9.059  13.662  0.00  0.00    +0.000 A 
ATOM      4  C   UNL     1      46.458   8.044  13.021  0.00  0.00    +0.000 A 
ATOM      5  C   UNL     1      46.830   6.695  13.160  0.00  0.00    +0.000 A 
ATOM      6  C   UNL     1      47.896   6.400  14.030  0.00  0.00    +0.000 A 
ENDROOT
BRANCH   5   7
ATOM      7  C   UNL     1      46.185   5.649  12.335  0.00  0.00    +0.000 A 
ATOM      8  C   UNL     1      45.920   4.380  12.883  0.00  0.00    +0.000 A 
ATOM      9  C   UNL     1      45.237   3.386  12.169  0.00  0.00    +0.000 A 
ATOM     10  C   UNL     1      44.750   3.664  10.902  0.00  0.00    +0.000 A 
ATOM     11  C   UNL     1      45.052   4.894  10.312  0.00  0.00    +0.000 A 
ATOM     12  C   UNL     1      45.763   5.874  11.018  0.00  0.00    +0.000 A 
BRANCH  10  13
ATOM     13  O   UNL     1      44.005   2.822  10.133  0.00  0.00    +0.000 OA
BRANCH  13  14
ATOM     14  C   UNL     1      44.611   2.176   9.020  0.00  0.00    +0.000 C 
ATOM     15  F   UNL     1      45.944   2.006   9.129  0.00  0.00    +0.000 F 
ATOM     16  F   UNL     1      44.054   0.950   8.888  0.00  0.00    +0.000 F 
ATOM     17  F   UNL     1      44.350   2.879   7.897  0.00  0.00    +0.000 F 
ENDBRANCH  13  14
ENDBRANCH  10  13
ENDBRANCH   5   7
BRANCH   1  18
ATOM     18  C   UNL     1      49.801   7.023  15.563  0.00  0.00    +0.000 C 
BRANCH  18  19
ATOM     19  C   UNL     1      49.459   6.915  17.052  0.00  0.00    +0.000 C 
BRANCH  19  24
ATOM     20  C   UNL     1      51.537   2.361  17.603  0.00  0.00    +0.000 A 
ATOM     21  C   UNL     1      52.036   3.610  17.955  0.00  0.00    +0.000 A 
ATOM     22  C   UNL     1      51.194   4.716  17.877  0.00  0.00    +0.000 A 
ATOM     23  C   UNL     1      49.879   4.562  17.430  0.00  0.00    +0.000 A 
ATOM     24  N   UNL     1      48.958   5.603  17.417  0.00  0.00    +0.000 N 
ATOM     25  N   UNL     1      49.406   3.365  17.041  0.00  0.00    +0.000 NA
ATOM     26  C   UNL     1      50.238   2.293  17.129  0.00  0.00    +0.000 A 
ATOM     27  H   UNL     1      48.146   5.269  16.900  0.00  0.00    +0.000 HD
BRANCH  20  29
ATOM     28  N   UNL     1      51.678   0.006  18.178  0.00  0.00    +0.000 N 
ATOM     29  C   UNL     1      52.331   1.123  17.723  0.00  0.00    +0.000 C 
ATOM     30  O   UNL     1      53.503   1.078  17.386  0.00  0.00    +0.000 OA
ATOM     31  H   UNL     1      52.198  -0.861  18.134  0.00  0.00    +0.000 HD
ATOM     32  H   UNL     1      50.671  -0.056  18.207  0.00  0.00    +0.000 HD
ENDBRANCH  20  29
ENDBRANCH  19  24
ENDBRANCH  18  19
ENDBRANCH   1  18
TORSDOF 7
ENDMDL
MODEL 9
REMARK VINA RESULT:    -7.489      2.476      3.100
REMARK INTER + INTRA:         -11.827
REMARK INTER:                 -10.958
REMARK INTRA:                  -0.869
REMARK UNBOUND:                -1.273
REMARK  Name = 
REMARK  7 active torsions:
REMARK  status: ('A' for Active; 'I' for Inactive)
REMARK    1  A    between atoms: C_2  and  C_4
REMARK    2  A    between atoms: N_8  and  C_9
REMARK    3  A    between atoms: C_9  and  C_10
REMARK    4  A    between atoms: C_10  and  C_11
REMARK    5  A    between atoms: C_15  and  C_16
REMARK    6  A    between atoms: C_19  and  O_20
REMARK    7  A    between atoms: O_20  and  C_21
REMARK                            x       y       z     vdW  Elec       q    Type
REMARK                         _______ _______ _______ _____ _____    ______ ____
ROOT
ATOM      1  C   UNL     1      45.151   6.094  12.191  0.00  0.00    +0.000 A 
ATOM      2  C   UNL     1      44.508   7.208  11.629  0.00  0.00    +0.000 A 
ATOM      3  C   UNL     1      45.027   8.485  11.784  0.00  0.00    +0.000 A 
ATOM      4  C   UNL     1      46.190   8.675  12.521  0.00  0.00    +0.000 A 
ATOM      5  C   UNL     1      46.850   7.599  13.142  0.00  0.00    +0.000 A 
ATOM      6  C   UNL     1      46.329   6.308  12.930  0.00  0.00    +0.000 A 
ENDROOT
BRANCH   5   7
ATOM      7  C   UNL     1      47.982   7.842  14.063  0.00  0.00    +0.000 A 
ATOM      8  C   UNL     1      48.582   6.767  14.743  0.00  0.00    +0.000 A 
ATOM      9  C   UNL     1      49.709   6.936  15.561  0.00  0.00    +0.000 A 
ATOM     10  C   UNL     1      50.296   8.186  15.669  0.00  0.00    +0.000 A 
ATOM     11  C   UNL     1      49.683   9.280  15.053  0.00  0.00    +0.000 A 
ATOM     12  C   UNL     1      48.538   9.113  14.262  0.00  0.00    +0.000 A 
BRANCH  10  13
ATOM     13  O   UNL     1      51.433   8.474  16.361  0.00  0.00    +0.000 OA
BRANCH  13  14
ATOM     14  C   UNL     1      51.387   8.537  17.781  0.00  0.00    +0.000 C 
ATOM     15  F   UNL     1      51.750   7.398  18.404  0.00  0.00    +0.000 F 
ATOM     16  F   UNL     1      52.233   9.511  18.189  0.00  0.00    +0.000 F 
ATOM     17  F   UNL     1      50.139   8.873  18.174  0.00  0.00    +0.000 F 
ENDBRANCH  13  14
ENDBRANCH  10  13
ENDBRANCH   5   7
BRANCH   1  18
ATOM     18  C   UNL     1      44.613   4.678  12.056  0.00  0.00    +0.000 C 
BRANCH  18  19
ATOM     19  C   UNL     1      43.416   4.556  11.108  0.00  0.00    +0.000 C 
BRANCH  19  24
ATOM     20  C   UNL     1      46.417   2.343   7.723  0.00  0.00    +0.000 A 
ATOM     21  C   UNL     1      45.578   1.768   8.671  0.00  0.00    +0.000 A 
ATOM     22  C   UNL     1      44.698   2.588   9.372  0.00  0.00    +0.000 A 
ATOM     23  C   UNL     1      44.684   3.964   9.133  0.00  0.00    +0.000 A 
ATOM     24  N   UNL     1      43.768   4.826   9.726  0.00  0.00    +0.000 N 
ATOM     25  N   UNL     1      45.527   4.532   8.253  0.00  0.00    +0.000 NA
ATOM     26  C   UNL     1      46.376   3.718   7.570  0.00  0.00    +0.000 A 
ATOM     27  H   UNL     1      44.078   5.773   9.515  0.00  0.00    +0.000 HD
BRANCH  20  29
ATOM     28  N   UNL     1      48.498   2.148   6.486  0.00  0.00    +0.000 N 
ATOM     29  C   UNL     1      47.330   1.547   6.880  0.00  0.00    +0.000 C 
ATOM     30  O   UNL     1      47.084   0.388   6.586  0.00  0.00    +0.000 OA
ATOM     31  H   UNL     1      49.169   1.552   6.020  0.00  0.00    +0.000 HD
ATOM     32  H   UNL     1      48.848   2.987   6.925  0.00  0.00    +0.000 HD
ENDBRANCH  20  29
ENDBRANCH  19  24
ENDBRANCH  18  19
ENDBRANCH   1  18
TORSDOF 7
ENDMDL
