MODEL 1
REMARK VINA RESULT:    -9.246      0.000      0.000
REMARK INTER + INTRA:         -12.190
REMARK INTER:                 -11.408
REMARK INTRA:                  -0.782
REMARK UNBOUND:                -0.782
REMARK  Name = 
REMARK  4 active torsions:
REMARK  status: ('A' for Active; 'I' for Inactive)
REMARK    1  A    between atoms: C_2  and  C_4
REMARK    2  A    between atoms: N_8  and  C_9
REMARK    3  A    between atoms: C_9  and  C_10
REMARK    4  A    between atoms: C_14  and  C_15
REMARK                            x       y       z     vdW  Elec       q    Type
REMARK                         _______ _______ _______ _____ _____    ______ ____
ROOT
ATOM      1  C   UNL     1      43.509   4.790  11.088  0.00  0.00    +0.000 C 
ENDROOT
BRANCH   1   6
ATOM      2  C   UNL     1      46.374   2.278   7.686  0.00  0.00    +0.000 A 
ATOM      3  C   UNL     1      45.620   1.761   8.735  0.00  0.00    +0.000 A 
ATOM      4  C   UNL     1      44.761   2.608   9.436  0.00  0.00    +0.000 A 
ATOM      5  C   UNL     1      44.686   3.955   9.095  0.00  0.00    +0.000 A 
ATOM      6  N   UNL     1      43.781   4.829   9.664  0.00  0.00    +0.000 N 
ATOM      7  N   UNL     1      45.433   4.472   8.101  0.00  0.00    +0.000 NA
ATOM      8  C   UNL     1      46.261   3.633   7.421  0.00  0.00    +0.000 A 
ATOM      9  H   UNL     1      43.994   5.760   9.307  0.00  0.00    +0.000 HD
BRANCH   2  11
ATOM     10  N   UNL     1      48.340   2.073   6.275  0.00  0.00    +0.000 N 
ATOM     11  C   UNL     1      47.272   1.449   6.859  0.00  0.00    +0.000 C 
ATOM     12  O   UNL     1      47.091   0.244   6.729  0.00  0.00    +0.000 OA
ATOM     13  H   UNL     1      49.007   1.473   5.804  0.00  0.00    +0.000 HD
ATOM     14  H   UNL     1      48.662   2.985   6.563  0.00  0.00    +0.000 HD
ENDBRANCH   2  11
ENDBRANCH   1   6
BRANCH   1  15
ATOM     15  C   UNL     1      44.742   5.161  11.884  0.00  0.00    +0.000 A 
ATOM     16  C   UNL     1      45.092   4.421  13.013  0.00  0.00    +0.000 A 
ATOM     17  C   UNL     1      46.181   4.833  13.763  0.00  0.00    +0.000 A 
ATOM     18  N   UNL     1      46.924   5.923  13.478  0.00  0.00    +0.000 NA
ATOM     19  C   UNL     1      46.575   6.667  12.398  0.00  0.00    +0.000 A 
ATOM     20  C   UNL     1      45.497   6.306  11.589  0.00  0.00    +0.000 A 
BRANCH  19  21
ATOM     21  C   UNL     1      47.389   7.878  12.161  0.00  0.00    +0.000 A 
ATOM     22  C   UNL     1      46.830   9.165  12.307  0.00  0.00    +0.000 A 
ATOM     23  C   UNL     1      47.581  10.323  12.074  0.00  0.00    +0.000 A 
ATOM     24  C   UNL     1      48.911  10.220  11.683  0.00  0.00    +0.000 A 
ATOM     25  C   UNL     1      49.475   8.961  11.528  0.00  0.00    +0.000 A 
ATOM     26  F   UNL     1      50.753   8.855  11.141  0.00  0.00    +0.000 F 
ATOM     27  C   UNL     1      48.735   7.804  11.760  0.00  0.00    +0.000 A 
ENDBRANCH  19  21
ENDBRANCH   1  15
TORSDOF 4
ENDMDL
MODEL 2
REMARK VINA RESULT:    -8.826      2.172      3.709
REMARK INTER + INTRA:         -11.672
REMARK INTER:                 -10.864
REMARK INTRA:                  -0.808
REMARK UNBOUND:                -0.782
REMARK  Name = 
REMARK  4 active torsions:
REMARK  status: ('A' for Active; 'I' for Inactive)
REMARK    1  A    between atoms: C_2  and  C_4
REMARK    2  A    between atoms: N_8  and  C_9
REMARK    3  A    between atoms: C_9  and  C_10
REMARK    4  A    between atoms: C_14  and  C_15
REMARK                            x       y       z     vdW  Elec       q    Type
REMARK                         _______ _______ _______ _____ _____    ______ ____
ROOT
ATOM      1  C   UNL     1      43.726   4.905  11.147  0.00  0.00    +0.000 C 
ENDROOT
BRANCH   1   6
ATOM      2  C   UNL     1      46.422   2.294   7.682  0.00  0.00    +0.000 A 
ATOM      3  C   UNL     1      45.683   1.804   8.754  0.00  0.00    +0.000 A 
ATOM      4  C   UNL     1      44.869   2.680   9.473  0.00  0.00    +0.000 A 
ATOM      5  C   UNL     1      44.823   4.027   9.127  0.00  0.00    +0.000 A 
ATOM      6  N   UNL     1      43.961   4.930   9.716  0.00  0.00    +0.000 N 
ATOM      7  N   UNL     1      45.557   4.516   8.110  0.00  0.00    +0.000 NA
ATOM      8  C   UNL     1      46.341   3.650   7.412  0.00  0.00    +0.000 A 
ATOM      9  H   UNL     1      44.190   5.851   9.347  0.00  0.00    +0.000 HD
BRANCH   2  11
ATOM     10  N   UNL     1      48.327   2.029   6.198  0.00  0.00    +0.000 N 
ATOM     11  C   UNL     1      47.272   1.434   6.835  0.00  0.00    +0.000 C 
ATOM     12  O   UNL     1      47.065   0.231   6.734  0.00  0.00    +0.000 OA
ATOM     13  H   UNL     1      48.964   1.409   5.712  0.00  0.00    +0.000 HD
ATOM     14  H   UNL     1      48.675   2.940   6.457  0.00  0.00    +0.000 HD
ENDBRANCH   2  11
ENDBRANCH   1   6
BRANCH   1  15
ATOM     15  C   UNL     1      44.860   5.578  11.890  0.00  0.00    +0.000 A 
ATOM     16  C   UNL     1      45.405   6.766  11.403  0.00  0.00    +0.000 A 
ATOM     17  C   UNL     1      46.492   7.316  12.062  0.00  0.00    +0.000 A 
ATOM     18  N   UNL     1      47.074   6.763  13.148  0.00  0.00    +0.000 NA
ATOM     19  C   UNL     1      46.570   5.592  13.613  0.00  0.00    +0.000 A 
ATOM     20  C   UNL     1      45.468   4.987  13.007  0.00  0.00    +0.000 A 
BRANCH  19  21
ATOM     21  C   UNL     1      47.275   5.004  14.771  0.00  0.00    +0.000 A 
ATOM     22  C   UNL     1      47.187   3.624  15.047  0.00  0.00    +0.000 A 
ATOM     23  C   UNL     1      47.836   3.049  16.146  0.00  0.00    +0.000 A 
ATOM     24  C   UNL     1      48.588   3.848  17.001  0.00  0.00    +0.000 A 
ATOM     25  C   UNL     1      48.681   5.209  16.749  0.00  0.00    +0.000 A 
ATOM     26  F   UNL     1      49.394   5.985  17.575  0.00  0.00    +0.000 F 
ATOM     27  C   UNL     1      48.039   5.787  15.656  0.00  0.00    +0.000 A 
ENDBRANCH  19  21
ENDBRANCH   1  15
TORSDOF 4
ENDMDL
MODEL 3
REMARK VINA RESULT:    -8.470      3.585      7.027
REMARK INTER + INTRA:         -11.233
REMARK INTER:                 -10.379
REMARK INTRA:                  -0.853
REMARK UNBOUND:                -0.782
REMARK  Name = 
REMARK  4 active torsions:
REMARK  status: ('A' for Active; 'I' for Inactive)
REMARK    1  A    between atoms: C_2  and  C_4
REMARK    2  A    between atoms: N_8  and  C_9
REMARK    3  A    between atoms: C_9  and  C_10
REMARK    4  A    between atoms: C_14  and  C_15
REMARK                            x       y       z     vdW  Elec       q    Type
REMARK                         _______ _______ _______ _____ _____    ______ ____
ROOT
ATOM      1  C   UNL     1      43.735   6.414  11.601  0.00  0.00    +0.000 C 
ENDROOT
BRANCH   1   6
ATOM      2  C   UNL     1      48.583   7.395  12.876  0.00  0.00    +0.000 A 
ATOM      3  C   UNL     1      47.816   7.976  11.871  0.00  0.00    +0.000 A 
ATOM      4  C   UNL     1      46.451   7.693  11.809  0.00  0.00    +0.000 A 
ATOM      5  C   UNL     1      45.881   6.822  12.732  0.00  0.00    +0.000 A 
ATOM      6  N   UNL     1      44.524   6.581  12.806  0.00  0.00    +0.000 N 
ATOM      7  N   UNL     1      46.619   6.231  13.691  0.00  0.00    +0.000 NA
ATOM      8  C   UNL     1      47.948   6.521  13.745  0.00  0.00    +0.000 A 
ATOM      9  H   UNL     1      44.383   5.848  13.499  0.00  0.00    +0.000 HD
BRANCH   2  11
ATOM     10  N   UNL     1      50.552   7.478  14.296  0.00  0.00    +0.000 N 
ATOM     11  C   UNL     1      50.022   7.673  13.050  0.00  0.00    +0.000 C 
ATOM     12  O   UNL     1      50.722   8.027  12.109  0.00  0.00    +0.000 OA
ATOM     13  H   UNL     1      51.559   7.565  14.373  0.00  0.00    +0.000 HD
ATOM     14  H   UNL     1      50.077   6.952  15.013  0.00  0.00    +0.000 HD
ENDBRANCH   2  11
ENDBRANCH   1   6
BRANCH   1  15
ATOM     15  C   UNL     1      43.781   4.979  11.121  0.00  0.00    +0.000 A 
ATOM     16  C   UNL     1      43.099   3.986  11.825  0.00  0.00    +0.000 A 
ATOM     17  C   UNL     1      43.224   2.672  11.405  0.00  0.00    +0.000 A 
ATOM     18  N   UNL     1      43.982   2.284  10.358  0.00  0.00    +0.000 NA
ATOM     19  C   UNL     1      44.672   3.237   9.683  0.00  0.00    +0.000 A 
ATOM     20  C   UNL     1      44.585   4.583  10.042  0.00  0.00    +0.000 A 
BRANCH  19  21
ATOM     21  C   UNL     1      45.527   2.753   8.579  0.00  0.00    +0.000 A 
ATOM     22  C   UNL     1      45.989   3.636   7.581  0.00  0.00    +0.000 A 
ATOM     23  C   UNL     1      46.788   3.194   6.520  0.00  0.00    +0.000 A 
ATOM     24  C   UNL     1      47.139   1.851   6.430  0.00  0.00    +0.000 A 
ATOM     25  C   UNL     1      46.688   0.967   7.400  0.00  0.00    +0.000 A 
ATOM     26  F   UNL     1      47.014  -0.329   7.312  0.00  0.00    +0.000 F 
ATOM     27  C   UNL     1      45.894   1.400   8.459  0.00  0.00    +0.000 A 
ENDBRANCH  19  21
ENDBRANCH   1  15
TORSDOF 4
ENDMDL
MODEL 4
REMARK VINA RESULT:    -8.409      3.724      7.005
REMARK INTER + INTRA:         -11.158
REMARK INTER:                 -10.768
REMARK INTRA:                  -0.390
REMARK UNBOUND:                -0.782
REMARK  Name = 
REMARK  4 active torsions:
REMARK  status: ('A' for Active; 'I' for Inactive)
REMARK    1  A    between atoms: C_2  and  C_4
REMARK    2  A    between atoms: N_8  and  C_9
REMARK    3  A    between atoms: C_9  and  C_10
REMARK    4  A    between atoms: C_14  and  C_15
REMARK                            x       y       z     vdW  Elec       q    Type
REMARK                         _______ _______ _______ _____ _____    ______ ____
ROOT
ATOM      1  C   UNL     1      43.549   6.492  11.315  0.00  0.00    +0.000 C 
ENDROOT
BRANCH   1   6
ATOM      2  C   UNL     1      48.118   6.981  13.547  0.00  0.00    +0.000 A 
ATOM      3  C   UNL     1      47.356   5.830  13.375  0.00  0.00    +0.000 A 
ATOM      4  C   UNL     1      46.215   5.884  12.573  0.00  0.00    +0.000 A 
ATOM      5  C   UNL     1      45.843   7.086  11.978  0.00  0.00    +0.000 A 
ATOM      6  N   UNL     1      44.796   7.194  11.084  0.00  0.00    +0.000 N 
ATOM      7  N   UNL     1      46.557   8.212  12.161  0.00  0.00    +0.000 NA
ATOM      8  C   UNL     1      47.671   8.144  12.940  0.00  0.00    +0.000 A 
ATOM      9  H   UNL     1      44.683   8.183  10.869  0.00  0.00    +0.000 HD
BRANCH   2  11
ATOM     10  N   UNL     1      50.442   7.645  13.786  0.00  0.00    +0.000 N 
ATOM     11  C   UNL     1      49.364   7.007  14.337  0.00  0.00    +0.000 C 
ATOM     12  O   UNL     1      49.423   6.511  15.456  0.00  0.00    +0.000 OA
ATOM     13  H   UNL     1      51.253   7.751  14.384  0.00  0.00    +0.000 HD
ATOM     14  H   UNL     1      50.359   8.274  13.002  0.00  0.00    +0.000 HD
ENDBRANCH   2  11
ENDBRANCH   1   6
BRANCH   1  15
ATOM     15  C   UNL     1      43.674   5.032  10.935  0.00  0.00    +0.000 A 
ATOM     16  C   UNL     1      43.066   4.052  11.720  0.00  0.00    +0.000 A 
ATOM     17  C   UNL     1      43.263   2.723  11.389  0.00  0.00    +0.000 A 
ATOM     18  N   UNL     1      44.025   2.307  10.355  0.00  0.00    +0.000 NA
ATOM     19  C   UNL     1      44.644   3.251   9.601  0.00  0.00    +0.000 A 
ATOM     20  C   UNL     1      44.481   4.611   9.868  0.00  0.00    +0.000 A 
BRANCH  19  21
ATOM     21  C   UNL     1      45.506   2.742   8.514  0.00  0.00    +0.000 A 
ATOM     22  C   UNL     1      45.957   3.598   7.488  0.00  0.00    +0.000 A 
ATOM     23  C   UNL     1      46.764   3.132   6.443  0.00  0.00    +0.000 A 
ATOM     24  C   UNL     1      47.135   1.792   6.398  0.00  0.00    +0.000 A 
ATOM     25  C   UNL     1      46.694   0.935   7.396  0.00  0.00    +0.000 A 
ATOM     26  F   UNL     1      47.039  -0.359   7.353  0.00  0.00    +0.000 F 
ATOM     27  C   UNL     1      45.893   1.391   8.440  0.00  0.00    +0.000 A 
ENDBRANCH  19  21
ENDBRANCH   1  15
TORSDOF 4
ENDMDL
MODEL 5
REMARK VINA RESULT:    -8.323      3.894      7.349
REMARK INTER + INTRA:         -11.051
REMARK INTER:                 -10.649
REMARK INTRA:                  -0.402
REMARK UNBOUND:                -0.782
REMARK  Name = 
REMARK  4 active torsions:
REMARK  status: ('A' for Active; 'I' for Inactive)
REMARK    1  A    between atoms: C_2  and  C_4
REMARK    2  A    between atoms: N_8  and  C_9
REMARK    3  A    between atoms: C_9  and  C_10
REMARK    4  A    between atoms: C_14  and  C_15
REMARK                            x       y       z     vdW  Elec       q    Type
REMARK                         _______ _______ _______ _____ _____    ______ ____
ROOT
ATOM      1  C   UNL     1      45.425   7.082  11.579  0.00  0.00    +0.000 C 
ENDROOT
BRANCH   1   6
ATOM      2  C   UNL     1      47.750   4.909  15.574  0.00  0.00    +0.000 A 
ATOM      3  C   UNL     1      46.673   4.432  14.834  0.00  0.00    +0.000 A 
ATOM      4  C   UNL     1      46.307   5.098  13.663  0.00  0.00    +0.000 A 
ATOM      5  C   UNL     1      47.004   6.234  13.264  0.00  0.00    +0.000 A 
ATOM      6  N   UNL     1      46.775   6.879  12.065  0.00  0.00    +0.000 N 
ATOM      7  N   UNL     1      48.030   6.720  13.988  0.00  0.00    +0.000 NA
ATOM      8  C   UNL     1      48.381   6.058  15.124  0.00  0.00    +0.000 A 
ATOM      9  H   UNL     1      47.350   7.720  12.059  0.00  0.00    +0.000 HD
BRANCH   2  11
ATOM     10  N   UNL     1      47.302   3.840  17.709  0.00  0.00    +0.000 N 
ATOM     11  C   UNL     1      48.239   4.244  16.798  0.00  0.00    +0.000 C 
ATOM     12  O   UNL     1      49.432   4.028  16.974  0.00  0.00    +0.000 OA
ATOM     13  H   UNL     1      47.643   3.288  18.487  0.00  0.00    +0.000 HD
ATOM     14  H   UNL     1      46.321   3.767  17.485  0.00  0.00    +0.000 HD
ENDBRANCH   2  11
ENDBRANCH   1   6
BRANCH   1  15
ATOM     15  C   UNL     1      44.882   5.816  10.950  0.00  0.00    +0.000 A 
ATOM     16  C   UNL     1      43.710   5.241  11.440  0.00  0.00    +0.000 A 
ATOM     17  C   UNL     1      43.282   4.043  10.895  0.00  0.00    +0.000 A 
ATOM     18  N   UNL     1      43.940   3.380   9.921  0.00  0.00    +0.000 NA
ATOM     19  C   UNL     1      45.097   3.915   9.456  0.00  0.00    +0.000 A 
ATOM     20  C   UNL     1      45.583   5.127   9.950  0.00  0.00    +0.000 A 
BRANCH  19  21
ATOM     21  C   UNL     1      45.804   3.124   8.427  0.00  0.00    +0.000 A 
ATOM     22  C   UNL     1      46.309   3.738   7.262  0.00  0.00    +0.000 A 
ATOM     23  C   UNL     1      46.970   3.005   6.270  0.00  0.00    +0.000 A 
ATOM     24  C   UNL     1      47.137   1.632   6.420  0.00  0.00    +0.000 A 
ATOM     25  C   UNL     1      46.642   1.010   7.557  0.00  0.00    +0.000 A 
ATOM     26  F   UNL     1      46.790  -0.313   7.702  0.00  0.00    +0.000 F 
ATOM     27  C   UNL     1      45.984   1.734   8.549  0.00  0.00    +0.000 A 
ENDBRANCH  19  21
ENDBRANCH   1  15
TORSDOF 4
ENDMDL
MODEL 6
REMARK VINA RESULT:    -7.944      3.784      7.050
REMARK INTER + INTRA:         -10.584
REMARK INTER:                  -9.853
REMARK INTRA:                  -0.731
REMARK UNBOUND:                -0.782
REMARK  Name = 
REMARK  4 active torsions:
REMARK  status: ('A' for Active; 'I' for Inactive)
REMARK    1  A    between atoms: C_2  and  C_4
REMARK    2  A    between atoms: N_8  and  C_9
REMARK    3  A    between atoms: C_9  and  C_10
REMARK    4  A    between atoms: C_14  and  C_15
REMARK                            x       y       z     vdW  Elec       q    Type
REMARK                         _______ _______ _______ _____ _____    ______ ____
ROOT
ATOM      1  C   UNL     1      44.707   6.305  12.722  0.00  0.00    +0.000 C 
ENDROOT
BRANCH   1   6
ATOM      2  C   UNL     1      49.427   8.244  12.500  0.00  0.00    +0.000 A 
ATOM      3  C   UNL     1      49.041   6.926  12.722  0.00  0.00    +0.000 A 
ATOM      4  C   UNL     1      47.700   6.575  12.561  0.00  0.00    +0.000 A 
ATOM      5  C   UNL     1      46.768   7.545  12.204  0.00  0.00    +0.000 A 
ATOM      6  N   UNL     1      45.449   7.256  11.917  0.00  0.00    +0.000 N 
ATOM      7  N   UNL     1      47.126   8.829  12.015  0.00  0.00    +0.000 NA
ATOM      8  C   UNL     1      48.438   9.156  12.169  0.00  0.00    +0.000 A 
ATOM      9  H   UNL     1      44.969   8.143  11.773  0.00  0.00    +0.000 HD
BRANCH   2  11
ATOM     10  N   UNL     1      51.798   7.835  12.165  0.00  0.00    +0.000 N 
ATOM     11  C   UNL     1      50.829   8.697  12.599  0.00  0.00    +0.000 C 
ATOM     12  O   UNL     1      51.111   9.813  13.018  0.00  0.00    +0.000 OA
ATOM     13  H   UNL     1      52.742   8.202  12.135  0.00  0.00    +0.000 HD
ATOM     14  H   UNL     1      51.595   7.033  11.587  0.00  0.00    +0.000 HD
ENDBRANCH   2  11
ENDBRANCH   1   6
BRANCH   1  15
ATOM     15  C   UNL     1      44.361   5.071  11.916  0.00  0.00    +0.000 A 
ATOM     16  C   UNL     1      43.386   4.187  12.378  0.00  0.00    +0.000 A 
ATOM     17  C   UNL     1      43.148   3.029  11.658  0.00  0.00    +0.000 A 
ATOM     18  N   UNL     1      43.815   2.688  10.535  0.00  0.00    +0.000 NA
ATOM     19  C   UNL     1      44.785   3.526  10.092  0.00  0.00    +0.000 A 
ATOM     20  C   UNL     1      45.072   4.718  10.759  0.00  0.00    +0.000 A 
BRANCH  19  21
ATOM     21  C   UNL     1      45.519   3.082   8.888  0.00  0.00    +0.000 A 
ATOM     22  C   UNL     1      45.910   4.006   7.897  0.00  0.00    +0.000 A 
ATOM     23  C   UNL     1      46.595   3.603   6.745  0.00  0.00    +0.000 A 
ATOM     24  C   UNL     1      46.900   2.259   6.555  0.00  0.00    +0.000 A 
ATOM     25  C   UNL     1      46.517   1.336   7.517  0.00  0.00    +0.000 A 
ATOM     26  F   UNL     1      46.799   0.039   7.334  0.00  0.00    +0.000 F 
ATOM     27  C   UNL     1      45.837   1.729   8.666  0.00  0.00    +0.000 A 
ENDBRANCH  19  21
ENDBRANCH   1  15
TORSDOF 4
ENDMDL
MODEL 7
REMARK VINA RESULT:    -7.813      2.252      2.764
REMARK INTER + INTRA:         -10.423
REMARK INTER:                  -9.806
REMARK INTRA:                  -0.617
REMARK UNBOUND:                -0.782
REMARK  Name = 
REMARK  4 active torsions:
REMARK  status: ('A' for Active; 'I' for Inactive)
REMARK    1  A    between atoms: C_2  and  C_4
REMARK    2  A    between atoms: N_8  and  C_9
REMARK    3  A    between atoms: C_9  and  C_10
REMARK    4  A    between atoms: C_14  and  C_15
REMARK                            x       y       z     vdW  Elec       q    Type
REMARK                         _______ _______ _______ _____ _____    ______ ____
ROOT
ATOM      1  C   UNL     1      44.384   5.258  11.194  0.00  0.00    +0.000 C 
ENDROOT
BRANCH   1   6
ATOM      2  C   UNL     1      46.580   2.424   7.555  0.00  0.00    +0.000 A 
ATOM      3  C   UNL     1      45.851   2.001   8.662  0.00  0.00    +0.000 A 
ATOM      4  C   UNL     1      45.179   2.949   9.435  0.00  0.00    +0.000 A 
ATOM      5  C   UNL     1      45.265   4.298   9.107  0.00  0.00    +0.000 A 
ATOM      6  N   UNL     1      44.541   5.281   9.753  0.00  0.00    +0.000 N 
ATOM      7  N   UNL     1      45.992   4.721   8.055  0.00  0.00    +0.000 NA
ATOM      8  C   UNL     1      46.636   3.786   7.305  0.00  0.00    +0.000 A 
ATOM      9  H   UNL     1      44.851   6.178   9.382  0.00  0.00    +0.000 HD
BRANCH   2  11
ATOM     10  N   UNL     1      48.282   2.006   5.873  0.00  0.00    +0.000 N 
ATOM     11  C   UNL     1      47.282   1.491   6.652  0.00  0.00    +0.000 C 
ATOM     12  O   UNL     1      47.007   0.298   6.627  0.00  0.00    +0.000 OA
ATOM     13  H   UNL     1      48.827   1.336   5.344  0.00  0.00    +0.000 HD
ATOM     14  H   UNL     1      48.702   2.906   6.051  0.00  0.00    +0.000 HD
ENDBRANCH   2  11
ENDBRANCH   1   6
BRANCH   1  15
ATOM     15  C   UNL     1      45.049   6.461  11.828  0.00  0.00    +0.000 A 
ATOM     16  C   UNL     1      44.586   7.745  11.541  0.00  0.00    +0.000 A 
ATOM     17  C   UNL     1      45.263   8.828  12.075  0.00  0.00    +0.000 A 
ATOM     18  N   UNL     1      46.362   8.722  12.851  0.00  0.00    +0.000 NA
ATOM     19  C   UNL     1      46.839   7.479  13.114  0.00  0.00    +0.000 A 
ATOM     20  C   UNL     1      46.201   6.341  12.619  0.00  0.00    +0.000 A 
BRANCH  19  21
ATOM     21  C   UNL     1      48.073   7.421  13.924  0.00  0.00    +0.000 A 
ATOM     22  C   UNL     1      49.159   8.279  13.652  0.00  0.00    +0.000 A 
ATOM     23  C   UNL     1      50.341   8.230  14.400  0.00  0.00    +0.000 A 
ATOM     24  C   UNL     1      50.466   7.314  15.438  0.00  0.00    +0.000 A 
ATOM     25  C   UNL     1      49.410   6.457  15.716  0.00  0.00    +0.000 A 
ATOM     26  F   UNL     1      49.529   5.565  16.708  0.00  0.00    +0.000 F 
ATOM     27  C   UNL     1      48.230   6.501  14.978  0.00  0.00    +0.000 A 
ENDBRANCH  19  21
ENDBRANCH   1  15
TORSDOF 4
ENDMDL
MODEL 8
REMARK VINA RESULT:    -7.775      1.980      2.567
REMARK INTER + INTRA:         -10.375
REMARK INTER:                 -10.128
REMARK INTRA:                  -0.247
REMARK UNBOUND:                -0.782
REMARK  Name = 
REMARK  4 active torsions:
REMARK  status: ('A' for Active; 'I' for Inactive)
REMARK    1  A    between atoms: C_2  and  C_4
REMARK    2  A    between atoms: N_8  and  C_9
REMARK    3  A    between atoms: C_9  and  C_10
REMARK    4  A    between atoms: C_14  and  C_15
REMARK                            x       y       z     vdW  Elec       q    Type
REMARK                         _______ _______ _______ _____ _____    ______ ____
ROOT
ATOM      1  C   UNL     1      43.472   3.436  11.030  0.00  0.00    +0.000 C 
ENDROOT
BRANCH   1   6
ATOM      2  C   UNL     1      46.694   2.484   7.183  0.00  0.00    +0.000 A 
ATOM      3  C   UNL     1      46.214   3.711   7.628  0.00  0.00    +0.000 A 
ATOM      4  C   UNL     1      45.483   3.764   8.815  0.00  0.00    +0.000 A 
ATOM      5  C   UNL     1      45.226   2.595   9.524  0.00  0.00    +0.000 A 
ATOM      6  N   UNL     1      44.610   2.580  10.760  0.00  0.00    +0.000 N 
ATOM      7  N   UNL     1      45.661   1.398   9.088  0.00  0.00    +0.000 NA
ATOM      8  C   UNL     1      46.379   1.361   7.932  0.00  0.00    +0.000 A 
ATOM      9  H   UNL     1      44.466   1.604  11.014  0.00  0.00    +0.000 HD
BRANCH   2  11
ATOM     10  N   UNL     1      47.327   3.253   4.968  0.00  0.00    +0.000 N 
ATOM     11  C   UNL     1      47.516   2.337   5.966  0.00  0.00    +0.000 C 
ATOM     12  O   UNL     1      48.359   1.453   5.867  0.00  0.00    +0.000 OA
ATOM     13  H   UNL     1      47.974   3.207   4.189  0.00  0.00    +0.000 HD
ATOM     14  H   UNL     1      46.842   4.125   5.115  0.00  0.00    +0.000 HD
ENDBRANCH   2  11
ENDBRANCH   1   6
BRANCH   1  15
ATOM     15  C   UNL     1      43.921   4.847  11.345  0.00  0.00    +0.000 A 
ATOM     16  C   UNL     1      43.085   5.926  11.060  0.00  0.00    +0.000 A 
ATOM     17  C   UNL     1      43.556   7.207  11.287  0.00  0.00    +0.000 A 
ATOM     18  N   UNL     1      44.790   7.485  11.757  0.00  0.00    +0.000 NA
ATOM     19  C   UNL     1      45.623   6.445  12.012  0.00  0.00    +0.000 A 
ATOM     20  C   UNL     1      45.213   5.125  11.818  0.00  0.00    +0.000 A 
BRANCH  19  21
ATOM     21  C   UNL     1      46.980   6.805  12.475  0.00  0.00    +0.000 A 
ATOM     22  C   UNL     1      47.872   7.499  11.633  0.00  0.00    +0.000 A 
ATOM     23  C   UNL     1      49.165   7.838  12.049  0.00  0.00    +0.000 A 
ATOM     24  C   UNL     1      49.598   7.482  13.322  0.00  0.00    +0.000 A 
ATOM     25  C   UNL     1      48.735   6.792  14.162  0.00  0.00    +0.000 A 
ATOM     26  F   UNL     1      49.151   6.438  15.385  0.00  0.00    +0.000 F 
ATOM     27  C   UNL     1      47.447   6.454  13.756  0.00  0.00    +0.000 A 
ENDBRANCH  19  21
ENDBRANCH   1  15
TORSDOF 4
ENDMDL
MODEL 9
REMARK VINA RESULT:    -7.719      1.589      2.104
REMARK INTER + INTRA:         -10.306
REMARK INTER:                  -9.605
REMARK INTRA:                  -0.701
REMARK UNBOUND:                -0.782
REMARK  Name = 
REMARK  4 active torsions:
REMARK  status: ('A' for Active; 'I' for Inactive)
REMARK    1  A    between atoms: C_2  and  C_4
REMARK    2  A    between atoms: N_8  and  C_9
REMARK    3  A    between atoms: C_9  and  C_10
REMARK    4  A    between atoms: C_14  and  C_15
REMARK                            x       y       z     vdW  Elec       q    Type
REMARK                         _______ _______ _______ _____ _____    ______ ____
ROOT
ATOM      1  C   UNL     1      43.598   5.273  10.915  0.00  0.00    +0.000 C 
ENDROOT
BRANCH   1   6
ATOM      2  C   UNL     1      46.251   2.051   7.970  0.00  0.00    +0.000 A 
ATOM      3  C   UNL     1      45.513   1.770   9.116  0.00  0.00    +0.000 A 
ATOM      4  C   UNL     1      44.711   2.770   9.668  0.00  0.00    +0.000 A 
ATOM      5  C   UNL     1      44.676   4.033   9.084  0.00  0.00    +0.000 A 
ATOM      6  N   UNL     1      43.825   5.036   9.503  0.00  0.00    +0.000 N 
ATOM      7  N   UNL     1      45.408   4.323   7.992  0.00  0.00    +0.000 NA
ATOM      8  C   UNL     1      46.181   3.337   7.460  0.00  0.00    +0.000 A 
ATOM      9  H   UNL     1      44.060   5.873   8.973  0.00  0.00    +0.000 HD
BRANCH   2  11
ATOM     10  N   UNL     1      46.832  -0.272   7.559  0.00  0.00    +0.000 N 
ATOM     11  C   UNL     1      47.089   1.045   7.289  0.00  0.00    +0.000 C 
ATOM     12  O   UNL     1      47.954   1.372   6.486  0.00  0.00    +0.000 OA
ATOM     13  H   UNL     1      47.338  -0.950   7.002  0.00  0.00    +0.000 HD
ATOM     14  H   UNL     1      45.980  -0.580   8.002  0.00  0.00    +0.000 HD
ENDBRANCH   2  11
ENDBRANCH   1   6
BRANCH   1  15
ATOM     15  C   UNL     1      44.325   6.518  11.376  0.00  0.00    +0.000 A 
ATOM     16  C   UNL     1      43.717   7.767  11.250  0.00  0.00    +0.000 A 
ATOM     17  C   UNL     1      44.437   8.894  11.609  0.00  0.00    +0.000 A 
ATOM     18  N   UNL     1      45.708   8.863  12.063  0.00  0.00    +0.000 NA
ATOM     19  C   UNL     1      46.320   7.656  12.163  0.00  0.00    +0.000 A 
ATOM     20  C   UNL     1      45.651   6.477  11.831  0.00  0.00    +0.000 A 
BRANCH  19  21
ATOM     21  C   UNL     1      47.727   7.683  12.616  0.00  0.00    +0.000 A 
ATOM     22  C   UNL     1      48.044   7.686  13.989  0.00  0.00    +0.000 A 
ATOM     23  C   UNL     1      49.370   7.724  14.438  0.00  0.00    +0.000 A 
ATOM     24  C   UNL     1      50.412   7.766  13.517  0.00  0.00    +0.000 A 
ATOM     25  C   UNL     1      50.117   7.770  12.161  0.00  0.00    +0.000 A 
ATOM     26  F   UNL     1      51.116   7.822  11.270  0.00  0.00    +0.000 F 
ATOM     27  C   UNL     1      48.801   7.731  11.708  0.00  0.00    +0.000 A 
ENDBRANCH  19  21
ENDBRANCH   1  15
TORSDOF 4
ENDMDL
