MODEL 1
REMARK VINA RESULT:    -9.482      0.000      0.000
REMARK INTER + INTRA:         -13.414
REMARK INTER:                 -12.254
REMARK INTRA:                  -1.160
REMARK UNBOUND:                -1.160
REMARK  Name = 
REMARK  5 active torsions:
REMARK  status: ('A' for Active; 'I' for Inactive)
REMARK    1  A    between atoms: C_2  and  C_4
REMARK    2  A    between atoms: N_8  and  C_9
REMARK    3  A    between atoms: C_9  and  C_10
REMARK    4  A    between atoms: C_10  and  C_13
REMARK    5  A    between atoms: C_17  and  C_18
REMARK                            x       y       z     vdW  Elec       q    Type
REMARK                         _______ _______ _______ _____ _____    ______ ____
ROOT
ATOM      1  C   UNL     1      43.167   5.554  12.052  0.00  0.00    +0.000 C 
ATOM      2  F   UNL     1      42.719   6.779  11.652  0.00  0.00    +0.000 F 
ATOM      3  F   UNL     1      42.276   5.127  12.994  0.00  0.00    +0.000 F 
ENDROOT
BRANCH   1   4
ATOM      4  C   UNL     1      44.590   5.607  12.579  0.00  0.00    +0.000 A 
ATOM      5  C   UNL     1      45.191   4.473  13.137  0.00  0.00    +0.000 A 
ATOM      6  C   UNL     1      46.529   4.508  13.515  0.00  0.00    +0.000 A 
ATOM      7  C   UNL     1      47.285   5.666  13.314  0.00  0.00    +0.000 A 
ATOM      8  C   UNL     1      46.730   6.814  12.720  0.00  0.00    +0.000 A 
ATOM      9  C   UNL     1      45.363   6.770  12.394  0.00  0.00    +0.000 A 
BRANCH   8  10
ATOM     10  C   UNL     1      47.566   7.979  12.344  0.00  0.00    +0.000 A 
ATOM     11  C   UNL     1      48.907   7.802  11.946  0.00  0.00    +0.000 A 
ATOM     12  C   UNL     1      49.679   8.867  11.476  0.00  0.00    +0.000 A 
ATOM     13  C   UNL     1      49.117  10.130  11.393  0.00  0.00    +0.000 A 
ATOM     14  F   UNL     1      49.842  11.146  10.906  0.00  0.00    +0.000 F 
ATOM     15  C   UNL     1      47.808  10.353  11.796  0.00  0.00    +0.000 A 
ATOM     16  C   UNL     1      47.041   9.286  12.279  0.00  0.00    +0.000 A 
ENDBRANCH   8  10
ENDBRANCH   1   4
BRANCH   1  17
ATOM     17  C   UNL     1      43.128   4.584  10.844  0.00  0.00    +0.000 C 
BRANCH  17  22
ATOM     18  C   UNL     1      46.418   2.275   7.664  0.00  0.00    +0.000 A 
ATOM     19  C   UNL     1      45.696   1.792   8.749  0.00  0.00    +0.000 A 
ATOM     20  C   UNL     1      44.890   2.675   9.466  0.00  0.00    +0.000 A 
ATOM     21  C   UNL     1      44.813   4.015   9.095  0.00  0.00    +0.000 A 
ATOM     22  N   UNL     1      44.029   4.927   9.750  0.00  0.00    +0.000 N 
ATOM     23  N   UNL     1      45.527   4.493   8.059  0.00  0.00    +0.000 NA
ATOM     24  C   UNL     1      46.322   3.627   7.375  0.00  0.00    +0.000 A 
ATOM     25  H   UNL     1      44.042   5.866   9.367  0.00  0.00    +0.000 HD
BRANCH  18  27
ATOM     26  N   UNL     1      48.286   2.010   6.138  0.00  0.00    +0.000 N 
ATOM     27  C   UNL     1      47.278   1.405   6.838  0.00  0.00    +0.000 C 
ATOM     28  O   UNL     1      47.122   0.191   6.809  0.00  0.00    +0.000 OA
ATOM     29  H   UNL     1      48.933   1.396   5.661  0.00  0.00    +0.000 HD
ATOM     30  H   UNL     1      48.597   2.949   6.341  0.00  0.00    +0.000 HD
ENDBRANCH  18  27
ENDBRANCH  17  22
ENDBRANCH   1  17
TORSDOF 5
ENDMDL
MODEL 2
REMARK VINA RESULT:    -9.447      2.772      4.125
REMARK INTER + INTRA:         -13.369
REMARK INTER:                 -12.211
REMARK INTRA:                  -1.158
REMARK UNBOUND:                -1.160
REMARK  Name = 
REMARK  5 active torsions:
REMARK  status: ('A' for Active; 'I' for Inactive)
REMARK    1  A    between atoms: C_2  and  C_4
REMARK    2  A    between atoms: N_8  and  C_9
REMARK    3  A    between atoms: C_9  and  C_10
REMARK    4  A    between atoms: C_10  and  C_13
REMARK    5  A    between atoms: C_17  and  C_18
REMARK                            x       y       z     vdW  Elec       q    Type
REMARK                         _______ _______ _______ _____ _____    ______ ____
ROOT
ATOM      1  C   UNL     1      43.610   4.624  12.503  0.00  0.00    +0.000 C 
ATOM      2  F   UNL     1      42.703   5.539  12.953  0.00  0.00    +0.000 F 
ATOM      3  F   UNL     1      43.343   3.475  13.189  0.00  0.00    +0.000 F 
ENDROOT
BRANCH   1   4
ATOM      4  C   UNL     1      45.041   5.095  12.691  0.00  0.00    +0.000 A 
ATOM      5  C   UNL     1      45.615   6.017  11.808  0.00  0.00    +0.000 A 
ATOM      6  C   UNL     1      46.888   6.521  12.056  0.00  0.00    +0.000 A 
ATOM      7  C   UNL     1      47.587   6.129  13.201  0.00  0.00    +0.000 A 
ATOM      8  C   UNL     1      47.030   5.235  14.134  0.00  0.00    +0.000 A 
ATOM      9  C   UNL     1      45.764   4.702  13.834  0.00  0.00    +0.000 A 
BRANCH   8  10
ATOM     10  C   UNL     1      47.688   4.953  15.432  0.00  0.00    +0.000 A 
ATOM     11  C   UNL     1      47.461   3.733  16.102  0.00  0.00    +0.000 A 
ATOM     12  C   UNL     1      48.156   3.395  17.265  0.00  0.00    +0.000 A 
ATOM     13  C   UNL     1      49.097   4.274  17.776  0.00  0.00    +0.000 A 
ATOM     14  F   UNL     1      49.793   3.936  18.869  0.00  0.00    +0.000 F 
ATOM     15  C   UNL     1      49.335   5.495  17.160  0.00  0.00    +0.000 A 
ATOM     16  C   UNL     1      48.627   5.837  16.003  0.00  0.00    +0.000 A 
ENDBRANCH   8  10
ENDBRANCH   1   4
BRANCH   1  17
ATOM     17  C   UNL     1      43.370   4.379  10.992  0.00  0.00    +0.000 C 
BRANCH  17  22
ATOM     18  C   UNL     1      46.561   2.615   7.390  0.00  0.00    +0.000 A 
ATOM     19  C   UNL     1      46.114   3.901   7.672  0.00  0.00    +0.000 A 
ATOM     20  C   UNL     1      45.202   4.082   8.710  0.00  0.00    +0.000 A 
ATOM     21  C   UNL     1      44.753   2.989   9.449  0.00  0.00    +0.000 A 
ATOM     22  N   UNL     1      43.869   3.104  10.489  0.00  0.00    +0.000 N 
ATOM     23  N   UNL     1      45.165   1.740   9.166  0.00  0.00    +0.000 NA
ATOM     24  C   UNL     1      46.044   1.572   8.141  0.00  0.00    +0.000 A 
ATOM     25  H   UNL     1      43.639   2.237  10.962  0.00  0.00    +0.000 HD
BRANCH  18  27
ATOM     26  N   UNL     1      47.549   3.185   5.249  0.00  0.00    +0.000 N 
ATOM     27  C   UNL     1      47.542   2.338   6.323  0.00  0.00    +0.000 C 
ATOM     28  O   UNL     1      48.341   1.414   6.409  0.00  0.00    +0.000 OA
ATOM     29  H   UNL     1      48.293   3.051   4.574  0.00  0.00    +0.000 HD
ATOM     30  H   UNL     1      47.095   4.086   5.268  0.00  0.00    +0.000 HD
ENDBRANCH  18  27
ENDBRANCH  17  22
ENDBRANCH   1  17
TORSDOF 5
ENDMDL
MODEL 3
REMARK VINA RESULT:    -9.056      1.920      2.551
REMARK INTER + INTRA:         -12.864
REMARK INTER:                 -11.559
REMARK INTRA:                  -1.305
REMARK UNBOUND:                -1.160
REMARK  Name = 
REMARK  5 active torsions:
REMARK  status: ('A' for Active; 'I' for Inactive)
REMARK    1  A    between atoms: C_2  and  C_4
REMARK    2  A    between atoms: N_8  and  C_9
REMARK    3  A    between atoms: C_9  and  C_10
REMARK    4  A    between atoms: C_10  and  C_13
REMARK    5  A    between atoms: C_17  and  C_18
REMARK                            x       y       z     vdW  Elec       q    Type
REMARK                         _______ _______ _______ _____ _____    ______ ____
ROOT
ATOM      1  C   UNL     1      44.224   3.954  12.444  0.00  0.00    +0.000 C 
ATOM      2  F   UNL     1      43.401   3.996  13.532  0.00  0.00    +0.000 F 
ATOM      3  F   UNL     1      45.200   3.053  12.758  0.00  0.00    +0.000 F 
ENDROOT
BRANCH   1   4
ATOM      4  C   UNL     1      44.785   5.321  12.095  0.00  0.00    +0.000 A 
ATOM      5  C   UNL     1      43.943   6.352  11.663  0.00  0.00    +0.000 A 
ATOM      6  C   UNL     1      44.455   7.628  11.451  0.00  0.00    +0.000 A 
ATOM      7  C   UNL     1      45.806   7.890  11.696  0.00  0.00    +0.000 A 
ATOM      8  C   UNL     1      46.677   6.892  12.168  0.00  0.00    +0.000 A 
ATOM      9  C   UNL     1      46.146   5.599  12.325  0.00  0.00    +0.000 A 
BRANCH   8  10
ATOM     10  C   UNL     1      48.062   7.204  12.596  0.00  0.00    +0.000 A 
ATOM     11  C   UNL     1      48.977   7.789  11.696  0.00  0.00    +0.000 A 
ATOM     12  C   UNL     1      50.248   8.198  12.106  0.00  0.00    +0.000 A 
ATOM     13  C   UNL     1      50.623   8.032  13.429  0.00  0.00    +0.000 A 
ATOM     14  F   UNL     1      51.826   8.458  13.833  0.00  0.00    +0.000 F 
ATOM     15  C   UNL     1      49.762   7.440  14.342  0.00  0.00    +0.000 A 
ATOM     16  C   UNL     1      48.494   7.018  13.925  0.00  0.00    +0.000 A 
ENDBRANCH   8  10
ENDBRANCH   1   4
BRANCH   1  17
ATOM     17  C   UNL     1      43.423   3.427  11.227  0.00  0.00    +0.000 C 
BRANCH  17  22
ATOM     18  C   UNL     1      46.553   2.705   7.234  0.00  0.00    +0.000 A 
ATOM     19  C   UNL     1      45.956   3.855   7.737  0.00  0.00    +0.000 A 
ATOM     20  C   UNL     1      45.106   3.744   8.836  0.00  0.00    +0.000 A 
ATOM     21  C   UNL     1      44.865   2.500   9.415  0.00  0.00    +0.000 A 
ATOM     22  N   UNL     1      44.052   2.328  10.504  0.00  0.00    +0.000 N 
ATOM     23  N   UNL     1      45.422   1.381   8.918  0.00  0.00    +0.000 NA
ATOM     24  C   UNL     1      46.239   1.498   7.836  0.00  0.00    +0.000 A 
ATOM     25  H   UNL     1      43.978   1.377  10.845  0.00  0.00    +0.000 HD
BRANCH  18  27
ATOM     26  N   UNL     1      48.799   2.471   6.346  0.00  0.00    +0.000 N 
ATOM     27  C   UNL     1      47.482   2.737   6.087  0.00  0.00    +0.000 C 
ATOM     28  O   UNL     1      47.088   2.953   4.948  0.00  0.00    +0.000 OA
ATOM     29  H   UNL     1      49.408   2.390   5.541  0.00  0.00    +0.000 HD
ATOM     30  H   UNL     1      49.105   2.042   7.207  0.00  0.00    +0.000 HD
ENDBRANCH  18  27
ENDBRANCH  17  22
ENDBRANCH   1  17
TORSDOF 5
ENDMDL
MODEL 4
REMARK VINA RESULT:    -8.662      4.024      7.170
REMARK INTER + INTRA:         -12.354
REMARK INTER:                 -11.174
REMARK INTRA:                  -1.180
REMARK UNBOUND:                -1.160
REMARK  Name = 
REMARK  5 active torsions:
REMARK  status: ('A' for Active; 'I' for Inactive)
REMARK    1  A    between atoms: C_2  and  C_4
REMARK    2  A    between atoms: N_8  and  C_9
REMARK    3  A    between atoms: C_9  and  C_10
REMARK    4  A    between atoms: C_10  and  C_13
REMARK    5  A    between atoms: C_17  and  C_18
REMARK                            x       y       z     vdW  Elec       q    Type
REMARK                         _______ _______ _______ _____ _____    ______ ____
ROOT
ATOM      1  C   UNL     1      45.632   7.676  12.006  0.00  0.00    +0.000 C 
ATOM      2  F   UNL     1      45.250   8.089  13.250  0.00  0.00    +0.000 F 
ATOM      3  F   UNL     1      45.413   8.743  11.183  0.00  0.00    +0.000 F 
ENDROOT
BRANCH   1   4
ATOM      4  C   UNL     1      44.883   6.434  11.560  0.00  0.00    +0.000 A 
ATOM      5  C   UNL     1      43.545   6.235  11.918  0.00  0.00    +0.000 A 
ATOM      6  C   UNL     1      42.842   5.147  11.411  0.00  0.00    +0.000 A 
ATOM      7  C   UNL     1      43.461   4.264  10.522  0.00  0.00    +0.000 A 
ATOM      8  C   UNL     1      44.791   4.449  10.106  0.00  0.00    +0.000 A 
ATOM      9  C   UNL     1      45.496   5.528  10.672  0.00  0.00    +0.000 A 
BRANCH   8  10
ATOM     10  C   UNL     1      45.396   3.623   9.034  0.00  0.00    +0.000 A 
ATOM     11  C   UNL     1      46.037   4.231   7.935  0.00  0.00    +0.000 A 
ATOM     12  C   UNL     1      46.714   3.478   6.973  0.00  0.00    +0.000 A 
ATOM     13  C   UNL     1      46.764   2.099   7.099  0.00  0.00    +0.000 A 
ATOM     14  F   UNL     1      47.445   1.378   6.200  0.00  0.00    +0.000 F 
ATOM     15  C   UNL     1      46.127   1.459   8.153  0.00  0.00    +0.000 A 
ATOM     16  C   UNL     1      45.438   2.216   9.107  0.00  0.00    +0.000 A 
ENDBRANCH   8  10
ENDBRANCH   1   4
BRANCH   1  17
ATOM     17  C   UNL     1      47.147   7.355  12.025  0.00  0.00    +0.000 C 
BRANCH  17  22
ATOM     18  C   UNL     1      47.832   4.263  16.055  0.00  0.00    +0.000 A 
ATOM     19  C   UNL     1      47.105   4.097  14.882  0.00  0.00    +0.000 A 
ATOM     20  C   UNL     1      47.069   5.142  13.960  0.00  0.00    +0.000 A 
ATOM     21  C   UNL     1      47.752   6.328  14.217  0.00  0.00    +0.000 A 
ATOM     22  N   UNL     1      47.767   7.385  13.345  0.00  0.00    +0.000 N 
ATOM     23  N   UNL     1      48.438   6.504  15.361  0.00  0.00    +0.000 NA
ATOM     24  C   UNL     1      48.456   5.483  16.261  0.00  0.00    +0.000 A 
ATOM     25  H   UNL     1      48.320   8.182  13.637  0.00  0.00    +0.000 HD
BRANCH  18  27
ATOM     26  N   UNL     1      46.788   2.832  17.713  0.00  0.00    +0.000 N 
ATOM     27  C   UNL     1      47.940   3.200  17.073  0.00  0.00    +0.000 C 
ATOM     28  O   UNL     1      49.005   2.645  17.310  0.00  0.00    +0.000 OA
ATOM     29  H   UNL     1      46.853   2.033  18.331  0.00  0.00    +0.000 HD
ATOM     30  H   UNL     1      45.873   3.079  17.365  0.00  0.00    +0.000 HD
ENDBRANCH  18  27
ENDBRANCH  17  22
ENDBRANCH   1  17
TORSDOF 5
ENDMDL
MODEL 5
REMARK VINA RESULT:    -8.649      4.895      8.095
REMARK INTER + INTRA:         -12.337
REMARK INTER:                 -11.512
REMARK INTRA:                  -0.825
REMARK UNBOUND:                -1.160
REMARK  Name = 
REMARK  5 active torsions:
REMARK  status: ('A' for Active; 'I' for Inactive)
REMARK    1  A    between atoms: C_2  and  C_4
REMARK    2  A    between atoms: N_8  and  C_9
REMARK    3  A    between atoms: C_9  and  C_10
REMARK    4  A    between atoms: C_10  and  C_13
REMARK    5  A    between atoms: C_17  and  C_18
REMARK                            x       y       z     vdW  Elec       q    Type
REMARK                         _______ _______ _______ _____ _____    ______ ____
ROOT
ATOM      1  C   UNL     1      45.314   5.799  12.546  0.00  0.00    +0.000 C 
ATOM      2  F   UNL     1      44.332   6.266  13.372  0.00  0.00    +0.000 F 
ATOM      3  F   UNL     1      45.593   6.826  11.691  0.00  0.00    +0.000 F 
ENDROOT
BRANCH   1   4
ATOM      4  C   UNL     1      44.898   4.533  11.819  0.00  0.00    +0.000 A 
ATOM      5  C   UNL     1      43.749   3.832  12.200  0.00  0.00    +0.000 A 
ATOM      6  C   UNL     1      43.321   2.737  11.457  0.00  0.00    +0.000 A 
ATOM      7  C   UNL     1      44.022   2.350  10.311  0.00  0.00    +0.000 A 
ATOM      8  C   UNL     1      45.159   3.052   9.871  0.00  0.00    +0.000 A 
ATOM      9  C   UNL     1      45.599   4.124  10.669  0.00  0.00    +0.000 A 
BRANCH   8  10
ATOM     10  C   UNL     1      45.801   2.759   8.567  0.00  0.00    +0.000 A 
ATOM     11  C   UNL     1      46.053   3.793   7.642  0.00  0.00    +0.000 A 
ATOM     12  C   UNL     1      46.760   3.562   6.460  0.00  0.00    +0.000 A 
ATOM     13  C   UNL     1      47.230   2.288   6.185  0.00  0.00    +0.000 A 
ATOM     14  F   UNL     1      47.941   2.072   5.071  0.00  0.00    +0.000 F 
ATOM     15  C   UNL     1      46.984   1.237   7.057  0.00  0.00    +0.000 A 
ATOM     16  C   UNL     1      46.264   1.469   8.235  0.00  0.00    +0.000 A 
ENDBRANCH   8  10
ENDBRANCH   1   4
BRANCH   1  17
ATOM     17  C   UNL     1      46.575   5.487  13.390  0.00  0.00    +0.000 C 
BRANCH  17  22
ATOM     18  C   UNL     1      48.505   4.422  18.017  0.00  0.00    +0.000 A 
ATOM     19  C   UNL     1      48.905   5.327  17.041  0.00  0.00    +0.000 A 
ATOM     20  C   UNL     1      48.198   5.376  15.841  0.00  0.00    +0.000 A 
ATOM     21  C   UNL     1      47.110   4.531  15.631  0.00  0.00    +0.000 A 
ATOM     22  N   UNL     1      46.368   4.540  14.480  0.00  0.00    +0.000 N 
ATOM     23  N   UNL     1      46.733   3.636  16.563  0.00  0.00    +0.000 NA
ATOM     24  C   UNL     1      47.438   3.586  17.726  0.00  0.00    +0.000 A 
ATOM     25  H   UNL     1      45.588   3.893  14.460  0.00  0.00    +0.000 HD
BRANCH  18  27
ATOM     26  N   UNL     1      48.490   3.723  20.340  0.00  0.00    +0.000 N 
ATOM     27  C   UNL     1      49.184   4.320  19.324  0.00  0.00    +0.000 C 
ATOM     28  O   UNL     1      50.331   4.717  19.483  0.00  0.00    +0.000 OA
ATOM     29  H   UNL     1      49.000   3.562  21.200  0.00  0.00    +0.000 HD
ATOM     30  H   UNL     1      47.665   3.164  20.177  0.00  0.00    +0.000 HD
ENDBRANCH  18  27
ENDBRANCH  17  22
ENDBRANCH   1  17
TORSDOF 5
ENDMDL
MODEL 6
REMARK VINA RESULT:    -8.184      1.939      2.726
REMARK INTER + INTRA:         -11.737
REMARK INTER:                 -11.010
REMARK INTRA:                  -0.727
REMARK UNBOUND:                -1.160
REMARK  Name = 
REMARK  5 active torsions:
REMARK  status: ('A' for Active; 'I' for Inactive)
REMARK    1  A    between atoms: C_2  and  C_4
REMARK    2  A    between atoms: N_8  and  C_9
REMARK    3  A    between atoms: C_9  and  C_10
REMARK    4  A    between atoms: C_10  and  C_13
REMARK    5  A    between atoms: C_17  and  C_18
REMARK                            x       y       z     vdW  Elec       q    Type
REMARK                         _______ _______ _______ _____ _____    ______ ____
ROOT
ATOM      1  C   UNL     1      42.831   5.558  12.021  0.00  0.00    +0.000 C 
ATOM      2  F   UNL     1      41.567   6.005  11.763  0.00  0.00    +0.000 F 
ATOM      3  F   UNL     1      42.771   4.985  13.259  0.00  0.00    +0.000 F 
ENDROOT
BRANCH   1   4
ATOM      4  C   UNL     1      43.860   6.672  11.945  0.00  0.00    +0.000 A 
ATOM      5  C   UNL     1      43.577   7.864  11.269  0.00  0.00    +0.000 A 
ATOM      6  C   UNL     1      44.487   8.916  11.301  0.00  0.00    +0.000 A 
ATOM      7  C   UNL     1      45.674   8.795  12.029  0.00  0.00    +0.000 A 
ATOM      8  C   UNL     1      45.978   7.629  12.753  0.00  0.00    +0.000 A 
ATOM      9  C   UNL     1      45.066   6.562  12.664  0.00  0.00    +0.000 A 
BRANCH   8  10
ATOM     10  C   UNL     1      47.145   7.559  13.666  0.00  0.00    +0.000 A 
ATOM     11  C   UNL     1      47.753   8.738  14.144  0.00  0.00    +0.000 A 
ATOM     12  C   UNL     1      48.777   8.701  15.094  0.00  0.00    +0.000 A 
ATOM     13  C   UNL     1      49.206   7.479  15.585  0.00  0.00    +0.000 A 
ATOM     14  F   UNL     1      50.160   7.442  16.525  0.00  0.00    +0.000 F 
ATOM     15  C   UNL     1      48.649   6.294  15.125  0.00  0.00    +0.000 A 
ATOM     16  C   UNL     1      47.633   6.334  14.163  0.00  0.00    +0.000 A 
ENDBRANCH   8  10
ENDBRANCH   1   4
BRANCH   1  17
ATOM     17  C   UNL     1      43.204   4.474  10.980  0.00  0.00    +0.000 C 
BRANCH  17  22
ATOM     18  C   UNL     1      46.490   2.444   7.611  0.00  0.00    +0.000 A 
ATOM     19  C   UNL     1      45.744   1.865   8.630  0.00  0.00    +0.000 A 
ATOM     20  C   UNL     1      44.946   2.683   9.427  0.00  0.00    +0.000 A 
ATOM     21  C   UNL     1      44.902   4.057   9.200  0.00  0.00    +0.000 A 
ATOM     22  N   UNL     1      44.128   4.912   9.939  0.00  0.00    +0.000 N 
ATOM     23  N   UNL     1      45.640   4.627   8.230  0.00  0.00    +0.000 NA
ATOM     24  C   UNL     1      46.427   3.821   7.467  0.00  0.00    +0.000 A 
ATOM     25  H   UNL     1      44.165   5.885   9.659  0.00  0.00    +0.000 HD
BRANCH  18  27
ATOM     26  N   UNL     1      48.417   2.284   6.146  0.00  0.00    +0.000 N 
ATOM     27  C   UNL     1      47.344   1.648   6.708  0.00  0.00    +0.000 C 
ATOM     28  O   UNL     1      47.125   0.462   6.498  0.00  0.00    +0.000 OA
ATOM     29  H   UNL     1      49.055   1.704   5.614  0.00  0.00    +0.000 HD
ATOM     30  H   UNL     1      48.767   3.164   6.493  0.00  0.00    +0.000 HD
ENDBRANCH  18  27
ENDBRANCH  17  22
ENDBRANCH   1  17
TORSDOF 5
ENDMDL
MODEL 7
REMARK VINA RESULT:    -7.864      4.152      7.317
REMARK INTER + INTRA:         -11.323
REMARK INTER:                 -10.447
REMARK INTRA:                  -0.877
REMARK UNBOUND:                -1.160
REMARK  Name = 
REMARK  5 active torsions:
REMARK  status: ('A' for Active; 'I' for Inactive)
REMARK    1  A    between atoms: C_2  and  C_4
REMARK    2  A    between atoms: N_8  and  C_9
REMARK    3  A    between atoms: C_9  and  C_10
REMARK    4  A    between atoms: C_10  and  C_13
REMARK    5  A    between atoms: C_17  and  C_18
REMARK                            x       y       z     vdW  Elec       q    Type
REMARK                         _______ _______ _______ _____ _____    ______ ____
ROOT
ATOM      1  C   UNL     1      44.517   6.344  11.877  0.00  0.00    +0.000 C 
ATOM      2  F   UNL     1      44.195   6.486  13.195  0.00  0.00    +0.000 F 
ATOM      3  F   UNL     1      43.670   7.174  11.200  0.00  0.00    +0.000 F 
ENDROOT
BRANCH   1   4
ATOM      4  C   UNL     1      44.413   4.902  11.412  0.00  0.00    +0.000 A 
ATOM      5  C   UNL     1      43.460   4.039  11.964  0.00  0.00    +0.000 A 
ATOM      6  C   UNL     1      43.303   2.754  11.452  0.00  0.00    +0.000 A 
ATOM      7  C   UNL     1      44.080   2.332  10.369  0.00  0.00    +0.000 A 
ATOM      8  C   UNL     1      45.021   3.181   9.761  0.00  0.00    +0.000 A 
ATOM      9  C   UNL     1      45.195   4.456  10.329  0.00  0.00    +0.000 A 
BRANCH   8  10
ATOM     10  C   UNL     1      45.718   2.804   8.509  0.00  0.00    +0.000 A 
ATOM     11  C   UNL     1      45.999   3.773   7.524  0.00  0.00    +0.000 A 
ATOM     12  C   UNL     1      46.756   3.467   6.390  0.00  0.00    +0.000 A 
ATOM     13  C   UNL     1      47.247   2.182   6.226  0.00  0.00    +0.000 A 
ATOM     14  F   UNL     1      48.005   1.896   5.159  0.00  0.00    +0.000 F 
ATOM     15  C   UNL     1      46.974   1.193   7.159  0.00  0.00    +0.000 A 
ATOM     16  C   UNL     1      46.205   1.499   8.288  0.00  0.00    +0.000 A 
ENDBRANCH   8  10
ENDBRANCH   1   4
BRANCH   1  17
ATOM     17  C   UNL     1      45.974   6.824  11.660  0.00  0.00    +0.000 C 
BRANCH  17  22
ATOM     18  C   UNL     1      50.690   8.149  13.167  0.00  0.00    +0.000 A 
ATOM     19  C   UNL     1      50.021   8.344  11.964  0.00  0.00    +0.000 A 
ATOM     20  C   UNL     1      48.731   7.833  11.823  0.00  0.00    +0.000 A 
ATOM     21  C   UNL     1      48.130   7.144  12.873  0.00  0.00    +0.000 A 
ATOM     22  N   UNL     1      46.862   6.631  12.801  0.00  0.00    +0.000 N 
ATOM     23  N   UNL     1      48.781   6.932  14.032  0.00  0.00    +0.000 NA
ATOM     24  C   UNL     1      50.045   7.421  14.155  0.00  0.00    +0.000 A 
ATOM     25  H   UNL     1      46.530   6.171  13.641  0.00  0.00    +0.000 HD
BRANCH  18  27
ATOM     26  N   UNL     1      53.086   8.014  12.809  0.00  0.00    +0.000 N 
ATOM     27  C   UNL     1      52.048   8.674  13.408  0.00  0.00    +0.000 C 
ATOM     28  O   UNL     1      52.237   9.678  14.083  0.00  0.00    +0.000 OA
ATOM     29  H   UNL     1      53.999   8.441  12.893  0.00  0.00    +0.000 HD
ATOM     30  H   UNL     1      52.946   7.358  12.055  0.00  0.00    +0.000 HD
ENDBRANCH  18  27
ENDBRANCH  17  22
ENDBRANCH   1  17
TORSDOF 5
ENDMDL
MODEL 8
REMARK VINA RESULT:    -7.700      1.789      2.820
REMARK INTER + INTRA:         -11.111
REMARK INTER:                 -10.055
REMARK INTRA:                  -1.055
REMARK UNBOUND:                -1.160
REMARK  Name = 
REMARK  5 active torsions:
REMARK  status: ('A' for Active; 'I' for Inactive)
REMARK    1  A    between atoms: C_2  and  C_4
REMARK    2  A    between atoms: N_8  and  C_9
REMARK    3  A    between atoms: C_9  and  C_10
REMARK    4  A    between atoms: C_10  and  C_13
REMARK    5  A    between atoms: C_17  and  C_18
REMARK                            x       y       z     vdW  Elec       q    Type
REMARK                         _______ _______ _______ _____ _____    ______ ____
ROOT
ATOM      1  C   UNL     1      45.170   5.871  12.363  0.00  0.00    +0.000 C 
ATOM      2  F   UNL     1      44.421   5.825  13.503  0.00  0.00    +0.000 F 
ATOM      3  F   UNL     1      46.088   4.868  12.486  0.00  0.00    +0.000 F 
ENDROOT
BRANCH   1   4
ATOM      4  C   UNL     1      45.818   7.228  12.156  0.00  0.00    +0.000 A 
ATOM      5  C   UNL     1      45.061   8.403  12.230  0.00  0.00    +0.000 A 
ATOM      6  C   UNL     1      45.686   9.643  12.147  0.00  0.00    +0.000 A 
ATOM      7  C   UNL     1      47.076   9.719  12.015  0.00  0.00    +0.000 A 
ATOM      8  C   UNL     1      47.877   8.565  11.975  0.00  0.00    +0.000 A 
ATOM      9  C   UNL     1      47.215   7.324  12.011  0.00  0.00    +0.000 A 
BRANCH   8  10
ATOM     10  C   UNL     1      49.357   8.640  12.013  0.00  0.00    +0.000 A 
ATOM     11  C   UNL     1      50.013   9.368  13.028  0.00  0.00    +0.000 A 
ATOM     12  C   UNL     1      51.404   9.359  13.153  0.00  0.00    +0.000 A 
ATOM     13  C   UNL     1      52.163   8.615  12.265  0.00  0.00    +0.000 A 
ATOM     14  F   UNL     1      53.494   8.573  12.407  0.00  0.00    +0.000 F 
ATOM     15  C   UNL     1      51.559   7.903  11.238  0.00  0.00    +0.000 A 
ATOM     16  C   UNL     1      50.166   7.925  11.107  0.00  0.00    +0.000 A 
ENDBRANCH   8  10
ENDBRANCH   1   4
BRANCH   1  17
ATOM     17  C   UNL     1      44.257   5.574  11.148  0.00  0.00    +0.000 C 
BRANCH  17  22
ATOM     18  C   UNL     1      46.463   2.693   7.528  0.00  0.00    +0.000 A 
ATOM     19  C   UNL     1      46.494   4.063   7.757  0.00  0.00    +0.000 A 
ATOM     20  C   UNL     1      45.754   4.584   8.818  0.00  0.00    +0.000 A 
ATOM     21  C   UNL     1      45.001   3.739   9.631  0.00  0.00    +0.000 A 
ATOM     22  N   UNL     1      44.265   4.187  10.695  0.00  0.00    +0.000 N 
ATOM     23  N   UNL     1      44.949   2.414   9.400  0.00  0.00    +0.000 NA
ATOM     24  C   UNL     1      45.663   1.917   8.353  0.00  0.00    +0.000 A 
ATOM     25  H   UNL     1      43.780   3.470  11.222  0.00  0.00    +0.000 HD
BRANCH  18  27
ATOM     26  N   UNL     1      47.835   2.889   5.538  0.00  0.00    +0.000 N 
ATOM     27  C   UNL     1      47.233   2.057   6.441  0.00  0.00    +0.000 C 
ATOM     28  O   UNL     1      47.359   0.841   6.371  0.00  0.00    +0.000 OA
ATOM     29  H   UNL     1      48.447   2.450   4.860  0.00  0.00    +0.000 HD
ATOM     30  H   UNL     1      47.966   3.874   5.713  0.00  0.00    +0.000 HD
ENDBRANCH  18  27
ENDBRANCH  17  22
ENDBRANCH   1  17
TORSDOF 5
ENDMDL
MODEL 9
REMARK VINA RESULT:    -7.393      4.220      7.666
REMARK INTER + INTRA:         -10.714
REMARK INTER:                  -9.413
REMARK INTRA:                  -1.301
REMARK UNBOUND:                -1.160
REMARK  Name = 
REMARK  5 active torsions:
REMARK  status: ('A' for Active; 'I' for Inactive)
REMARK    1  A    between atoms: C_2  and  C_4
REMARK    2  A    between atoms: N_8  and  C_9
REMARK    3  A    between atoms: C_9  and  C_10
REMARK    4  A    between atoms: C_10  and  C_13
REMARK    5  A    between atoms: C_17  and  C_18
REMARK                            x       y       z     vdW  Elec       q    Type
REMARK                         _______ _______ _______ _____ _____    ______ ____
ROOT
ATOM      1  C   UNL     1      48.499   8.939  12.413  0.00  0.00    +0.000 C 
ATOM      2  F   UNL     1      48.580   9.804  13.466  0.00  0.00    +0.000 F 
ATOM      3  F   UNL     1      49.061   9.595  11.356  0.00  0.00    +0.000 F 
ENDROOT
BRANCH   1   4
ATOM      4  C   UNL     1      47.071   8.506  12.135  0.00  0.00    +0.000 A 
ATOM      5  C   UNL     1      46.025   9.435  12.145  0.00  0.00    +0.000 A 
ATOM      6  C   UNL     1      44.740   9.043  11.782  0.00  0.00    +0.000 A 
ATOM      7  C   UNL     1      44.496   7.726  11.381  0.00  0.00    +0.000 A 
ATOM      8  C   UNL     1      45.526   6.772  11.319  0.00  0.00    +0.000 A 
ATOM      9  C   UNL     1      46.805   7.181  11.740  0.00  0.00    +0.000 A 
BRANCH   8  10
ATOM     10  C   UNL     1      45.311   5.429  10.730  0.00  0.00    +0.000 A 
ATOM     11  C   UNL     1      44.738   4.392  11.494  0.00  0.00    +0.000 A 
ATOM     12  C   UNL     1      44.419   3.155  10.930  0.00  0.00    +0.000 A 
ATOM     13  C   UNL     1      44.665   2.937   9.584  0.00  0.00    +0.000 A 
ATOM     14  F   UNL     1      44.324   1.766   9.031  0.00  0.00    +0.000 F 
ATOM     15  C   UNL     1      45.249   3.922   8.801  0.00  0.00    +0.000 A 
ATOM     16  C   UNL     1      45.581   5.156   9.373  0.00  0.00    +0.000 A 
ENDBRANCH   8  10
ENDBRANCH   1   4
BRANCH   1  17
ATOM     17  C   UNL     1      49.341   7.678  12.731  0.00  0.00    +0.000 C 
BRANCH  17  22
ATOM     18  C   UNL     1      47.893   4.738  16.670  0.00  0.00    +0.000 A 
ATOM     19  C   UNL     1      47.394   4.853  15.378  0.00  0.00    +0.000 A 
ATOM     20  C   UNL     1      47.975   5.780  14.515  0.00  0.00    +0.000 A 
ATOM     21  C   UNL     1      49.037   6.572  14.946  0.00  0.00    +0.000 A 
ATOM     22  N   UNL     1      49.659   7.490  14.141  0.00  0.00    +0.000 N 
ATOM     23  N   UNL     1      49.509   6.481  16.203  0.00  0.00    +0.000 NA
ATOM     24  C   UNL     1      48.925   5.583  17.043  0.00  0.00    +0.000 A 
ATOM     25  H   UNL     1      50.434   7.986  14.566  0.00  0.00    +0.000 HD
BRANCH  18  27
ATOM     26  N   UNL     1      47.857   3.808  18.911  0.00  0.00    +0.000 N 
ATOM     27  C   UNL     1      47.350   3.767  17.641  0.00  0.00    +0.000 C 
ATOM     28  O   UNL     1      46.459   2.985  17.336  0.00  0.00    +0.000 OA
ATOM     29  H   UNL     1      47.406   3.213  19.595  0.00  0.00    +0.000 HD
ATOM     30  H   UNL     1      48.389   4.593  19.256  0.00  0.00    +0.000 HD
ENDBRANCH  18  27
ENDBRANCH  17  22
ENDBRANCH   1  17
TORSDOF 5
ENDMDL
