MODEL 1
REMARK VINA RESULT:    -9.230      0.000      0.000
REMARK INTER + INTRA:         -13.983
REMARK INTER:                 -12.468
REMARK INTRA:                  -1.515
REMARK UNBOUND:                -1.515
REMARK  Name = 
REMARK  7 active torsions:
REMARK  status: ('A' for Active; 'I' for Inactive)
REMARK    1  A    between atoms: C_1  and  O_2
REMARK    2  A    between atoms: O_2  and  C_3
REMARK    3  A    between atoms: C_7  and  C_8
REMARK    4  A    between atoms: C_12  and  C_13
REMARK    5  A    between atoms: C_13  and  N_14
REMARK    6  A    between atoms: N_14  and  C_15
REMARK    7  A    between atoms: C_18  and  C_19
REMARK                            x       y       z     vdW  Elec       q    Type
REMARK                         _______ _______ _______ _____ _____    ______ ____
ROOT
ATOM      1  C   UNL     1      43.804   4.892  11.480  0.00  0.00    +0.000 C 
ATOM      2  C   UNL     1      42.403   5.544  11.702  0.00  0.00    +0.000 C 
ATOM      3  C   UNL     1      42.948   4.766  12.775  0.00  0.00    +0.000 C 
ENDROOT
BRANCH   1   8
ATOM      4  C   UNL     1      47.034   6.673  12.397  0.00  0.00    +0.000 A 
ATOM      5  C   UNL     1      47.553   5.815  13.373  0.00  0.00    +0.000 A 
ATOM      6  C   UNL     1      46.946   4.586  13.635  0.00  0.00    +0.000 A 
ATOM      7  C   UNL     1      45.768   4.248  12.971  0.00  0.00    +0.000 A 
ATOM      8  C   UNL     1      45.214   5.099  11.997  0.00  0.00    +0.000 A 
ATOM      9  C   UNL     1      45.928   6.241  11.656  0.00  0.00    +0.000 A 
BRANCH   4  14
ATOM     10  C   UNL     1      49.161   9.637  11.456  0.00  0.00    +0.000 A 
ATOM     11  C   UNL     1      48.191  10.627  11.537  0.00  0.00    +0.000 A 
ATOM     12  N   UNL     1      46.914  10.407  11.931  0.00  0.00    +0.000 NA
ATOM     13  C   UNL     1      46.583   9.132  12.244  0.00  0.00    +0.000 A 
ATOM     14  C   UNL     1      47.472   8.061  12.215  0.00  0.00    +0.000 A 
ATOM     15  C   UNL     1      48.790   8.350  11.822  0.00  0.00    +0.000 A 
BRANCH  10  17
ATOM     16  C   UNL     1      51.409   9.001  11.036  0.00  0.00    +0.000 C 
ATOM     17  O   UNL     1      50.398  10.007  11.007  0.00  0.00    +0.000 OA
ENDBRANCH  10  17
ENDBRANCH   4  14
ENDBRANCH   1   8
BRANCH   1  18
ATOM     18  N   UNL     1      43.819   4.781  10.029  0.00  0.00    +0.000 N 
ATOM     19  H   UNL     1      43.226   5.423   9.512  0.00  0.00    +0.000 HD
BRANCH  18  20
ATOM     20  C   UNL     1      44.635   3.974   9.246  0.00  0.00    +0.000 A 
ATOM     21  C   UNL     1      45.573   4.507   8.368  0.00  0.00    +0.000 A 
ATOM     22  C   UNL     1      46.426   3.673   7.657  0.00  0.00    +0.000 A 
ATOM     23  C   UNL     1      46.384   2.289   7.860  0.00  0.00    +0.000 A 
ATOM     24  C   UNL     1      45.458   1.736   8.746  0.00  0.00    +0.000 A 
ATOM     25  C   UNL     1      44.588   2.581   9.432  0.00  0.00    +0.000 A 
BRANCH  23  26
ATOM     26  C   UNL     1      47.340   1.445   7.093  0.00  0.00    +0.000 C 
ATOM     27  N   UNL     1      48.401   2.068   6.503  0.00  0.00    +0.000 N 
ATOM     28  O   UNL     1      47.148   0.267   6.934  0.00  0.00    +0.000 OA
ATOM     29  H   UNL     1      48.450   3.071   6.386  0.00  0.00    +0.000 HD
ATOM     30  H   UNL     1      48.955   1.490   5.888  0.00  0.00    +0.000 HD
ENDBRANCH  23  26
ENDBRANCH  18  20
ENDBRANCH   1  18
TORSDOF 6
ENDMDL
MODEL 2
REMARK VINA RESULT:    -8.967      2.841      4.157
REMARK INTER + INTRA:         -13.627
REMARK INTER:                 -12.346
REMARK INTRA:                  -1.281
REMARK UNBOUND:                -1.515
REMARK  Name = 
REMARK  7 active torsions:
REMARK  status: ('A' for Active; 'I' for Inactive)
REMARK    1  A    between atoms: C_1  and  O_2
REMARK    2  A    between atoms: O_2  and  C_3
REMARK    3  A    between atoms: C_7  and  C_8
REMARK    4  A    between atoms: C_12  and  C_13
REMARK    5  A    between atoms: C_13  and  N_14
REMARK    6  A    between atoms: N_14  and  C_15
REMARK    7  A    between atoms: C_18  and  C_19
REMARK                            x       y       z     vdW  Elec       q    Type
REMARK                         _______ _______ _______ _____ _____    ______ ____
ROOT
ATOM      1  C   UNL     1      43.985   5.223  11.433  0.00  0.00    +0.000 C 
ATOM      2  C   UNL     1      42.447   5.429  11.608  0.00  0.00    +0.000 C 
ATOM      3  C   UNL     1      43.173   4.891  12.720  0.00  0.00    +0.000 C 
ENDROOT
BRANCH   1   8
ATOM      4  C   UNL     1      47.045   5.792  13.615  0.00  0.00    +0.000 A 
ATOM      5  C   UNL     1      47.857   6.544  12.758  0.00  0.00    +0.000 A 
ATOM      6  C   UNL     1      47.368   6.999  11.533  0.00  0.00    +0.000 A 
ATOM      7  C   UNL     1      46.085   6.633  11.128  0.00  0.00    +0.000 A 
ATOM      8  C   UNL     1      45.252   5.865  11.961  0.00  0.00    +0.000 A 
ATOM      9  C   UNL     1      45.718   5.560  13.235  0.00  0.00    +0.000 A 
BRANCH   4  14
ATOM     10  C   UNL     1      48.625   5.184  16.981  0.00  0.00    +0.000 A 
ATOM     11  C   UNL     1      48.172   3.889  17.195  0.00  0.00    +0.000 A 
ATOM     12  N   UNL     1      47.441   3.183  16.299  0.00  0.00    +0.000 NA
ATOM     13  C   UNL     1      47.132   3.806  15.139  0.00  0.00    +0.000 A 
ATOM     14  C   UNL     1      47.542   5.094  14.806  0.00  0.00    +0.000 A 
ATOM     15  C   UNL     1      48.317   5.772  15.761  0.00  0.00    +0.000 A 
BRANCH  10  17
ATOM     16  C   UNL     1      49.593   4.969  19.137  0.00  0.00    +0.000 C 
ATOM     17  O   UNL     1      49.322   5.780  17.995  0.00  0.00    +0.000 OA
ENDBRANCH  10  17
ENDBRANCH   4  14
ENDBRANCH   1   8
BRANCH   1  18
ATOM     18  N   UNL     1      44.071   5.071   9.989  0.00  0.00    +0.000 N 
ATOM     19  H   UNL     1      43.665   5.811   9.422  0.00  0.00    +0.000 HD
BRANCH  18  20
ATOM     20  C   UNL     1      44.742   4.086   9.275  0.00  0.00    +0.000 A 
ATOM     21  C   UNL     1      45.699   4.397   8.314  0.00  0.00    +0.000 A 
ATOM     22  C   UNL     1      46.408   3.388   7.674  0.00  0.00    +0.000 A 
ATOM     23  C   UNL     1      46.202   2.050   8.031  0.00  0.00    +0.000 A 
ATOM     24  C   UNL     1      45.254   1.720   9.002  0.00  0.00    +0.000 A 
ATOM     25  C   UNL     1      44.529   2.739   9.616  0.00  0.00    +0.000 A 
BRANCH  23  26
ATOM     26  C   UNL     1      47.008   1.013   7.334  0.00  0.00    +0.000 C 
ATOM     27  N   UNL     1      46.764  -0.293   7.645  0.00  0.00    +0.000 N 
ATOM     28  O   UNL     1      47.895   1.313   6.576  0.00  0.00    +0.000 OA
ATOM     29  H   UNL     1      46.228  -0.571   8.456  0.00  0.00    +0.000 HD
ATOM     30  H   UNL     1      47.412  -0.960   7.251  0.00  0.00    +0.000 HD
ENDBRANCH  23  26
ENDBRANCH  18  20
ENDBRANCH   1  18
TORSDOF 6
ENDMDL
MODEL 3
REMARK VINA RESULT:    -8.386      1.377      1.784
REMARK INTER + INTRA:         -12.842
REMARK INTER:                 -11.452
REMARK INTRA:                  -1.390
REMARK UNBOUND:                -1.515
REMARK  Name = 
REMARK  7 active torsions:
REMARK  status: ('A' for Active; 'I' for Inactive)
REMARK    1  A    between atoms: C_1  and  O_2
REMARK    2  A    between atoms: O_2  and  C_3
REMARK    3  A    between atoms: C_7  and  C_8
REMARK    4  A    between atoms: C_12  and  C_13
REMARK    5  A    between atoms: C_13  and  N_14
REMARK    6  A    between atoms: N_14  and  C_15
REMARK    7  A    between atoms: C_18  and  C_19
REMARK                            x       y       z     vdW  Elec       q    Type
REMARK                         _______ _______ _______ _____ _____    ______ ____
ROOT
ATOM      1  C   UNL     1      43.678   4.877  11.443  0.00  0.00    +0.000 C 
ATOM      2  C   UNL     1      42.513   5.912  11.534  0.00  0.00    +0.000 C 
ATOM      3  C   UNL     1      42.758   5.089  12.682  0.00  0.00    +0.000 C 
ENDROOT
BRANCH   1   8
ATOM      4  C   UNL     1      47.065   5.817  12.888  0.00  0.00    +0.000 A 
ATOM      5  C   UNL     1      47.373   4.672  13.633  0.00  0.00    +0.000 A 
ATOM      6  C   UNL     1      46.568   3.535  13.555  0.00  0.00    +0.000 A 
ATOM      7  C   UNL     1      45.404   3.571  12.788  0.00  0.00    +0.000 A 
ATOM      8  C   UNL     1      45.060   4.714  12.043  0.00  0.00    +0.000 A 
ATOM      9  C   UNL     1      45.965   5.769  12.025  0.00  0.00    +0.000 A 
BRANCH   4  14
ATOM     10  C   UNL     1      49.465   8.439  14.136  0.00  0.00    +0.000 A 
ATOM     11  C   UNL     1      49.200   9.430  13.199  0.00  0.00    +0.000 A 
ATOM     12  N   UNL     1      48.257   9.327  12.232  0.00  0.00    +0.000 NA
ATOM     13  C   UNL     1      47.557   8.170  12.185  0.00  0.00    +0.000 A 
ATOM     14  C   UNL     1      47.724   7.114  13.077  0.00  0.00    +0.000 A 
ATOM     15  C   UNL     1      48.698   7.284  14.074  0.00  0.00    +0.000 A 
BRANCH  10  17
ATOM     16  C   UNL     1      51.797   8.685  14.501  0.00  0.00    +0.000 C 
ATOM     17  O   UNL     1      50.473   8.676  15.030  0.00  0.00    +0.000 OA
ENDBRANCH  10  17
ENDBRANCH   4  14
ENDBRANCH   1   8
BRANCH   1  18
ATOM     18  N   UNL     1      43.733   4.665  10.004  0.00  0.00    +0.000 N 
ATOM     19  H   UNL     1      43.087   5.203   9.434  0.00  0.00    +0.000 HD
BRANCH  18  20
ATOM     20  C   UNL     1      44.642   3.893   9.293  0.00  0.00    +0.000 A 
ATOM     21  C   UNL     1      44.586   2.503   9.294  0.00  0.00    +0.000 A 
ATOM     22  C   UNL     1      45.462   1.762   8.510  0.00  0.00    +0.000 A 
ATOM     23  C   UNL     1      46.374   2.412   7.671  0.00  0.00    +0.000 A 
ATOM     24  C   UNL     1      46.436   3.806   7.647  0.00  0.00    +0.000 A 
ATOM     25  C   UNL     1      45.573   4.538   8.459  0.00  0.00    +0.000 A 
BRANCH  23  26
ATOM     26  C   UNL     1      47.268   1.570   6.832  0.00  0.00    +0.000 C 
ATOM     27  N   UNL     1      48.270   2.196   6.149  0.00  0.00    +0.000 N 
ATOM     28  O   UNL     1      47.075   0.389   6.700  0.00  0.00    +0.000 OA
ATOM     29  H   UNL     1      48.300   3.199   6.021  0.00  0.00    +0.000 HD
ATOM     30  H   UNL     1      48.775   1.617   5.494  0.00  0.00    +0.000 HD
ENDBRANCH  23  26
ENDBRANCH  18  20
ENDBRANCH   1  18
TORSDOF 6
ENDMDL
MODEL 4
REMARK VINA RESULT:    -7.927      1.973      2.829
REMARK INTER + INTRA:         -12.223
REMARK INTER:                 -10.920
REMARK INTRA:                  -1.302
REMARK UNBOUND:                -1.515
REMARK  Name = 
REMARK  7 active torsions:
REMARK  status: ('A' for Active; 'I' for Inactive)
REMARK    1  A    between atoms: C_1  and  O_2
REMARK    2  A    between atoms: O_2  and  C_3
REMARK    3  A    between atoms: C_7  and  C_8
REMARK    4  A    between atoms: C_12  and  C_13
REMARK    5  A    between atoms: C_13  and  N_14
REMARK    6  A    between atoms: N_14  and  C_15
REMARK    7  A    between atoms: C_18  and  C_19
REMARK                            x       y       z     vdW  Elec       q    Type
REMARK                         _______ _______ _______ _____ _____    ______ ____
ROOT
ATOM      1  C   UNL     1      44.370   4.664  11.755  0.00  0.00    +0.000 C 
ATOM      2  C   UNL     1      43.453   3.596  12.431  0.00  0.00    +0.000 C 
ATOM      3  C   UNL     1      44.627   4.006  13.144  0.00  0.00    +0.000 C 
ENDROOT
BRANCH   1   8
ATOM      4  C   UNL     1      46.417   7.745  12.631  0.00  0.00    +0.000 A 
ATOM      5  C   UNL     1      45.728   8.740  11.930  0.00  0.00    +0.000 A 
ATOM      6  C   UNL     1      44.518   8.456  11.295  0.00  0.00    +0.000 A 
ATOM      7  C   UNL     1      44.035   7.148  11.296  0.00  0.00    +0.000 A 
ATOM      8  C   UNL     1      44.715   6.123  11.978  0.00  0.00    +0.000 A 
ATOM      9  C   UNL     1      45.833   6.476  12.725  0.00  0.00    +0.000 A 
BRANCH   4  14
ATOM     10  C   UNL     1      49.550   7.188  14.648  0.00  0.00    +0.000 A 
ATOM     11  C   UNL     1      50.436   7.916  13.866  0.00  0.00    +0.000 A 
ATOM     12  N   UNL     1      50.076   8.621  12.767  0.00  0.00    +0.000 NA
ATOM     13  C   UNL     1      48.769   8.582  12.420  0.00  0.00    +0.000 A 
ATOM     14  C   UNL     1      47.787   7.900  13.133  0.00  0.00    +0.000 A 
ATOM     15  C   UNL     1      48.212   7.206  14.278  0.00  0.00    +0.000 A 
BRANCH  10  17
ATOM     16  C   UNL     1      49.129   5.916  16.607  0.00  0.00    +0.000 C 
ATOM     17  O   UNL     1      50.071   6.499  15.708  0.00  0.00    +0.000 OA
ENDBRANCH  10  17
ENDBRANCH   4  14
ENDBRANCH   1   8
BRANCH   1  18
ATOM     18  N   UNL     1      44.055   4.437  10.353  0.00  0.00    +0.000 N 
ATOM     19  H   UNL     1      43.161   4.786  10.020  0.00  0.00    +0.000 HD
BRANCH  18  20
ATOM     20  C   UNL     1      44.877   3.895   9.374  0.00  0.00    +0.000 A 
ATOM     21  C   UNL     1      45.667   4.693   8.553  0.00  0.00    +0.000 A 
ATOM     22  C   UNL     1      46.537   4.116   7.635  0.00  0.00    +0.000 A 
ATOM     23  C   UNL     1      46.663   2.723   7.568  0.00  0.00    +0.000 A 
ATOM     24  C   UNL     1      45.886   1.907   8.392  0.00  0.00    +0.000 A 
ATOM     25  C   UNL     1      44.998   2.497   9.288  0.00  0.00    +0.000 A 
BRANCH  23  26
ATOM     26  C   UNL     1      47.629   2.160   6.587  0.00  0.00    +0.000 C 
ATOM     27  N   UNL     1      47.891   2.892   5.466  0.00  0.00    +0.000 N 
ATOM     28  O   UNL     1      48.108   1.066   6.737  0.00  0.00    +0.000 OA
ATOM     29  H   UNL     1      47.318   3.674   5.176  0.00  0.00    +0.000 HD
ATOM     30  H   UNL     1      48.449   2.426   4.765  0.00  0.00    +0.000 HD
ENDBRANCH  23  26
ENDBRANCH  18  20
ENDBRANCH   1  18
TORSDOF 6
ENDMDL
MODEL 5
REMARK VINA RESULT:    -7.847      1.569      2.153
REMARK INTER + INTRA:         -12.115
REMARK INTER:                 -10.756
REMARK INTRA:                  -1.360
REMARK UNBOUND:                -1.515
REMARK  Name = 
REMARK  7 active torsions:
REMARK  status: ('A' for Active; 'I' for Inactive)
REMARK    1  A    between atoms: C_1  and  O_2
REMARK    2  A    between atoms: O_2  and  C_3
REMARK    3  A    between atoms: C_7  and  C_8
REMARK    4  A    between atoms: C_12  and  C_13
REMARK    5  A    between atoms: C_13  and  N_14
REMARK    6  A    between atoms: N_14  and  C_15
REMARK    7  A    between atoms: C_18  and  C_19
REMARK                            x       y       z     vdW  Elec       q    Type
REMARK                         _______ _______ _______ _____ _____    ______ ____
ROOT
ATOM      1  C   UNL     1      44.352   4.439  11.772  0.00  0.00    +0.000 C 
ATOM      2  C   UNL     1      43.403   3.414  12.469  0.00  0.00    +0.000 C 
ATOM      3  C   UNL     1      44.604   3.780  13.161  0.00  0.00    +0.000 C 
ENDROOT
BRANCH   1   8
ATOM      4  C   UNL     1      46.576   7.452  12.423  0.00  0.00    +0.000 A 
ATOM      5  C   UNL     1      45.818   8.481  11.851  0.00  0.00    +0.000 A 
ATOM      6  C   UNL     1      44.524   8.238  11.388  0.00  0.00    +0.000 A 
ATOM      7  C   UNL     1      44.015   6.941  11.425  0.00  0.00    +0.000 A 
ATOM      8  C   UNL     1      44.760   5.884  11.979  0.00  0.00    +0.000 A 
ATOM      9  C   UNL     1      45.980   6.193  12.567  0.00  0.00    +0.000 A 
BRANCH   4  14
ATOM     10  C   UNL     1      50.259   8.130  12.009  0.00  0.00    +0.000 A 
ATOM     11  C   UNL     1      50.625   8.124  13.349  0.00  0.00    +0.000 A 
ATOM     12  N   UNL     1      49.774   7.858  14.367  0.00  0.00    +0.000 NA
ATOM     13  C   UNL     1      48.487   7.602  14.035  0.00  0.00    +0.000 A 
ATOM     14  C   UNL     1      48.006   7.565  12.729  0.00  0.00    +0.000 A 
ATOM     15  C   UNL     1      48.938   7.826  11.710  0.00  0.00    +0.000 A 
BRANCH  10  17
ATOM     16  C   UNL     1      51.687   7.391  10.264  0.00  0.00    +0.000 C 
ATOM     17  O   UNL     1      51.224   8.452  11.096  0.00  0.00    +0.000 OA
ENDBRANCH  10  17
ENDBRANCH   4  14
ENDBRANCH   1   8
BRANCH   1  18
ATOM     18  N   UNL     1      44.005   4.216  10.377  0.00  0.00    +0.000 N 
ATOM     19  H   UNL     1      43.089   4.533  10.073  0.00  0.00    +0.000 HD
BRANCH  18  20
ATOM     20  C   UNL     1      44.820   3.719   9.367  0.00  0.00    +0.000 A 
ATOM     21  C   UNL     1      45.608   4.553   8.580  0.00  0.00    +0.000 A 
ATOM     22  C   UNL     1      46.470   4.019   7.631  0.00  0.00    +0.000 A 
ATOM     23  C   UNL     1      46.591   2.631   7.496  0.00  0.00    +0.000 A 
ATOM     24  C   UNL     1      45.817   1.778   8.285  0.00  0.00    +0.000 A 
ATOM     25  C   UNL     1      44.936   2.327   9.213  0.00  0.00    +0.000 A 
BRANCH  23  26
ATOM     26  C   UNL     1      47.549   2.113   6.483  0.00  0.00    +0.000 C 
ATOM     27  N   UNL     1      47.796   2.890   5.389  0.00  0.00    +0.000 N 
ATOM     28  O   UNL     1      48.036   1.016   6.584  0.00  0.00    +0.000 OA
ATOM     29  H   UNL     1      47.216   3.679   5.137  0.00  0.00    +0.000 HD
ATOM     30  H   UNL     1      48.349   2.455   4.665  0.00  0.00    +0.000 HD
ENDBRANCH  23  26
ENDBRANCH  18  20
ENDBRANCH   1  18
TORSDOF 6
ENDMDL
MODEL 6
REMARK VINA RESULT:    -7.750      2.649      3.637
REMARK INTER + INTRA:         -11.984
REMARK INTER:                 -10.593
REMARK INTRA:                  -1.391
REMARK UNBOUND:                -1.515
REMARK  Name = 
REMARK  7 active torsions:
REMARK  status: ('A' for Active; 'I' for Inactive)
REMARK    1  A    between atoms: C_1  and  O_2
REMARK    2  A    between atoms: O_2  and  C_3
REMARK    3  A    between atoms: C_7  and  C_8
REMARK    4  A    between atoms: C_12  and  C_13
REMARK    5  A    between atoms: C_13  and  N_14
REMARK    6  A    between atoms: N_14  and  C_15
REMARK    7  A    between atoms: C_18  and  C_19
REMARK                            x       y       z     vdW  Elec       q    Type
REMARK                         _______ _______ _______ _____ _____    ______ ____
ROOT
ATOM      1  C   UNL     1      44.606   4.217  11.775  0.00  0.00    +0.000 C 
ATOM      2  C   UNL     1      43.391   3.530  12.474  0.00  0.00    +0.000 C 
ATOM      3  C   UNL     1      44.654   3.487  13.150  0.00  0.00    +0.000 C 
ENDROOT
BRANCH   1   8
ATOM      4  C   UNL     1      45.565   7.892  11.927  0.00  0.00    +0.000 A 
ATOM      5  C   UNL     1      46.625   7.861  12.841  0.00  0.00    +0.000 A 
ATOM      6  C   UNL     1      47.135   6.646  13.297  0.00  0.00    +0.000 A 
ATOM      7  C   UNL     1      46.529   5.455  12.899  0.00  0.00    +0.000 A 
ATOM      8  C   UNL     1      45.452   5.456  11.995  0.00  0.00    +0.000 A 
ATOM      9  C   UNL     1      45.072   6.674  11.445  0.00  0.00    +0.000 A 
BRANCH   4  14
ATOM     10  C   UNL     1      42.768  10.170  10.839  0.00  0.00    +0.000 A 
ATOM     11  C   UNL     1      43.321  11.383  11.228  0.00  0.00    +0.000 A 
ATOM     12  N   UNL     1      44.558  11.516  11.761  0.00  0.00    +0.000 NA
ATOM     13  C   UNL     1      45.274  10.380  11.933  0.00  0.00    +0.000 A 
ATOM     14  C   UNL     1      44.831   9.111  11.570  0.00  0.00    +0.000 A 
ATOM     15  C   UNL     1      43.550   9.034  10.999  0.00  0.00    +0.000 A 
BRANCH  10  17
ATOM     16  C   UNL     1      40.443  10.125  11.313  0.00  0.00    +0.000 C 
ATOM     17  O   UNL     1      41.492  10.191  10.349  0.00  0.00    +0.000 OA
ENDBRANCH  10  17
ENDBRANCH   4  14
ENDBRANCH   1   8
BRANCH   1  18
ATOM     18  N   UNL     1      44.191   4.141  10.383  0.00  0.00    +0.000 N 
ATOM     19  H   UNL     1      43.269   4.504  10.156  0.00  0.00    +0.000 HD
BRANCH  18  20
ATOM     20  C   UNL     1      44.945   3.729   9.291  0.00  0.00    +0.000 A 
ATOM     21  C   UNL     1      45.554   4.639   8.433  0.00  0.00    +0.000 A 
ATOM     22  C   UNL     1      46.366   4.196   7.396  0.00  0.00    +0.000 A 
ATOM     23  C   UNL     1      46.620   2.829   7.240  0.00  0.00    +0.000 A 
ATOM     24  C   UNL     1      46.027   1.901   8.099  0.00  0.00    +0.000 A 
ATOM     25  C   UNL     1      45.193   2.356   9.117  0.00  0.00    +0.000 A 
BRANCH  23  26
ATOM     26  C   UNL     1      47.519   2.412   6.131  0.00  0.00    +0.000 C 
ATOM     27  N   UNL     1      48.765   1.963   6.461  0.00  0.00    +0.000 N 
ATOM     28  O   UNL     1      47.190   2.533   4.979  0.00  0.00    +0.000 OA
ATOM     29  H   UNL     1      49.169   2.098   7.378  0.00  0.00    +0.000 HD
ATOM     30  H   UNL     1      49.390   1.811   5.682  0.00  0.00    +0.000 HD
ENDBRANCH  23  26
ENDBRANCH  18  20
ENDBRANCH   1  18
TORSDOF 6
ENDMDL
MODEL 7
REMARK VINA RESULT:    -7.557      3.216      7.034
REMARK INTER + INTRA:         -11.723
REMARK INTER:                 -10.878
REMARK INTRA:                  -0.846
REMARK UNBOUND:                -1.515
REMARK  Name = 
REMARK  7 active torsions:
REMARK  status: ('A' for Active; 'I' for Inactive)
REMARK    1  A    between atoms: C_1  and  O_2
REMARK    2  A    between atoms: O_2  and  C_3
REMARK    3  A    between atoms: C_7  and  C_8
REMARK    4  A    between atoms: C_12  and  C_13
REMARK    5  A    between atoms: C_13  and  N_14
REMARK    6  A    between atoms: N_14  and  C_15
REMARK    7  A    between atoms: C_18  and  C_19
REMARK                            x       y       z     vdW  Elec       q    Type
REMARK                         _______ _______ _______ _____ _____    ______ ____
ROOT
ATOM      1  C   UNL     1      45.956   7.446  12.158  0.00  0.00    +0.000 C 
ATOM      2  C   UNL     1      46.017   8.671  13.123  0.00  0.00    +0.000 C 
ATOM      3  C   UNL     1      45.287   8.828  11.900  0.00  0.00    +0.000 C 
ENDROOT
BRANCH   1   8
ATOM      4  C   UNL     1      44.400   4.509  10.312  0.00  0.00    +0.000 A 
ATOM      5  C   UNL     1      43.318   4.203  11.147  0.00  0.00    +0.000 A 
ATOM      6  C   UNL     1      42.995   5.030  12.223  0.00  0.00    +0.000 A 
ATOM      7  C   UNL     1      43.806   6.125  12.514  0.00  0.00    +0.000 A 
ATOM      8  C   UNL     1      44.909   6.448  11.704  0.00  0.00    +0.000 A 
ATOM      9  C   UNL     1      45.109   5.692  10.555  0.00  0.00    +0.000 A 
BRANCH   4  14
ATOM     10  C   UNL     1      46.215   3.239   7.266  0.00  0.00    +0.000 A 
ATOM     11  C   UNL     1      46.256   1.890   7.593  0.00  0.00    +0.000 A 
ATOM     12  N   UNL     1      45.685   1.360   8.700  0.00  0.00    +0.000 NA
ATOM     13  C   UNL     1      45.058   2.221   9.534  0.00  0.00    +0.000 A 
ATOM     14  C   UNL     1      44.939   3.589   9.305  0.00  0.00    +0.000 A 
ATOM     15  C   UNL     1      45.529   4.082   8.129  0.00  0.00    +0.000 A 
BRANCH  10  17
ATOM     16  C   UNL     1      47.551   2.603   5.410  0.00  0.00    +0.000 C 
ATOM     17  O   UNL     1      46.869   3.628   6.130  0.00  0.00    +0.000 OA
ENDBRANCH  10  17
ENDBRANCH   4  14
ENDBRANCH   1   8
BRANCH   1  18
ATOM     18  N   UNL     1      47.175   6.748  12.536  0.00  0.00    +0.000 N 
ATOM     19  H   UNL     1      48.017   6.972  12.013  0.00  0.00    +0.000 HD
BRANCH  18  20
ATOM     20  C   UNL     1      47.363   5.884  13.608  0.00  0.00    +0.000 A 
ATOM     21  C   UNL     1      47.989   6.292  14.781  0.00  0.00    +0.000 A 
ATOM     22  C   UNL     1      48.092   5.427  15.863  0.00  0.00    +0.000 A 
ATOM     23  C   UNL     1      47.518   4.152  15.799  0.00  0.00    +0.000 A 
ATOM     24  C   UNL     1      46.876   3.729  14.634  0.00  0.00    +0.000 A 
ATOM     25  C   UNL     1      46.804   4.596  13.546  0.00  0.00    +0.000 A 
BRANCH  23  26
ATOM     26  C   UNL     1      47.634   3.277  16.996  0.00  0.00    +0.000 C 
ATOM     27  N   UNL     1      48.888   2.949  17.421  0.00  0.00    +0.000 N 
ATOM     28  O   UNL     1      46.659   2.813  17.530  0.00  0.00    +0.000 OA
ATOM     29  H   UNL     1      49.713   3.092  16.853  0.00  0.00    +0.000 HD
ATOM     30  H   UNL     1      48.929   2.254  18.153  0.00  0.00    +0.000 HD
ENDBRANCH  23  26
ENDBRANCH  18  20
ENDBRANCH   1  18
TORSDOF 6
ENDMDL
MODEL 8
REMARK VINA RESULT:    -7.297      3.480      7.508
REMARK INTER + INTRA:         -11.371
REMARK INTER:                 -10.049
REMARK INTRA:                  -1.323
REMARK UNBOUND:                -1.515
REMARK  Name = 
REMARK  7 active torsions:
REMARK  status: ('A' for Active; 'I' for Inactive)
REMARK    1  A    between atoms: C_1  and  O_2
REMARK    2  A    between atoms: O_2  and  C_3
REMARK    3  A    between atoms: C_7  and  C_8
REMARK    4  A    between atoms: C_12  and  C_13
REMARK    5  A    between atoms: C_13  and  N_14
REMARK    6  A    between atoms: N_14  and  C_15
REMARK    7  A    between atoms: C_18  and  C_19
REMARK                            x       y       z     vdW  Elec       q    Type
REMARK                         _______ _______ _______ _____ _____    ______ ____
ROOT
ATOM      1  C   UNL     1      48.648   7.547  12.693  0.00  0.00    +0.000 C 
ATOM      2  C   UNL     1      49.994   8.289  12.422  0.00  0.00    +0.000 C 
ATOM      3  C   UNL     1      49.527   7.380  11.418  0.00  0.00    +0.000 C 
ENDROOT
BRANCH   1   8
ATOM      4  C   UNL     1      45.431   6.388  11.031  0.00  0.00    +0.000 A 
ATOM      5  C   UNL     1      44.502   7.278  11.582  0.00  0.00    +0.000 A 
ATOM      6  C   UNL     1      44.924   8.349  12.371  0.00  0.00    +0.000 A 
ATOM      7  C   UNL     1      46.277   8.483  12.677  0.00  0.00    +0.000 A 
ATOM      8  C   UNL     1      47.232   7.593  12.152  0.00  0.00    +0.000 A 
ATOM      9  C   UNL     1      46.792   6.634  11.249  0.00  0.00    +0.000 A 
BRANCH   4  14
ATOM     10  C   UNL     1      45.440   3.498   8.614  0.00  0.00    +0.000 A 
ATOM     11  C   UNL     1      44.652   2.615   9.340  0.00  0.00    +0.000 A 
ATOM     12  N   UNL     1      44.072   2.913  10.526  0.00  0.00    +0.000 NA
ATOM     13  C   UNL     1      44.306   4.150  11.024  0.00  0.00    +0.000 A 
ATOM     14  C   UNL     1      45.065   5.125  10.382  0.00  0.00    +0.000 A 
ATOM     15  C   UNL     1      45.623   4.769   9.143  0.00  0.00    +0.000 A 
BRANCH  10  17
ATOM     16  C   UNL     1      46.695   1.804   7.525  0.00  0.00    +0.000 C 
ATOM     17  O   UNL     1      45.986   3.039   7.448  0.00  0.00    +0.000 OA
ENDBRANCH  10  17
ENDBRANCH   4  14
ENDBRANCH   1   8
BRANCH   1  18
ATOM     18  N   UNL     1      48.623   7.562  14.148  0.00  0.00    +0.000 N 
ATOM     19  H   UNL     1      48.676   8.470  14.601  0.00  0.00    +0.000 HD
BRANCH  18  20
ATOM     20  C   UNL     1      48.424   6.487  15.006  0.00  0.00    +0.000 A 
ATOM     21  C   UNL     1      48.995   6.443  16.273  0.00  0.00    +0.000 A 
ATOM     22  C   UNL     1      48.713   5.391  17.137  0.00  0.00    +0.000 A 
ATOM     23  C   UNL     1      47.808   4.394  16.756  0.00  0.00    +0.000 A 
ATOM     24  C   UNL     1      47.215   4.429  15.492  0.00  0.00    +0.000 A 
ATOM     25  C   UNL     1      47.528   5.473  14.625  0.00  0.00    +0.000 A 
BRANCH  23  26
ATOM     26  C   UNL     1      47.521   3.308  17.730  0.00  0.00    +0.000 C 
ATOM     27  N   UNL     1      48.387   3.148  18.772  0.00  0.00    +0.000 N 
ATOM     28  O   UNL     1      46.601   2.548  17.568  0.00  0.00    +0.000 OA
ATOM     29  H   UNL     1      49.301   3.580  18.795  0.00  0.00    +0.000 HD
ATOM     30  H   UNL     1      48.235   2.326  19.339  0.00  0.00    +0.000 HD
ENDBRANCH  23  26
ENDBRANCH  18  20
ENDBRANCH   1  18
TORSDOF 6
ENDMDL
MODEL 9
REMARK VINA RESULT:    -7.144      3.462      7.506
REMARK INTER + INTRA:         -11.165
REMARK INTER:                  -9.949
REMARK INTRA:                  -1.216
REMARK UNBOUND:                -1.515
REMARK  Name = 
REMARK  7 active torsions:
REMARK  status: ('A' for Active; 'I' for Inactive)
REMARK    1  A    between atoms: C_1  and  O_2
REMARK    2  A    between atoms: O_2  and  C_3
REMARK    3  A    between atoms: C_7  and  C_8
REMARK    4  A    between atoms: C_12  and  C_13
REMARK    5  A    between atoms: C_13  and  N_14
REMARK    6  A    between atoms: N_14  and  C_15
REMARK    7  A    between atoms: C_18  and  C_19
REMARK                            x       y       z     vdW  Elec       q    Type
REMARK                         _______ _______ _______ _____ _____    ______ ____
ROOT
ATOM      1  C   UNL     1      49.092   7.793  12.796  0.00  0.00    +0.000 C 
ATOM      2  C   UNL     1      50.458   8.494  12.515  0.00  0.00    +0.000 C 
ATOM      3  C   UNL     1      49.936   7.631  11.497  0.00  0.00    +0.000 C 
ENDROOT
BRANCH   1   8
ATOM      4  C   UNL     1      45.750   6.759  11.311  0.00  0.00    +0.000 A 
ATOM      5  C   UNL     1      44.906   7.754  11.815  0.00  0.00    +0.000 A 
ATOM      6  C   UNL     1      45.429   8.846  12.510  0.00  0.00    +0.000 A 
ATOM      7  C   UNL     1      46.797   8.900  12.770  0.00  0.00    +0.000 A 
ATOM      8  C   UNL     1      47.668   7.905  12.290  0.00  0.00    +0.000 A 
ATOM      9  C   UNL     1      47.131   6.917  11.474  0.00  0.00    +0.000 A 
BRANCH   4  14
ATOM     10  C   UNL     1      45.202   3.884   8.938  0.00  0.00    +0.000 A 
ATOM     11  C   UNL     1      44.695   2.959   9.841  0.00  0.00    +0.000 A 
ATOM     12  N   UNL     1      44.466   3.223  11.149  0.00  0.00    +0.000 NA
ATOM     13  C   UNL     1      44.774   4.468  11.582  0.00  0.00    +0.000 A 
ATOM     14  C   UNL     1      45.272   5.482  10.769  0.00  0.00    +0.000 A 
ATOM     15  C   UNL     1      45.469   5.160   9.416  0.00  0.00    +0.000 A 
BRANCH  10  17
ATOM     16  C   UNL     1      46.732   3.630   7.141  0.00  0.00    +0.000 C 
ATOM     17  O   UNL     1      45.413   3.458   7.656  0.00  0.00    +0.000 OA
ENDBRANCH  10  17
ENDBRANCH   4  14
ENDBRANCH   1   8
BRANCH   1  18
ATOM     18  N   UNL     1      49.101   7.767  14.251  0.00  0.00    +0.000 N 
ATOM     19  H   UNL     1      49.429   8.603  14.725  0.00  0.00    +0.000 HD
BRANCH  18  20
ATOM     20  C   UNL     1      48.609   6.772  15.086  0.00  0.00    +0.000 A 
ATOM     21  C   UNL     1      47.817   5.733  14.607  0.00  0.00    +0.000 A 
ATOM     22  C   UNL     1      47.406   4.712  15.454  0.00  0.00    +0.000 A 
ATOM     23  C   UNL     1      47.830   4.693  16.788  0.00  0.00    +0.000 A 
ATOM     24  C   UNL     1      48.634   5.721  17.284  0.00  0.00    +0.000 A 
ATOM     25  C   UNL     1      49.017   6.754  16.432  0.00  0.00    +0.000 A 
BRANCH  23  26
ATOM     26  C   UNL     1      47.382   3.562  17.643  0.00  0.00    +0.000 C 
ATOM     27  N   UNL     1      48.159   3.233  18.715  0.00  0.00    +0.000 N 
ATOM     28  O   UNL     1      46.410   2.909  17.361  0.00  0.00    +0.000 OA
ATOM     29  H   UNL     1      49.105   3.573  18.830  0.00  0.00    +0.000 HD
ATOM     30  H   UNL     1      47.897   2.385  19.197  0.00  0.00    +0.000 HD
ENDBRANCH  23  26
ENDBRANCH  18  20
ENDBRANCH   1  18
TORSDOF 6
ENDMDL
