MODEL 1
REMARK VINA RESULT:    -9.727      0.000      0.000
REMARK INTER + INTRA:         -12.814
REMARK INTER:                 -12.002
REMARK INTRA:                  -0.812
REMARK UNBOUND:                -0.812
REMARK  Name = 
REMARK  4 active torsions:
REMARK  status: ('A' for Active; 'I' for Inactive)
REMARK    1  A    between atoms: C_2  and  C_4
REMARK    2  A    between atoms: N_8  and  C_9
REMARK    3  A    between atoms: C_9  and  C_10
REMARK    4  A    between atoms: C_14  and  C_15
REMARK                            x       y       z     vdW  Elec       q    Type
REMARK                         _______ _______ _______ _____ _____    ______ ____
ROOT
ATOM      1  C   UNL     1      43.921   4.862  11.500  0.00  0.00    +0.000 C 
ATOM      2  C   UNL     1      42.673   5.042  12.356  0.00  0.00    +0.000 C 
ATOM      3  C   UNL     1      42.958   6.009  11.257  0.00  0.00    +0.000 C 
ENDROOT
BRANCH   1   8
ATOM      4  C   UNL     1      46.460   2.726   7.506  0.00  0.00    +0.000 A 
ATOM      5  C   UNL     1      46.026   4.041   7.642  0.00  0.00    +0.000 A 
ATOM      6  C   UNL     1      45.205   4.379   8.720  0.00  0.00    +0.000 A 
ATOM      7  C   UNL     1      44.825   3.401   9.631  0.00  0.00    +0.000 A 
ATOM      8  N   UNL     1      43.929   3.636  10.679  0.00  0.00    +0.000 N 
ATOM      9  N   UNL     1      45.227   2.117   9.497  0.00  0.00    +0.000 NA
ATOM     10  C   UNL     1      46.028   1.806   8.447  0.00  0.00    +0.000 A 
ATOM     11  H   UNL     1      43.911   2.763  11.207  0.00  0.00    +0.000 HD
BRANCH   4  13
ATOM     12  N   UNL     1      47.192   2.914   5.195  0.00  0.00    +0.000 N 
ATOM     13  C   UNL     1      47.319   2.268   6.396  0.00  0.00    +0.000 C 
ATOM     14  O   UNL     1      48.133   1.367   6.543  0.00  0.00    +0.000 OA
ATOM     15  H   UNL     1      47.854   2.656   4.475  0.00  0.00    +0.000 HD
ATOM     16  H   UNL     1      46.717   3.799   5.100  0.00  0.00    +0.000 HD
ENDBRANCH   4  13
ENDBRANCH   1   8
BRANCH   1  17
ATOM     17  C   UNL     1      45.281   5.178  12.117  0.00  0.00    +0.000 A 
ATOM     18  C   UNL     1      46.089   6.223  11.640  0.00  0.00    +0.000 A 
ATOM     19  C   UNL     1      47.277   6.572  12.281  0.00  0.00    +0.000 A 
ATOM     20  C   UNL     1      47.673   5.891  13.433  0.00  0.00    +0.000 A 
ATOM     21  C   UNL     1      46.910   4.833  13.955  0.00  0.00    +0.000 A 
ATOM     22  C   UNL     1      45.734   4.486  13.257  0.00  0.00    +0.000 A 
BRANCH  21  23
ATOM     23  C   UNL     1      47.286   4.149  15.209  0.00  0.00    +0.000 A 
ATOM     24  N   UNL     1      47.853   2.929  15.121  0.00  0.00    +0.000 NA
ATOM     25  C   UNL     1      48.256   2.365  16.271  0.00  0.00    +0.000 A 
ATOM     26  C   UNL     1      48.110   2.960  17.502  0.00  0.00    +0.000 A 
ATOM     27  C   UNL     1      47.509   4.195  17.492  0.00  0.00    +0.000 A 
ATOM     28  N   UNL     1      47.093   4.811  16.371  0.00  0.00    +0.000 NA
ENDBRANCH  21  23
ENDBRANCH   1  17
TORSDOF 4
ENDMDL
MODEL 2
REMARK VINA RESULT:    -9.083      2.066      3.498
REMARK INTER + INTRA:         -12.019
REMARK INTER:                 -10.933
REMARK INTRA:                  -1.086
REMARK UNBOUND:                -0.812
REMARK  Name = 
REMARK  4 active torsions:
REMARK  status: ('A' for Active; 'I' for Inactive)
REMARK    1  A    between atoms: C_2  and  C_4
REMARK    2  A    between atoms: N_8  and  C_9
REMARK    3  A    between atoms: C_9  and  C_10
REMARK    4  A    between atoms: C_14  and  C_15
REMARK                            x       y       z     vdW  Elec       q    Type
REMARK                         _______ _______ _______ _____ _____    ______ ____
ROOT
ATOM      1  C   UNL     1      43.814   4.919  11.331  0.00  0.00    +0.000 C 
ATOM      2  C   UNL     1      42.478   5.217  12.001  0.00  0.00    +0.000 C 
ATOM      3  C   UNL     1      43.031   6.175  11.000  0.00  0.00    +0.000 C 
ENDROOT
BRANCH   1   8
ATOM      4  C   UNL     1      46.585   2.706   7.538  0.00  0.00    +0.000 A 
ATOM      5  C   UNL     1      46.246   4.047   7.682  0.00  0.00    +0.000 A 
ATOM      6  C   UNL     1      45.344   4.418   8.682  0.00  0.00    +0.000 A 
ATOM      7  C   UNL     1      44.792   3.447   9.508  0.00  0.00    +0.000 A 
ATOM      8  N   UNL     1      43.812   3.723  10.467  0.00  0.00    +0.000 N 
ATOM      9  N   UNL     1      45.103   2.139   9.365  0.00  0.00    +0.000 NA
ATOM     10  C   UNL     1      45.984   1.796   8.392  0.00  0.00    +0.000 A 
ATOM     11  H   UNL     1      43.669   2.838  10.954  0.00  0.00    +0.000 HD
BRANCH   4  13
ATOM     12  N   UNL     1      47.783   3.043   5.450  0.00  0.00    +0.000 N 
ATOM     13  C   UNL     1      47.518   2.213   6.506  0.00  0.00    +0.000 C 
ATOM     14  O   UNL     1      48.057   1.119   6.596  0.00  0.00    +0.000 OA
ATOM     15  H   UNL     1      48.497   2.734   4.803  0.00  0.00    +0.000 HD
ATOM     16  H   UNL     1      47.553   4.025   5.458  0.00  0.00    +0.000 HD
ENDBRANCH   4  13
ENDBRANCH   1   8
BRANCH   1  17
ATOM     17  C   UNL     1      45.091   5.059  12.155  0.00  0.00    +0.000 A 
ATOM     18  C   UNL     1      45.531   4.045  13.022  0.00  0.00    +0.000 A 
ATOM     19  C   UNL     1      46.755   4.138  13.685  0.00  0.00    +0.000 A 
ATOM     20  C   UNL     1      47.579   5.246  13.476  0.00  0.00    +0.000 A 
ATOM     21  C   UNL     1      47.190   6.294  12.626  0.00  0.00    +0.000 A 
ATOM     22  C   UNL     1      45.930   6.181  12.002  0.00  0.00    +0.000 A 
BRANCH  21  23
ATOM     23  C   UNL     1      48.082   7.438  12.347  0.00  0.00    +0.000 A 
ATOM     24  N   UNL     1      49.411   7.212  12.309  0.00  0.00    +0.000 NA
ATOM     25  C   UNL     1      50.191   8.253  11.976  0.00  0.00    +0.000 A 
ATOM     26  C   UNL     1      49.706   9.507  11.690  0.00  0.00    +0.000 A 
ATOM     27  C   UNL     1      48.341   9.644  11.769  0.00  0.00    +0.000 A 
ATOM     28  N   UNL     1      47.511   8.635  12.090  0.00  0.00    +0.000 NA
ENDBRANCH  21  23
ENDBRANCH   1  17
TORSDOF 4
ENDMDL
MODEL 3
REMARK VINA RESULT:    -6.833      3.806      8.305
REMARK INTER + INTRA:          -9.242
REMARK INTER:                  -8.313
REMARK INTRA:                  -0.929
REMARK UNBOUND:                -0.812
REMARK  Name = 
REMARK  4 active torsions:
REMARK  status: ('A' for Active; 'I' for Inactive)
REMARK    1  A    between atoms: C_2  and  C_4
REMARK    2  A    between atoms: N_8  and  C_9
REMARK    3  A    between atoms: C_9  and  C_10
REMARK    4  A    between atoms: C_14  and  C_15
REMARK                            x       y       z     vdW  Elec       q    Type
REMARK                         _______ _______ _______ _____ _____    ______ ____
ROOT
ATOM      1  C   UNL     1      49.028   7.930  12.587  0.00  0.00    +0.000 C 
ATOM      2  C   UNL     1      49.976   8.122  11.409  0.00  0.00    +0.000 C 
ATOM      3  C   UNL     1      49.670   9.275  12.306  0.00  0.00    +0.000 C 
ENDROOT
BRANCH   1   8
ATOM      4  C   UNL     1      48.385   6.849  17.625  0.00  0.00    +0.000 A 
ATOM      5  C   UNL     1      48.488   8.099  17.022  0.00  0.00    +0.000 A 
ATOM      6  C   UNL     1      48.834   8.176  15.671  0.00  0.00    +0.000 A 
ATOM      7  C   UNL     1      49.080   7.012  14.954  0.00  0.00    +0.000 A 
ATOM      8  N   UNL     1      49.524   7.008  13.627  0.00  0.00    +0.000 N 
ATOM      9  N   UNL     1      48.999   5.795  15.535  0.00  0.00    +0.000 NA
ATOM     10  C   UNL     1      48.658   5.736  16.847  0.00  0.00    +0.000 A 
ATOM     11  H   UNL     1      49.538   6.024  13.360  0.00  0.00    +0.000 HD
BRANCH   4  13
ATOM     12  N   UNL     1      47.162   5.657  19.354  0.00  0.00    +0.000 N 
ATOM     13  C   UNL     1      48.039   6.663  19.048  0.00  0.00    +0.000 C 
ATOM     14  O   UNL     1      48.531   7.357  19.926  0.00  0.00    +0.000 OA
ATOM     15  H   UNL     1      47.010   5.477  20.338  0.00  0.00    +0.000 HD
ATOM     16  H   UNL     1      46.924   4.924  18.703  0.00  0.00    +0.000 HD
ENDBRANCH   4  13
ENDBRANCH   1   8
BRANCH   1  17
ATOM     17  C   UNL     1      47.537   7.766  12.304  0.00  0.00    +0.000 A 
ATOM     18  C   UNL     1      46.611   8.785  12.584  0.00  0.00    +0.000 A 
ATOM     19  C   UNL     1      45.270   8.667  12.220  0.00  0.00    +0.000 A 
ATOM     20  C   UNL     1      44.829   7.527  11.545  0.00  0.00    +0.000 A 
ATOM     21  C   UNL     1      45.706   6.473  11.243  0.00  0.00    +0.000 A 
ATOM     22  C   UNL     1      47.047   6.614  11.659  0.00  0.00    +0.000 A 
BRANCH  21  23
ATOM     23  C   UNL     1      45.265   5.293  10.472  0.00  0.00    +0.000 A 
ATOM     24  N   UNL     1      45.636   5.205   9.177  0.00  0.00    +0.000 NA
ATOM     25  C   UNL     1      45.287   4.085   8.524  0.00  0.00    +0.000 A 
ATOM     26  C   UNL     1      44.580   3.057   9.100  0.00  0.00    +0.000 A 
ATOM     27  C   UNL     1      44.234   3.244  10.416  0.00  0.00    +0.000 A 
ATOM     28  N   UNL     1      44.562   4.340  11.122  0.00  0.00    +0.000 NA
ENDBRANCH  21  23
ENDBRANCH   1  17
TORSDOF 4
ENDMDL
MODEL 4
REMARK VINA RESULT:    -6.802      2.889      4.593
REMARK INTER + INTRA:          -9.204
REMARK INTER:                  -8.812
REMARK INTRA:                  -0.392
REMARK UNBOUND:                -0.812
REMARK  Name = 
REMARK  4 active torsions:
REMARK  status: ('A' for Active; 'I' for Inactive)
REMARK    1  A    between atoms: C_2  and  C_4
REMARK    2  A    between atoms: N_8  and  C_9
REMARK    3  A    between atoms: C_9  and  C_10
REMARK    4  A    between atoms: C_14  and  C_15
REMARK                            x       y       z     vdW  Elec       q    Type
REMARK                         _______ _______ _______ _____ _____    ______ ____
ROOT
ATOM      1  C   UNL     1      47.304   8.247  13.159  0.00  0.00    +0.000 C 
ATOM      2  C   UNL     1      47.539   9.564  12.428  0.00  0.00    +0.000 C 
ATOM      3  C   UNL     1      48.177   8.315  11.920  0.00  0.00    +0.000 C 
ENDROOT
BRANCH   1   8
ATOM      4  C   UNL     1      44.482   4.193  11.560  0.00  0.00    +0.000 A 
ATOM      5  C   UNL     1      45.513   4.839  10.886  0.00  0.00    +0.000 A 
ATOM      6  C   UNL     1      46.033   6.023  11.413  0.00  0.00    +0.000 A 
ATOM      7  C   UNL     1      45.510   6.543  12.590  0.00  0.00    +0.000 A 
ATOM      8  N   UNL     1      45.908   7.771  13.129  0.00  0.00    +0.000 N 
ATOM      9  N   UNL     1      44.497   5.932  13.243  0.00  0.00    +0.000 NA
ATOM     10  C   UNL     1      44.005   4.779  12.721  0.00  0.00    +0.000 A 
ATOM     11  H   UNL     1      45.411   7.839  14.017  0.00  0.00    +0.000 HD
BRANCH   4  13
ATOM     12  N   UNL     1      44.408   2.352   9.975  0.00  0.00    +0.000 N 
ATOM     13  C   UNL     1      43.857   2.944  11.079  0.00  0.00    +0.000 C 
ATOM     14  O   UNL     1      42.904   2.438  11.655  0.00  0.00    +0.000 OA
ATOM     15  H   UNL     1      44.033   1.447   9.716  0.00  0.00    +0.000 HD
ATOM     16  H   UNL     1      45.320   2.598   9.621  0.00  0.00    +0.000 HD
ENDBRANCH   4  13
ENDBRANCH   1   8
BRANCH   1  17
ATOM     17  C   UNL     1      47.982   8.032  14.510  0.00  0.00    +0.000 A 
ATOM     18  C   UNL     1      48.166   9.081  15.425  0.00  0.00    +0.000 A 
ATOM     19  C   UNL     1      48.686   8.850  16.698  0.00  0.00    +0.000 A 
ATOM     20  C   UNL     1      49.014   7.552  17.092  0.00  0.00    +0.000 A 
ATOM     21  C   UNL     1      48.858   6.463  16.219  0.00  0.00    +0.000 A 
ATOM     22  C   UNL     1      48.364   6.742  14.927  0.00  0.00    +0.000 A 
BRANCH  21  23
ATOM     23  C   UNL     1      49.141   5.078  16.648  0.00  0.00    +0.000 A 
ATOM     24  N   UNL     1      48.182   4.147  16.460  0.00  0.00    +0.000 NA
ATOM     25  C   UNL     1      48.496   2.883  16.787  0.00  0.00    +0.000 A 
ATOM     26  C   UNL     1      49.715   2.509  17.298  0.00  0.00    +0.000 A 
ATOM     27  C   UNL     1      50.621   3.528  17.467  0.00  0.00    +0.000 A 
ATOM     28  N   UNL     1      50.366   4.810  17.151  0.00  0.00    +0.000 NA
ENDBRANCH  21  23
ENDBRANCH   1  17
TORSDOF 4
ENDMDL
