MODEL 1
REMARK VINA RESULT:    -9.674      0.000      0.000
REMARK INTER + INTRA:         -14.336
REMARK INTER:                 -13.350
REMARK INTRA:                  -0.986
REMARK UNBOUND:                -0.986
REMARK  Name = 
REMARK  7 active torsions:
REMARK  status: ('A' for Active; 'I' for Inactive)
REMARK    1  A    between atoms: C_2  and  C_4
REMARK    2  A    between atoms: N_8  and  C_9
REMARK    3  A    between atoms: C_9  and  C_10
REMARK    4  A    between atoms: C_10  and  C_13
REMARK    5  A    between atoms: C_17  and  O_18
REMARK    6  A    between atoms: O_18  and  C_19
REMARK    7  A    between atoms: C_21  and  N_22
REMARK                            x       y       z     vdW  Elec       q    Type
REMARK                         _______ _______ _______ _____ _____    ______ ____
ROOT
ATOM      1  C   UNL     1      43.422   5.517  12.200  0.00  0.00    +0.000 C 
ATOM      2  F   UNL     1      42.874   6.657  11.678  0.00  0.00    +0.000 F 
ATOM      3  F   UNL     1      42.686   5.241  13.317  0.00  0.00    +0.000 F 
ENDROOT
BRANCH   1   4
ATOM      4  C   UNL     1      44.896   5.687  12.523  0.00  0.00    +0.000 A 
ATOM      5  C   UNL     1      45.632   6.745  11.974  0.00  0.00    +0.000 A 
ATOM      6  C   UNL     1      46.986   6.893  12.278  0.00  0.00    +0.000 A 
ATOM      7  C   UNL     1      47.627   5.986  13.130  0.00  0.00    +0.000 A 
ATOM      8  C   UNL     1      46.911   4.920  13.669  0.00  0.00    +0.000 A 
ATOM      9  C   UNL     1      45.554   4.777  13.369  0.00  0.00    +0.000 A 
BRANCH   8  10
ATOM     10  O   UNL     1      47.420   3.981  14.535  0.00  0.00    +0.000 OA
BRANCH  10  11
ATOM     11  C   UNL     1      47.273   4.169  15.961  0.00  0.00    +0.000 C 
ATOM     12  C   UNL     1      48.273   5.132  16.646  0.00  0.00    +0.000 C 
ATOM     13  C   UNL     1      48.625   4.042  17.667  0.00  0.00    +0.000 C 
ATOM     14  C   UNL     1      47.857   3.017  16.821  0.00  0.00    +0.000 C 
BRANCH  13  15
ATOM     15  N   UNL     1      47.890   4.283  18.908  0.00  0.00    +0.000 NA
ATOM     16  H   UNL     1      48.418   4.178  19.771  0.00  0.00    +0.000 HD
ATOM     17  H   UNL     1      47.051   3.709  19.011  0.00  0.00    +0.000 HD
ENDBRANCH  13  15
ENDBRANCH  10  11
ENDBRANCH   8  10
ENDBRANCH   1   4
BRANCH   1  18
ATOM     18  C   UNL     1      43.226   4.373  11.171  0.00  0.00    +0.000 C 
BRANCH  18  23
ATOM     19  C   UNL     1      46.452   2.490   7.708  0.00  0.00    +0.000 A 
ATOM     20  C   UNL     1      45.642   1.836   8.628  0.00  0.00    +0.000 A 
ATOM     21  C   UNL     1      44.717   2.574   9.363  0.00  0.00    +0.000 A 
ATOM     22  C   UNL     1      44.618   3.951   9.180  0.00  0.00    +0.000 A 
ATOM     23  N   UNL     1      43.659   4.720   9.810  0.00  0.00    +0.000 N 
ATOM     24  N   UNL     1      45.421   4.601   8.313  0.00  0.00    +0.000 NA
ATOM     25  C   UNL     1      46.321   3.867   7.602  0.00  0.00    +0.000 A 
ATOM     26  H   UNL     1      43.845   5.706   9.635  0.00  0.00    +0.000 HD
BRANCH  19  28
ATOM     27  N   UNL     1      48.507   2.487   6.426  0.00  0.00    +0.000 N 
ATOM     28  C   UNL     1      47.426   1.775   6.867  0.00  0.00    +0.000 C 
ATOM     29  O   UNL     1      47.297   0.586   6.605  0.00  0.00    +0.000 OA
ATOM     30  H   UNL     1      49.225   1.966   5.938  0.00  0.00    +0.000 HD
ATOM     31  H   UNL     1      48.774   3.376   6.830  0.00  0.00    +0.000 HD
ENDBRANCH  19  28
ENDBRANCH  18  23
ENDBRANCH   1  18
TORSDOF 7
ENDMDL
MODEL 2
REMARK VINA RESULT:    -8.806      2.426      3.585
REMARK INTER + INTRA:         -13.138
REMARK INTER:                 -12.138
REMARK INTRA:                  -1.000
REMARK UNBOUND:                -0.986
REMARK  Name = 
REMARK  7 active torsions:
REMARK  status: ('A' for Active; 'I' for Inactive)
REMARK    1  A    between atoms: C_2  and  C_4
REMARK    2  A    between atoms: N_8  and  C_9
REMARK    3  A    between atoms: C_9  and  C_10
REMARK    4  A    between atoms: C_10  and  C_13
REMARK    5  A    between atoms: C_17  and  O_18
REMARK    6  A    between atoms: O_18  and  C_19
REMARK    7  A    between atoms: C_21  and  N_22
REMARK                            x       y       z     vdW  Elec       q    Type
REMARK                         _______ _______ _______ _____ _____    ______ ____
ROOT
ATOM      1  C   UNL     1      43.455   5.488  12.191  0.00  0.00    +0.000 C 
ATOM      2  F   UNL     1      42.992   6.656  11.648  0.00  0.00    +0.000 F 
ATOM      3  F   UNL     1      42.657   5.252  13.274  0.00  0.00    +0.000 F 
ENDROOT
BRANCH   1   4
ATOM      4  C   UNL     1      44.921   5.581  12.580  0.00  0.00    +0.000 A 
ATOM      5  C   UNL     1      45.452   4.748  13.573  0.00  0.00    +0.000 A 
ATOM      6  C   UNL     1      46.800   4.841  13.922  0.00  0.00    +0.000 A 
ATOM      7  C   UNL     1      47.637   5.767  13.290  0.00  0.00    +0.000 A 
ATOM      8  C   UNL     1      47.117   6.613  12.312  0.00  0.00    +0.000 A 
ATOM      9  C   UNL     1      45.769   6.514  11.959  0.00  0.00    +0.000 A 
BRANCH   8  10
ATOM     10  O   UNL     1      47.840   7.543  11.604  0.00  0.00    +0.000 OA
BRANCH  10  11
ATOM     11  C   UNL     1      49.086   8.041  12.142  0.00  0.00    +0.000 C 
ATOM     12  C   UNL     1      49.411   9.533  11.884  0.00  0.00    +0.000 C 
ATOM     13  C   UNL     1      50.780   9.137  11.312  0.00  0.00    +0.000 C 
ATOM     14  C   UNL     1      50.339   7.667  11.306  0.00  0.00    +0.000 C 
BRANCH  13  15
ATOM     15  N   UNL     1      51.806   9.322  12.336  0.00  0.00    +0.000 NA
ATOM     16  H   UNL     1      52.510   8.590  12.405  0.00  0.00    +0.000 HD
ATOM     17  H   UNL     1      51.434   9.455  13.278  0.00  0.00    +0.000 HD
ENDBRANCH  13  15
ENDBRANCH  10  11
ENDBRANCH   8  10
ENDBRANCH   1   4
BRANCH   1  18
ATOM     18  C   UNL     1      43.245   4.356  11.152  0.00  0.00    +0.000 C 
BRANCH  18  23
ATOM     19  C   UNL     1      46.477   2.499   7.680  0.00  0.00    +0.000 A 
ATOM     20  C   UNL     1      45.668   1.839   8.596  0.00  0.00    +0.000 A 
ATOM     21  C   UNL     1      44.741   2.571   9.334  0.00  0.00    +0.000 A 
ATOM     22  C   UNL     1      44.640   3.948   9.160  0.00  0.00    +0.000 A 
ATOM     23  N   UNL     1      43.678   4.712   9.793  0.00  0.00    +0.000 N 
ATOM     24  N   UNL     1      45.442   4.605   8.297  0.00  0.00    +0.000 NA
ATOM     25  C   UNL     1      46.343   3.877   7.582  0.00  0.00    +0.000 A 
ATOM     26  H   UNL     1      43.862   5.699   9.623  0.00  0.00    +0.000 HD
BRANCH  19  28
ATOM     27  N   UNL     1      48.540   2.504   6.410  0.00  0.00    +0.000 N 
ATOM     28  C   UNL     1      47.453   1.791   6.836  0.00  0.00    +0.000 C 
ATOM     29  O   UNL     1      47.321   0.607   6.557  0.00  0.00    +0.000 OA
ATOM     30  H   UNL     1      49.258   1.987   5.920  0.00  0.00    +0.000 HD
ATOM     31  H   UNL     1      48.808   3.387   6.827  0.00  0.00    +0.000 HD
ENDBRANCH  19  28
ENDBRANCH  18  23
ENDBRANCH   1  18
TORSDOF 7
ENDMDL
MODEL 3
REMARK VINA RESULT:    -8.337      2.339      8.535
REMARK INTER + INTRA:         -12.491
REMARK INTER:                 -11.854
REMARK INTRA:                  -0.637
REMARK UNBOUND:                -0.986
REMARK  Name = 
REMARK  7 active torsions:
REMARK  status: ('A' for Active; 'I' for Inactive)
REMARK    1  A    between atoms: C_2  and  C_4
REMARK    2  A    between atoms: N_8  and  C_9
REMARK    3  A    between atoms: C_9  and  C_10
REMARK    4  A    between atoms: C_10  and  C_13
REMARK    5  A    between atoms: C_17  and  O_18
REMARK    6  A    between atoms: O_18  and  C_19
REMARK    7  A    between atoms: C_21  and  N_22
REMARK                            x       y       z     vdW  Elec       q    Type
REMARK                         _______ _______ _______ _____ _____    ______ ____
ROOT
ATOM      1  C   UNL     1      45.919   5.858  12.322  0.00  0.00    +0.000 C 
ATOM      2  F   UNL     1      44.986   6.478  13.108  0.00  0.00    +0.000 F 
ATOM      3  F   UNL     1      46.568   6.866  11.668  0.00  0.00    +0.000 F 
ENDROOT
BRANCH   1   4
ATOM      4  C   UNL     1      45.286   4.873  11.354  0.00  0.00    +0.000 A 
ATOM      5  C   UNL     1      44.414   3.878  11.812  0.00  0.00    +0.000 A 
ATOM      6  C   UNL     1      43.837   2.978  10.913  0.00  0.00    +0.000 A 
ATOM      7  C   UNL     1      44.126   3.056   9.546  0.00  0.00    +0.000 A 
ATOM      8  C   UNL     1      45.006   4.029   9.079  0.00  0.00    +0.000 A 
ATOM      9  C   UNL     1      45.577   4.933   9.979  0.00  0.00    +0.000 A 
BRANCH   8  10
ATOM     10  O   UNL     1      45.349   4.222   7.763  0.00  0.00    +0.000 OA
BRANCH  10  11
ATOM     11  C   UNL     1      46.593   3.682   7.260  0.00  0.00    +0.000 C 
ATOM     12  C   UNL     1      46.646   3.336   5.752  0.00  0.00    +0.000 C 
ATOM     13  C   UNL     1      47.136   1.922   6.093  0.00  0.00    +0.000 C 
ATOM     14  C   UNL     1      46.809   2.177   7.571  0.00  0.00    +0.000 C 
BRANCH  13  15
ATOM     15  N   UNL     1      48.587   1.857   5.930  0.00  0.00    +0.000 NA
ATOM     16  H   UNL     1      48.923   1.536   5.025  0.00  0.00    +0.000 HD
ATOM     17  H   UNL     1      49.058   1.286   6.633  0.00  0.00    +0.000 HD
ENDBRANCH  13  15
ENDBRANCH  10  11
ENDBRANCH   8  10
ENDBRANCH   1   4
BRANCH   1  18
ATOM     18  C   UNL     1      46.924   5.128  13.251  0.00  0.00    +0.000 C 
BRANCH  18  23
ATOM     19  C   UNL     1      48.504   4.434  18.044  0.00  0.00    +0.000 A 
ATOM     20  C   UNL     1      48.857   5.404  17.114  0.00  0.00    +0.000 A 
ATOM     21  C   UNL     1      48.158   5.480  15.913  0.00  0.00    +0.000 A 
ATOM     22  C   UNL     1      47.125   4.584  15.647  0.00  0.00    +0.000 A 
ATOM     23  N   UNL     1      46.336   4.669  14.517  0.00  0.00    +0.000 N 
ATOM     24  N   UNL     1      46.794   3.618  16.528  0.00  0.00    +0.000 NA
ATOM     25  C   UNL     1      47.487   3.555  17.698  0.00  0.00    +0.000 A 
ATOM     26  H   UNL     1      45.732   3.850  14.462  0.00  0.00    +0.000 HD
BRANCH  19  28
ATOM     27  N   UNL     1      48.483   3.671  20.342  0.00  0.00    +0.000 N 
ATOM     28  C   UNL     1      49.170   4.314  19.351  0.00  0.00    +0.000 C 
ATOM     29  O   UNL     1      50.304   4.738  19.534  0.00  0.00    +0.000 OA
ATOM     30  H   UNL     1      48.984   3.499  21.204  0.00  0.00    +0.000 HD
ATOM     31  H   UNL     1      47.673   3.093  20.156  0.00  0.00    +0.000 HD
ENDBRANCH  19  28
ENDBRANCH  18  23
ENDBRANCH   1  18
TORSDOF 7
ENDMDL
MODEL 4
REMARK VINA RESULT:    -8.247      2.758      4.584
REMARK INTER + INTRA:         -12.367
REMARK INTER:                 -11.575
REMARK INTRA:                  -0.792
REMARK UNBOUND:                -0.986
REMARK  Name = 
REMARK  7 active torsions:
REMARK  status: ('A' for Active; 'I' for Inactive)
REMARK    1  A    between atoms: C_2  and  C_4
REMARK    2  A    between atoms: N_8  and  C_9
REMARK    3  A    between atoms: C_9  and  C_10
REMARK    4  A    between atoms: C_10  and  C_13
REMARK    5  A    between atoms: C_17  and  O_18
REMARK    6  A    between atoms: O_18  and  C_19
REMARK    7  A    between atoms: C_21  and  N_22
REMARK                            x       y       z     vdW  Elec       q    Type
REMARK                         _______ _______ _______ _____ _____    ______ ____
ROOT
ATOM      1  C   UNL     1      43.510   4.531  12.563  0.00  0.00    +0.000 C 
ATOM      2  F   UNL     1      42.467   5.404  12.718  0.00  0.00    +0.000 F 
ATOM      3  F   UNL     1      43.329   3.577  13.524  0.00  0.00    +0.000 F 
ENDROOT
BRANCH   1   4
ATOM      4  C   UNL     1      44.856   5.221  12.699  0.00  0.00    +0.000 A 
ATOM      5  C   UNL     1      45.949   4.553  13.267  0.00  0.00    +0.000 A 
ATOM      6  C   UNL     1      47.182   5.196  13.387  0.00  0.00    +0.000 A 
ATOM      7  C   UNL     1      47.343   6.514  12.945  0.00  0.00    +0.000 A 
ATOM      8  C   UNL     1      46.260   7.196  12.393  0.00  0.00    +0.000 A 
ATOM      9  C   UNL     1      45.028   6.548  12.268  0.00  0.00    +0.000 A 
BRANCH   8  10
ATOM     10  O   UNL     1      46.298   8.478  11.902  0.00  0.00    +0.000 OA
BRANCH  10  11
ATOM     11  C   UNL     1      45.149   9.341  12.064  0.00  0.00    +0.000 C 
ATOM     12  C   UNL     1      44.164   9.425  10.873  0.00  0.00    +0.000 C 
ATOM     13  C   UNL     1      44.272  10.956  10.891  0.00  0.00    +0.000 C 
ATOM     14  C   UNL     1      45.450  10.851  11.868  0.00  0.00    +0.000 C 
BRANCH  13  15
ATOM     15  N   UNL     1      43.118  11.516  11.593  0.00  0.00    +0.000 NA
ATOM     16  H   UNL     1      42.345  10.878  11.767  0.00  0.00    +0.000 HD
ATOM     17  H   UNL     1      42.717  12.339  11.140  0.00  0.00    +0.000 HD
ENDBRANCH  13  15
ENDBRANCH  10  11
ENDBRANCH   8  10
ENDBRANCH   1   4
BRANCH   1  18
ATOM     18  C   UNL     1      43.383   3.871  11.166  0.00  0.00    +0.000 C 
BRANCH  18  23
ATOM     19  C   UNL     1      46.570   2.846   7.326  0.00  0.00    +0.000 A 
ATOM     20  C   UNL     1      46.103   4.065   7.804  0.00  0.00    +0.000 A 
ATOM     21  C   UNL     1      45.360   4.092   8.981  0.00  0.00    +0.000 A 
ATOM     22  C   UNL     1      45.083   2.909   9.661  0.00  0.00    +0.000 A 
ATOM     23  N   UNL     1      44.433   2.883  10.880  0.00  0.00    +0.000 N 
ATOM     24  N   UNL     1      45.504   1.717   9.190  0.00  0.00    +0.000 NA
ATOM     25  C   UNL     1      46.228   1.705   8.037  0.00  0.00    +0.000 A 
ATOM     26  H   UNL     1      44.226   1.919  11.134  0.00  0.00    +0.000 HD
BRANCH  19  28
ATOM     27  N   UNL     1      48.715   2.433   6.278  0.00  0.00    +0.000 N 
ATOM     28  C   UNL     1      47.393   2.739   6.110  0.00  0.00    +0.000 C 
ATOM     29  O   UNL     1      46.909   2.880   4.994  0.00  0.00    +0.000 OA
ATOM     30  H   UNL     1      49.250   2.258   5.438  0.00  0.00    +0.000 HD
ATOM     31  H   UNL     1      49.080   2.062   7.146  0.00  0.00    +0.000 HD
ENDBRANCH  19  28
ENDBRANCH  18  23
ENDBRANCH   1  18
TORSDOF 7
ENDMDL
MODEL 5
REMARK VINA RESULT:    -8.208      2.916      3.471
REMARK INTER + INTRA:         -12.314
REMARK INTER:                 -11.832
REMARK INTRA:                  -0.482
REMARK UNBOUND:                -0.986
REMARK  Name = 
REMARK  7 active torsions:
REMARK  status: ('A' for Active; 'I' for Inactive)
REMARK    1  A    between atoms: C_2  and  C_4
REMARK    2  A    between atoms: N_8  and  C_9
REMARK    3  A    between atoms: C_9  and  C_10
REMARK    4  A    between atoms: C_10  and  C_13
REMARK    5  A    between atoms: C_17  and  O_18
REMARK    6  A    between atoms: O_18  and  C_19
REMARK    7  A    between atoms: C_21  and  N_22
REMARK                            x       y       z     vdW  Elec       q    Type
REMARK                         _______ _______ _______ _____ _____    ______ ____
ROOT
ATOM      1  C   UNL     1      44.353   4.760  12.217  0.00  0.00    +0.000 C 
ATOM      2  F   UNL     1      43.706   4.480  13.390  0.00  0.00    +0.000 F 
ATOM      3  F   UNL     1      45.314   3.797  12.095  0.00  0.00    +0.000 F 
ENDROOT
BRANCH   1   4
ATOM      4  C   UNL     1      44.950   6.157  12.213  0.00  0.00    +0.000 A 
ATOM      5  C   UNL     1      44.286   7.218  11.585  0.00  0.00    +0.000 A 
ATOM      6  C   UNL     1      44.844   8.498  11.589  0.00  0.00    +0.000 A 
ATOM      7  C   UNL     1      46.072   8.737  12.215  0.00  0.00    +0.000 A 
ATOM      8  C   UNL     1      46.752   7.687  12.829  0.00  0.00    +0.000 A 
ATOM      9  C   UNL     1      46.189   6.407  12.830  0.00  0.00    +0.000 A 
BRANCH   8  10
ATOM     10  O   UNL     1      47.948   7.798  13.495  0.00  0.00    +0.000 OA
BRANCH  10  11
ATOM     11  C   UNL     1      49.163   7.326  12.870  0.00  0.00    +0.000 C 
ATOM     12  C   UNL     1      50.445   8.158  13.116  0.00  0.00    +0.000 C 
ATOM     13  C   UNL     1      50.685   8.238  11.602  0.00  0.00    +0.000 C 
ATOM     14  C   UNL     1      49.281   7.668  11.361  0.00  0.00    +0.000 C 
BRANCH  13  15
ATOM     15  N   UNL     1      51.678   7.238  11.214  0.00  0.00    +0.000 NA
ATOM     16  H   UNL     1      51.648   6.355  11.718  0.00  0.00    +0.000 HD
ATOM     17  H   UNL     1      52.643   7.570  11.268  0.00  0.00    +0.000 HD
ENDBRANCH  13  15
ENDBRANCH  10  11
ENDBRANCH   8  10
ENDBRANCH   1   4
BRANCH   1  18
ATOM     18  C   UNL     1      43.335   4.608  11.056  0.00  0.00    +0.000 C 
BRANCH  18  23
ATOM     19  C   UNL     1      46.517   2.528   7.664  0.00  0.00    +0.000 A 
ATOM     20  C   UNL     1      45.586   1.931   8.506  0.00  0.00    +0.000 A 
ATOM     21  C   UNL     1      44.712   2.736   9.231  0.00  0.00    +0.000 A 
ATOM     22  C   UNL     1      44.781   4.122   9.118  0.00  0.00    +0.000 A 
ATOM     23  N   UNL     1      43.882   4.967   9.739  0.00  0.00    +0.000 N 
ATOM     24  N   UNL     1      45.701   4.714   8.330  0.00  0.00    +0.000 NA
ATOM     25  C   UNL     1      46.550   3.915   7.627  0.00  0.00    +0.000 A 
ATOM     26  H   UNL     1      44.189   5.932   9.627  0.00  0.00    +0.000 HD
BRANCH  19  28
ATOM     27  N   UNL     1      48.540   2.402   6.338  0.00  0.00    +0.000 N 
ATOM     28  C   UNL     1      47.449   1.745   6.837  0.00  0.00    +0.000 C 
ATOM     29  O   UNL     1      47.278   0.550   6.634  0.00  0.00    +0.000 OA
ATOM     30  H   UNL     1      49.230   1.837   5.860  0.00  0.00    +0.000 HD
ATOM     31  H   UNL     1      48.843   3.300   6.694  0.00  0.00    +0.000 HD
ENDBRANCH  19  28
ENDBRANCH  18  23
ENDBRANCH   1  18
TORSDOF 7
ENDMDL
MODEL 6
REMARK VINA RESULT:    -7.595      2.761      3.192
REMARK INTER + INTRA:         -11.467
REMARK INTER:                 -10.346
REMARK INTRA:                  -1.121
REMARK UNBOUND:                -0.986
REMARK  Name = 
REMARK  7 active torsions:
REMARK  status: ('A' for Active; 'I' for Inactive)
REMARK    1  A    between atoms: C_2  and  C_4
REMARK    2  A    between atoms: N_8  and  C_9
REMARK    3  A    between atoms: C_9  and  C_10
REMARK    4  A    between atoms: C_10  and  C_13
REMARK    5  A    between atoms: C_17  and  O_18
REMARK    6  A    between atoms: O_18  and  C_19
REMARK    7  A    between atoms: C_21  and  N_22
REMARK                            x       y       z     vdW  Elec       q    Type
REMARK                         _______ _______ _______ _____ _____    ______ ____
ROOT
ATOM      1  C   UNL     1      43.967   4.218  12.359  0.00  0.00    +0.000 C 
ATOM      2  F   UNL     1      42.998   4.070  13.314  0.00  0.00    +0.000 F 
ATOM      3  F   UNL     1      45.088   3.648  12.891  0.00  0.00    +0.000 F 
ENDROOT
BRANCH   1   4
ATOM      4  C   UNL     1      44.193   5.676  11.995  0.00  0.00    +0.000 A 
ATOM      5  C   UNL     1      43.172   6.433  11.406  0.00  0.00    +0.000 A 
ATOM      6  C   UNL     1      43.391   7.772  11.077  0.00  0.00    +0.000 A 
ATOM      7  C   UNL     1      44.630   8.373  11.326  0.00  0.00    +0.000 A 
ATOM      8  C   UNL     1      45.659   7.626  11.895  0.00  0.00    +0.000 A 
ATOM      9  C   UNL     1      45.436   6.288  12.230  0.00  0.00    +0.000 A 
BRANCH   8  10
ATOM     10  O   UNL     1      46.907   8.107  12.210  0.00  0.00    +0.000 OA
BRANCH  10  11
ATOM     11  C   UNL     1      47.724   7.402  13.172  0.00  0.00    +0.000 C 
ATOM     12  C   UNL     1      48.231   8.217  14.388  0.00  0.00    +0.000 C 
ATOM     13  C   UNL     1      49.669   7.770  14.088  0.00  0.00    +0.000 C 
ATOM     14  C   UNL     1      49.201   7.209  12.738  0.00  0.00    +0.000 C 
BRANCH  13  15
ATOM     15  N   UNL     1      50.026   6.659  14.968  0.00  0.00    +0.000 NA
ATOM     16  H   UNL     1      49.515   5.791  14.827  0.00  0.00    +0.000 HD
ATOM     17  H   UNL     1      49.953   6.879  15.963  0.00  0.00    +0.000 HD
ENDBRANCH  13  15
ENDBRANCH  10  11
ENDBRANCH   8  10
ENDBRANCH   1   4
BRANCH   1  18
ATOM     18  C   UNL     1      43.536   3.412  11.106  0.00  0.00    +0.000 C 
BRANCH  18  23
ATOM     19  C   UNL     1      46.666   2.478   7.196  0.00  0.00    +0.000 A 
ATOM     20  C   UNL     1      46.314   3.681   7.797  0.00  0.00    +0.000 A 
ATOM     21  C   UNL     1      45.560   3.660   8.967  0.00  0.00    +0.000 A 
ATOM     22  C   UNL     1      45.157   2.447   9.517  0.00  0.00    +0.000 A 
ATOM     23  N   UNL     1      44.488   2.359  10.723  0.00  0.00    +0.000 N 
ATOM     24  N   UNL     1      45.464   1.274   8.926  0.00  0.00    +0.000 NA
ATOM     25  C   UNL     1      46.202   1.309   7.782  0.00  0.00    +0.000 A 
ATOM     26  H   UNL     1      44.182   1.399  10.873  0.00  0.00    +0.000 HD
BRANCH  19  28
ATOM     27  N   UNL     1      47.307   3.402   5.051  0.00  0.00    +0.000 N 
ATOM     28  C   UNL     1      47.493   2.416   5.980  0.00  0.00    +0.000 C 
ATOM     29  O   UNL     1      48.336   1.542   5.821  0.00  0.00    +0.000 OA
ATOM     30  H   UNL     1      47.948   3.414   4.268  0.00  0.00    +0.000 HD
ATOM     31  H   UNL     1      46.818   4.263   5.262  0.00  0.00    +0.000 HD
ENDBRANCH  19  28
ENDBRANCH  18  23
ENDBRANCH   1  18
TORSDOF 7
ENDMDL
MODEL 7
REMARK VINA RESULT:    -7.537      1.722      2.046
REMARK INTER + INTRA:         -11.387
REMARK INTER:                 -10.777
REMARK INTRA:                  -0.609
REMARK UNBOUND:                -0.986
REMARK  Name = 
REMARK  7 active torsions:
REMARK  status: ('A' for Active; 'I' for Inactive)
REMARK    1  A    between atoms: C_2  and  C_4
REMARK    2  A    between atoms: N_8  and  C_9
REMARK    3  A    between atoms: C_9  and  C_10
REMARK    4  A    between atoms: C_10  and  C_13
REMARK    5  A    between atoms: C_17  and  O_18
REMARK    6  A    between atoms: O_18  and  C_19
REMARK    7  A    between atoms: C_21  and  N_22
REMARK                            x       y       z     vdW  Elec       q    Type
REMARK                         _______ _______ _______ _____ _____    ______ ____
ROOT
ATOM      1  C   UNL     1      44.629   6.350  12.123  0.00  0.00    +0.000 C 
ATOM      2  F   UNL     1      44.086   7.420  11.464  0.00  0.00    +0.000 F 
ATOM      3  F   UNL     1      43.917   6.242  13.284  0.00  0.00    +0.000 F 
ENDROOT
BRANCH   1   4
ATOM      4  C   UNL     1      46.114   6.536  12.387  0.00  0.00    +0.000 A 
ATOM      5  C   UNL     1      46.926   7.211  11.467  0.00  0.00    +0.000 A 
ATOM      6  C   UNL     1      48.289   7.376  11.720  0.00  0.00    +0.000 A 
ATOM      7  C   UNL     1      48.861   6.868  12.891  0.00  0.00    +0.000 A 
ATOM      8  C   UNL     1      48.069   6.179  13.806  0.00  0.00    +0.000 A 
ATOM      9  C   UNL     1      46.703   6.020  13.555  0.00  0.00    +0.000 A 
BRANCH   8  10
ATOM     10  O   UNL     1      48.507   5.657  14.999  0.00  0.00    +0.000 OA
BRANCH  10  11
ATOM     11  C   UNL     1      49.178   6.513  15.952  0.00  0.00    +0.000 C 
ATOM     12  C   UNL     1      48.645   6.492  17.406  0.00  0.00    +0.000 C 
ATOM     13  C   UNL     1      48.517   8.022  17.381  0.00  0.00    +0.000 C 
ATOM     14  C   UNL     1      48.769   8.008  15.868  0.00  0.00    +0.000 C 
BRANCH  13  15
ATOM     15  N   UNL     1      49.672   8.617  18.051  0.00  0.00    +0.000 NA
ATOM     16  H   UNL     1      49.468   9.301  18.776  0.00  0.00    +0.000 HD
ATOM     17  H   UNL     1      50.337   9.060  17.415  0.00  0.00    +0.000 HD
ENDBRANCH  13  15
ENDBRANCH  10  11
ENDBRANCH   8  10
ENDBRANCH   1   4
BRANCH   1  18
ATOM     18  C   UNL     1      44.390   5.081  11.265  0.00  0.00    +0.000 C 
BRANCH  18  23
ATOM     19  C   UNL     1      46.618   2.487   7.489  0.00  0.00    +0.000 A 
ATOM     20  C   UNL     1      45.874   2.034   8.572  0.00  0.00    +0.000 A 
ATOM     21  C   UNL     1      45.226   2.960   9.385  0.00  0.00    +0.000 A 
ATOM     22  C   UNL     1      45.336   4.322   9.117  0.00  0.00    +0.000 A 
ATOM     23  N   UNL     1      44.642   5.281   9.830  0.00  0.00    +0.000 N 
ATOM     24  N   UNL     1      46.081   4.776   8.088  0.00  0.00    +0.000 NA
ATOM     25  C   UNL     1      46.709   3.859   7.302  0.00  0.00    +0.000 A 
ATOM     26  H   UNL     1      44.962   6.208   9.554  0.00  0.00    +0.000 HD
BRANCH  19  28
ATOM     27  N   UNL     1      48.261   2.106   5.750  0.00  0.00    +0.000 N 
ATOM     28  C   UNL     1      47.300   1.570   6.562  0.00  0.00    +0.000 C 
ATOM     29  O   UNL     1      47.048   0.372   6.543  0.00  0.00    +0.000 OA
ATOM     30  H   UNL     1      48.798   1.456   5.191  0.00  0.00    +0.000 HD
ATOM     31  H   UNL     1      48.668   3.018   5.918  0.00  0.00    +0.000 HD
ENDBRANCH  19  28
ENDBRANCH  18  23
ENDBRANCH   1  18
TORSDOF 7
ENDMDL
MODEL 8
REMARK VINA RESULT:    -7.497      2.480      8.422
REMARK INTER + INTRA:         -11.332
REMARK INTER:                 -10.704
REMARK INTRA:                  -0.628
REMARK UNBOUND:                -0.986
REMARK  Name = 
REMARK  7 active torsions:
REMARK  status: ('A' for Active; 'I' for Inactive)
REMARK    1  A    between atoms: C_2  and  C_4
REMARK    2  A    between atoms: N_8  and  C_9
REMARK    3  A    between atoms: C_9  and  C_10
REMARK    4  A    between atoms: C_10  and  C_13
REMARK    5  A    between atoms: C_17  and  O_18
REMARK    6  A    between atoms: O_18  and  C_19
REMARK    7  A    between atoms: C_21  and  N_22
REMARK                            x       y       z     vdW  Elec       q    Type
REMARK                         _______ _______ _______ _____ _____    ______ ____
ROOT
ATOM      1  C   UNL     1      45.659   6.334  12.117  0.00  0.00    +0.000 C 
ATOM      2  F   UNL     1      44.750   6.643  13.091  0.00  0.00    +0.000 F 
ATOM      3  F   UNL     1      45.827   7.485  11.401  0.00  0.00    +0.000 F 
ENDROOT
BRANCH   1   4
ATOM      4  C   UNL     1      45.189   5.187  11.240  0.00  0.00    +0.000 A 
ATOM      5  C   UNL     1      44.464   4.119  11.785  0.00  0.00    +0.000 A 
ATOM      6  C   UNL     1      44.036   3.070  10.969  0.00  0.00    +0.000 A 
ATOM      7  C   UNL     1      44.327   3.069   9.600  0.00  0.00    +0.000 A 
ATOM      8  C   UNL     1      45.062   4.116   9.049  0.00  0.00    +0.000 A 
ATOM      9  C   UNL     1      45.484   5.169   9.865  0.00  0.00    +0.000 A 
BRANCH   8  10
ATOM     10  O   UNL     1      45.389   4.241   7.720  0.00  0.00    +0.000 OA
BRANCH  10  11
ATOM     11  C   UNL     1      46.626   3.674   7.231  0.00  0.00    +0.000 C 
ATOM     12  C   UNL     1      46.703   3.366   5.715  0.00  0.00    +0.000 C 
ATOM     13  C   UNL     1      47.139   1.928   6.029  0.00  0.00    +0.000 C 
ATOM     14  C   UNL     1      46.787   2.155   7.505  0.00  0.00    +0.000 C 
BRANCH  13  15
ATOM     15  N   UNL     1      48.590   1.820   5.896  0.00  0.00    +0.000 NA
ATOM     16  H   UNL     1      48.964   0.879   5.800  0.00  0.00    +0.000 HD
ATOM     17  H   UNL     1      49.110   2.262   6.656  0.00  0.00    +0.000 HD
ENDBRANCH  13  15
ENDBRANCH  10  11
ENDBRANCH   8  10
ENDBRANCH   1   4
BRANCH   1  18
ATOM     18  C   UNL     1      47.000   5.969  12.807  0.00  0.00    +0.000 C 
BRANCH  18  23
ATOM     19  C   UNL     1      49.825   5.851  17.044  0.00  0.00    +0.000 A 
ATOM     20  C   UNL     1      49.744   6.815  16.046  0.00  0.00    +0.000 A 
ATOM     21  C   UNL     1      48.766   6.692  15.062  0.00  0.00    +0.000 A 
ATOM     22  C   UNL     1      47.891   5.609  15.078  0.00  0.00    +0.000 A 
ATOM     23  N   UNL     1      46.844   5.484  14.185  0.00  0.00    +0.000 N 
ATOM     24  N   UNL     1      47.980   4.651  16.022  0.00  0.00    +0.000 NA
ATOM     25  C   UNL     1      48.942   4.784  16.977  0.00  0.00    +0.000 A 
ATOM     26  H   UNL     1      46.413   4.567  14.294  0.00  0.00    +0.000 HD
BRANCH  19  28
ATOM     27  N   UNL     1      50.768   4.940  19.080  0.00  0.00    +0.000 N 
ATOM     28  C   UNL     1      50.806   5.931  18.138  0.00  0.00    +0.000 C 
ATOM     29  O   UNL     1      51.643   6.822  18.186  0.00  0.00    +0.000 OA
ATOM     30  H   UNL     1      51.509   4.941  19.770  0.00  0.00    +0.000 HD
ATOM     31  H   UNL     1      50.275   4.068  18.933  0.00  0.00    +0.000 HD
ENDBRANCH  19  28
ENDBRANCH  18  23
ENDBRANCH   1  18
TORSDOF 7
ENDMDL
MODEL 9
REMARK VINA RESULT:    -7.471      2.333      2.882
REMARK INTER + INTRA:         -11.297
REMARK INTER:                 -10.192
REMARK INTRA:                  -1.105
REMARK UNBOUND:                -0.986
REMARK  Name = 
REMARK  7 active torsions:
REMARK  status: ('A' for Active; 'I' for Inactive)
REMARK    1  A    between atoms: C_2  and  C_4
REMARK    2  A    between atoms: N_8  and  C_9
REMARK    3  A    between atoms: C_9  and  C_10
REMARK    4  A    between atoms: C_10  and  C_13
REMARK    5  A    between atoms: C_17  and  O_18
REMARK    6  A    between atoms: O_18  and  C_19
REMARK    7  A    between atoms: C_21  and  N_22
REMARK                            x       y       z     vdW  Elec       q    Type
REMARK                         _______ _______ _______ _____ _____    ______ ____
ROOT
ATOM      1  C   UNL     1      44.933   6.247  11.728  0.00  0.00    +0.000 C 
ATOM      2  F   UNL     1      45.685   6.984  10.854  0.00  0.00    +0.000 F 
ATOM      3  F   UNL     1      44.194   7.159  12.427  0.00  0.00    +0.000 F 
ENDROOT
BRANCH   1   4
ATOM      4  C   UNL     1      45.795   5.397  12.646  0.00  0.00    +0.000 A 
ATOM      5  C   UNL     1      45.631   4.007  12.697  0.00  0.00    +0.000 A 
ATOM      6  C   UNL     1      46.429   3.235  13.544  0.00  0.00    +0.000 A 
ATOM      7  C   UNL     1      47.398   3.838  14.354  0.00  0.00    +0.000 A 
ATOM      8  C   UNL     1      47.558   5.222  14.326  0.00  0.00    +0.000 A 
ATOM      9  C   UNL     1      46.764   5.992  13.473  0.00  0.00    +0.000 A 
BRANCH   8  10
ATOM     10  O   UNL     1      48.487   5.926  15.053  0.00  0.00    +0.000 OA
BRANCH  10  11
ATOM     11  C   UNL     1      48.629   7.350  14.845  0.00  0.00    +0.000 C 
ATOM     12  C   UNL     1      49.995   7.846  14.311  0.00  0.00    +0.000 C 
ATOM     13  C   UNL     1      50.084   8.850  15.469  0.00  0.00    +0.000 C 
ATOM     14  C   UNL     1      48.887   8.164  16.141  0.00  0.00    +0.000 C 
BRANCH  13  15
ATOM     15  N   UNL     1      49.675  10.172  14.999  0.00  0.00    +0.000 NA
ATOM     16  H   UNL     1      49.953  10.961  15.578  0.00  0.00    +0.000 HD
ATOM     17  H   UNL     1      48.669  10.265  14.849  0.00  0.00    +0.000 HD
ENDBRANCH  13  15
ENDBRANCH  10  11
ENDBRANCH   8  10
ENDBRANCH   1   4
BRANCH   1  18
ATOM     18  C   UNL     1      43.977   5.347  10.903  0.00  0.00    +0.000 C 
BRANCH  18  23
ATOM     19  C   UNL     1      46.375   2.031   7.869  0.00  0.00    +0.000 A 
ATOM     20  C   UNL     1      45.548   1.810   8.964  0.00  0.00    +0.000 A 
ATOM     21  C   UNL     1      44.875   2.887   9.534  0.00  0.00    +0.000 A 
ATOM     22  C   UNL     1      45.040   4.169   9.016  0.00  0.00    +0.000 A 
ATOM     23  N   UNL     1      44.328   5.259   9.479  0.00  0.00    +0.000 N 
ATOM     24  N   UNL     1      45.864   4.401   7.974  0.00  0.00    +0.000 NA
ATOM     25  C   UNL     1      46.517   3.339   7.427  0.00  0.00    +0.000 A 
ATOM     26  H   UNL     1      44.692   6.109   9.052  0.00  0.00    +0.000 HD
BRANCH  19  28
ATOM     27  N   UNL     1      46.783  -0.337   7.568  0.00  0.00    +0.000 N 
ATOM     28  C   UNL     1      47.091   0.940   7.189  0.00  0.00    +0.000 C 
ATOM     29  O   UNL     1      47.899   1.162   6.297  0.00  0.00    +0.000 OA
ATOM     30  H   UNL     1      47.199  -1.084   7.026  0.00  0.00    +0.000 HD
ATOM     31  H   UNL     1      45.952  -0.560   8.102  0.00  0.00    +0.000 HD
ENDBRANCH  19  28
ENDBRANCH  18  23
ENDBRANCH   1  18
TORSDOF 7
ENDMDL
