MODEL 1
REMARK VINA RESULT:    -9.263      0.000      0.000
REMARK INTER + INTRA:         -11.651
REMARK INTER:                 -11.430
REMARK INTRA:                  -0.222
REMARK UNBOUND:                -0.222
REMARK  Name = 
REMARK  4 active torsions:
REMARK  status: ('A' for Active; 'I' for Inactive)
REMARK    1  A    between atoms: C_2  and  C_4
REMARK    2  A    between atoms: N_8  and  C_9
REMARK    3  A    between atoms: C_9  and  C_10
REMARK    4  A    between atoms: C_14  and  C_15
REMARK                            x       y       z     vdW  Elec       q    Type
REMARK                         _______ _______ _______ _____ _____    ______ ____
ROOT
ATOM      1  C   UNL     1      44.009   4.795  11.545  0.00  0.00    +0.000 C 
ATOM      2  C   UNL     1      42.744   5.142  12.314  0.00  0.00    +0.000 C 
ATOM      3  C   UNL     1      43.043   5.865  11.044  0.00  0.00    +0.000 C 
ENDROOT
BRANCH   1   8
ATOM      4  C   UNL     1      46.467   2.711   7.496  0.00  0.00    +0.000 A 
ATOM      5  C   UNL     1      46.141   4.033   7.768  0.00  0.00    +0.000 A 
ATOM      6  C   UNL     1      45.341   4.321   8.874  0.00  0.00    +0.000 A 
ATOM      7  C   UNL     1      44.883   3.296   9.696  0.00  0.00    +0.000 A 
ATOM      8  N   UNL     1      44.078   3.524  10.815  0.00  0.00    +0.000 N 
ATOM      9  N   UNL     1      45.180   2.006   9.431  0.00  0.00    +0.000 NA
ATOM     10  C   UNL     1      45.949   1.738   8.340  0.00  0.00    +0.000 A 
ATOM     11  H   UNL     1      43.943   2.646  11.306  0.00  0.00    +0.000 HD
BRANCH   4  13
ATOM     12  N   UNL     1      47.205   3.065   5.210  0.00  0.00    +0.000 N 
ATOM     13  C   UNL     1      47.302   2.312   6.351  0.00  0.00    +0.000 C 
ATOM     14  O   UNL     1      48.082   1.371   6.419  0.00  0.00    +0.000 OA
ATOM     15  H   UNL     1      47.842   2.837   4.460  0.00  0.00    +0.000 HD
ATOM     16  H   UNL     1      46.761   3.971   5.191  0.00  0.00    +0.000 HD
ENDBRANCH   4  13
ENDBRANCH   1   8
BRANCH   1  17
ATOM     17  C   UNL     1      45.351   5.326  12.045  0.00  0.00    +0.000 A 
ATOM     18  C   UNL     1      46.038   6.342  11.363  0.00  0.00    +0.000 A 
ATOM     19  C   UNL     1      47.208   6.898  11.883  0.00  0.00    +0.000 A 
ATOM     20  C   UNL     1      47.717   6.440  13.099  0.00  0.00    +0.000 A 
ATOM     21  C   UNL     1      47.075   5.420  13.814  0.00  0.00    +0.000 A 
ATOM     22  C   UNL     1      45.909   4.874  13.256  0.00  0.00    +0.000 A 
BRANCH  21  23
ATOM     23  C   UNL     1      47.534   4.987  15.145  0.00  0.00    +0.000 A 
ATOM     24  C   UNL     1      47.165   3.742  15.673  0.00  0.00    +0.000 A 
ATOM     25  C   UNL     1      47.656   3.318  16.906  0.00  0.00    +0.000 A 
ATOM     26  C   UNL     1      48.518   4.154  17.591  0.00  0.00    +0.000 A 
ATOM     27  N   UNL     1      48.905   5.362  17.135  0.00  0.00    +0.000 NA
ATOM     28  C   UNL     1      48.401   5.747  15.935  0.00  0.00    +0.000 A 
ENDBRANCH  21  23
ENDBRANCH   1  17
TORSDOF 4
ENDMDL
MODEL 2
REMARK VINA RESULT:    -9.036      1.990      3.451
REMARK INTER + INTRA:         -11.371
REMARK INTER:                 -11.025
REMARK INTRA:                  -0.346
REMARK UNBOUND:                -0.222
REMARK  Name = 
REMARK  4 active torsions:
REMARK  status: ('A' for Active; 'I' for Inactive)
REMARK    1  A    between atoms: C_2  and  C_4
REMARK    2  A    between atoms: N_8  and  C_9
REMARK    3  A    between atoms: C_9  and  C_10
REMARK    4  A    between atoms: C_14  and  C_15
REMARK                            x       y       z     vdW  Elec       q    Type
REMARK                         _______ _______ _______ _____ _____    ______ ____
ROOT
ATOM      1  C   UNL     1      43.753   4.850  11.582  0.00  0.00    +0.000 C 
ATOM      2  C   UNL     1      42.424   5.332  12.141  0.00  0.00    +0.000 C 
ATOM      3  C   UNL     1      43.033   6.057  10.989  0.00  0.00    +0.000 C 
ENDROOT
BRANCH   1   8
ATOM      4  C   UNL     1      46.403   2.758   7.660  0.00  0.00    +0.000 A 
ATOM      5  C   UNL     1      46.152   4.088   7.968  0.00  0.00    +0.000 A 
ATOM      6  C   UNL     1      45.280   4.390   9.014  0.00  0.00    +0.000 A 
ATOM      7  C   UNL     1      44.676   3.368   9.741  0.00  0.00    +0.000 A 
ATOM      8  N   UNL     1      43.793   3.609  10.797  0.00  0.00    +0.000 N 
ATOM      9  N   UNL     1      44.900   2.072   9.439  0.00  0.00    +0.000 NA
ATOM     10  C   UNL     1      45.742   1.792   8.406  0.00  0.00    +0.000 A 
ATOM     11  H   UNL     1      43.551   2.724  11.230  0.00  0.00    +0.000 HD
BRANCH   4  13
ATOM     12  N   UNL     1      47.290   3.093   5.424  0.00  0.00    +0.000 N 
ATOM     13  C   UNL     1      47.305   2.345   6.572  0.00  0.00    +0.000 C 
ATOM     14  O   UNL     1      48.070   1.397   6.694  0.00  0.00    +0.000 OA
ATOM     15  H   UNL     1      47.971   2.856   4.717  0.00  0.00    +0.000 HD
ATOM     16  H   UNL     1      46.857   4.004   5.373  0.00  0.00    +0.000 HD
ENDBRANCH   4  13
ENDBRANCH   1   8
BRANCH   1  17
ATOM     17  C   UNL     1      45.040   5.177  12.337  0.00  0.00    +0.000 A 
ATOM     18  C   UNL     1      45.610   4.269  13.242  0.00  0.00    +0.000 A 
ATOM     19  C   UNL     1      46.842   4.528  13.845  0.00  0.00    +0.000 A 
ATOM     20  C   UNL     1      47.525   5.709  13.557  0.00  0.00    +0.000 A 
ATOM     21  C   UNL     1      46.994   6.654  12.669  0.00  0.00    +0.000 A 
ATOM     22  C   UNL     1      45.748   6.369  12.090  0.00  0.00    +0.000 A 
BRANCH  21  23
ATOM     23  C   UNL     1      47.738   7.861  12.271  0.00  0.00    +0.000 A 
ATOM     24  C   UNL     1      49.074   7.789  11.852  0.00  0.00    +0.000 A 
ATOM     25  C   UNL     1      49.747   8.929  11.419  0.00  0.00    +0.000 A 
ATOM     26  C   UNL     1      49.063  10.131  11.410  0.00  0.00    +0.000 A 
ATOM     27  N   UNL     1      47.781  10.261  11.804  0.00  0.00    +0.000 NA
ATOM     28  C   UNL     1      47.158   9.132  12.227  0.00  0.00    +0.000 A 
ENDBRANCH  21  23
ENDBRANCH   1  17
TORSDOF 4
ENDMDL
MODEL 3
REMARK VINA RESULT:    -7.827      2.916      7.708
REMARK INTER + INTRA:          -9.879
REMARK INTER:                  -9.407
REMARK INTRA:                  -0.472
REMARK UNBOUND:                -0.222
REMARK  Name = 
REMARK  4 active torsions:
REMARK  status: ('A' for Active; 'I' for Inactive)
REMARK    1  A    between atoms: C_2  and  C_4
REMARK    2  A    between atoms: N_8  and  C_9
REMARK    3  A    between atoms: C_9  and  C_10
REMARK    4  A    between atoms: C_14  and  C_15
REMARK                            x       y       z     vdW  Elec       q    Type
REMARK                         _______ _______ _______ _____ _____    ______ ____
ROOT
ATOM      1  C   UNL     1      48.551   7.611  12.807  0.00  0.00    +0.000 C 
ATOM      2  C   UNL     1      49.688   7.123  11.922  0.00  0.00    +0.000 C 
ATOM      3  C   UNL     1      49.406   8.586  12.004  0.00  0.00    +0.000 C 
ENDROOT
BRANCH   1   8
ATOM      4  C   UNL     1      47.846   4.370  16.780  0.00  0.00    +0.000 A 
ATOM      5  C   UNL     1      47.206   4.438  15.549  0.00  0.00    +0.000 A 
ATOM      6  C   UNL     1      47.485   5.507  14.697  0.00  0.00    +0.000 A 
ATOM      7  C   UNL     1      48.398   6.487  15.076  0.00  0.00    +0.000 A 
ATOM      8  N   UNL     1      48.715   7.581  14.266  0.00  0.00    +0.000 N 
ATOM      9  N   UNL     1      49.012   6.440  16.277  0.00  0.00    +0.000 NA
ATOM     10  C   UNL     1      48.719   5.399  17.105  0.00  0.00    +0.000 A 
ATOM     11  H   UNL     1      49.462   8.108  14.706  0.00  0.00    +0.000 HD
BRANCH   4  13
ATOM     12  N   UNL     1      48.462   3.199  18.815  0.00  0.00    +0.000 N 
ATOM     13  C   UNL     1      47.612   3.283  17.745  0.00  0.00    +0.000 C 
ATOM     14  O   UNL     1      46.675   2.505  17.624  0.00  0.00    +0.000 OA
ATOM     15  H   UNL     1      48.244   2.505  19.516  0.00  0.00    +0.000 HD
ATOM     16  H   UNL     1      49.089   3.947  19.074  0.00  0.00    +0.000 HD
ENDBRANCH   4  13
ENDBRANCH   1   8
BRANCH   1  17
ATOM     17  C   UNL     1      47.112   7.465  12.317  0.00  0.00    +0.000 A 
ATOM     18  C   UNL     1      46.182   8.506  12.452  0.00  0.00    +0.000 A 
ATOM     19  C   UNL     1      44.902   8.407  11.905  0.00  0.00    +0.000 A 
ATOM     20  C   UNL     1      44.526   7.255  11.214  0.00  0.00    +0.000 A 
ATOM     21  C   UNL     1      45.414   6.182  11.059  0.00  0.00    +0.000 A 
ATOM     22  C   UNL     1      46.688   6.309  11.634  0.00  0.00    +0.000 A 
BRANCH  21  23
ATOM     23  C   UNL     1      45.079   4.998  10.251  0.00  0.00    +0.000 A 
ATOM     24  C   UNL     1      45.589   4.831   8.956  0.00  0.00    +0.000 A 
ATOM     25  C   UNL     1      45.315   3.677   8.225  0.00  0.00    +0.000 A 
ATOM     26  C   UNL     1      44.531   2.700   8.812  0.00  0.00    +0.000 A 
ATOM     27  N   UNL     1      44.011   2.806  10.050  0.00  0.00    +0.000 NA
ATOM     28  C   UNL     1      44.292   3.947  10.730  0.00  0.00    +0.000 A 
ENDBRANCH  21  23
ENDBRANCH   1  17
TORSDOF 4
ENDMDL
MODEL 4
REMARK VINA RESULT:    -7.147      3.182      7.537
REMARK INTER + INTRA:          -9.041
REMARK INTER:                  -8.977
REMARK INTRA:                  -0.064
REMARK UNBOUND:                -0.222
REMARK  Name = 
REMARK  4 active torsions:
REMARK  status: ('A' for Active; 'I' for Inactive)
REMARK    1  A    between atoms: C_2  and  C_4
REMARK    2  A    between atoms: N_8  and  C_9
REMARK    3  A    between atoms: C_9  and  C_10
REMARK    4  A    between atoms: C_14  and  C_15
REMARK                            x       y       z     vdW  Elec       q    Type
REMARK                         _______ _______ _______ _____ _____    ______ ____
ROOT
ATOM      1  C   UNL     1      45.383   5.748  12.201  0.00  0.00    +0.000 C 
ATOM      2  C   UNL     1      45.255   7.068  11.456  0.00  0.00    +0.000 C 
ATOM      3  C   UNL     1      44.234   6.711  12.484  0.00  0.00    +0.000 C 
ENDROOT
BRANCH   1   8
ATOM      4  C   UNL     1      49.993   7.753  13.428  0.00  0.00    +0.000 A 
ATOM      5  C   UNL     1      49.355   7.647  12.199  0.00  0.00    +0.000 A 
ATOM      6  C   UNL     1      48.164   6.928  12.111  0.00  0.00    +0.000 A 
ATOM      7  C   UNL     1      47.619   6.331  13.245  0.00  0.00    +0.000 A 
ATOM      8  N   UNL     1      46.430   5.597  13.218  0.00  0.00    +0.000 N 
ATOM      9  N   UNL     1      48.239   6.413  14.441  0.00  0.00    +0.000 NA
ATOM     10  C   UNL     1      49.410   7.106  14.509  0.00  0.00    +0.000 A 
ATOM     11  H   UNL     1      46.185   5.336  14.167  0.00  0.00    +0.000 HD
BRANCH   4  13
ATOM     12  N   UNL     1      52.308   7.801  14.159  0.00  0.00    +0.000 N 
ATOM     13  C   UNL     1      51.255   8.488  13.615  0.00  0.00    +0.000 C 
ATOM     14  O   UNL     1      51.379   9.654  13.265  0.00  0.00    +0.000 OA
ATOM     15  H   UNL     1      53.192   8.286  14.205  0.00  0.00    +0.000 HD
ATOM     16  H   UNL     1      52.318   6.794  14.240  0.00  0.00    +0.000 HD
ENDBRANCH   4  13
ENDBRANCH   1   8
BRANCH   1  17
ATOM     17  C   UNL     1      44.977   4.456  11.495  0.00  0.00    +0.000 A 
ATOM     18  C   UNL     1      43.881   3.696  11.930  0.00  0.00    +0.000 A 
ATOM     19  C   UNL     1      43.449   2.576  11.217  0.00  0.00    +0.000 A 
ATOM     20  C   UNL     1      44.115   2.191  10.053  0.00  0.00    +0.000 A 
ATOM     21  C   UNL     1      45.221   2.910   9.581  0.00  0.00    +0.000 A 
ATOM     22  C   UNL     1      45.637   4.022  10.330  0.00  0.00    +0.000 A 
BRANCH  21  23
ATOM     23  C   UNL     1      45.880   2.586   8.305  0.00  0.00    +0.000 A 
ATOM     24  C   UNL     1      46.043   3.553   7.303  0.00  0.00    +0.000 A 
ATOM     25  C   UNL     1      46.723   3.251   6.125  0.00  0.00    +0.000 A 
ATOM     26  C   UNL     1      47.235   1.976   5.972  0.00  0.00    +0.000 A 
ATOM     27  N   UNL     1      47.107   1.005   6.899  0.00  0.00    +0.000 NA
ATOM     28  C   UNL     1      46.432   1.332   8.030  0.00  0.00    +0.000 A 
ENDBRANCH  21  23
ENDBRANCH   1  17
TORSDOF 4
ENDMDL
MODEL 5
REMARK VINA RESULT:    -7.017      4.193      8.813
REMARK INTER + INTRA:          -8.879
REMARK INTER:                  -8.325
REMARK INTRA:                  -0.554
REMARK UNBOUND:                -0.222
REMARK  Name = 
REMARK  4 active torsions:
REMARK  status: ('A' for Active; 'I' for Inactive)
REMARK    1  A    between atoms: C_2  and  C_4
REMARK    2  A    between atoms: N_8  and  C_9
REMARK    3  A    between atoms: C_9  and  C_10
REMARK    4  A    between atoms: C_14  and  C_15
REMARK                            x       y       z     vdW  Elec       q    Type
REMARK                         _______ _______ _______ _____ _____    ______ ____
ROOT
ATOM      1  C   UNL     1      48.225   3.371  17.053  0.00  0.00    +0.000 C 
ATOM      2  C   UNL     1      47.993   3.667  18.527  0.00  0.00    +0.000 C 
ATOM      3  C   UNL     1      46.964   2.897  17.769  0.00  0.00    +0.000 C 
ENDROOT
BRANCH   1   8
ATOM      4  C   UNL     1      53.081   2.018  18.225  0.00  0.00    +0.000 A 
ATOM      5  C   UNL     1      52.446   3.251  18.303  0.00  0.00    +0.000 A 
ATOM      6  C   UNL     1      51.157   3.385  17.786  0.00  0.00    +0.000 A 
ATOM      7  C   UNL     1      50.516   2.293  17.208  0.00  0.00    +0.000 A 
ATOM      8  N   UNL     1      49.227   2.367  16.673  0.00  0.00    +0.000 N 
ATOM      9  N   UNL     1      51.131   1.095  17.112  0.00  0.00    +0.000 NA
ATOM     10  C   UNL     1      52.394   0.983  17.607  0.00  0.00    +0.000 A 
ATOM     11  H   UNL     1      48.936   1.438  16.390  0.00  0.00    +0.000 HD
BRANCH   4  13
ATOM     12  N   UNL     1      55.428   2.633  18.313  0.00  0.00    +0.000 N 
ATOM     13  C   UNL     1      54.441   1.784  18.740  0.00  0.00    +0.000 C 
ATOM     14  O   UNL     1      54.680   0.895  19.546  0.00  0.00    +0.000 OA
ATOM     15  H   UNL     1      56.339   2.519  18.736  0.00  0.00    +0.000 HD
ATOM     16  H   UNL     1      55.233   3.506  17.844  0.00  0.00    +0.000 HD
ENDBRANCH   4  13
ENDBRANCH   1   8
BRANCH   1  17
ATOM     17  C   UNL     1      48.003   4.481  16.029  0.00  0.00    +0.000 A 
ATOM     18  C   UNL     1      48.703   5.695  16.100  0.00  0.00    +0.000 A 
ATOM     19  C   UNL     1      48.577   6.661  15.100  0.00  0.00    +0.000 A 
ATOM     20  C   UNL     1      47.738   6.431  14.010  0.00  0.00    +0.000 A 
ATOM     21  C   UNL     1      47.008   5.240  13.897  0.00  0.00    +0.000 A 
ATOM     22  C   UNL     1      47.148   4.296  14.926  0.00  0.00    +0.000 A 
BRANCH  21  23
ATOM     23  C   UNL     1      46.194   4.929  12.710  0.00  0.00    +0.000 A 
ATOM     24  C   UNL     1      46.037   5.856  11.670  0.00  0.00    +0.000 A 
ATOM     25  C   UNL     1      45.315   5.527  10.525  0.00  0.00    +0.000 A 
ATOM     26  C   UNL     1      44.761   4.263  10.440  0.00  0.00    +0.000 A 
ATOM     27  N   UNL     1      44.875   3.332  11.409  0.00  0.00    +0.000 NA
ATOM     28  C   UNL     1      45.578   3.690  12.513  0.00  0.00    +0.000 A 
ENDBRANCH  21  23
ENDBRANCH   1  17
TORSDOF 4
ENDMDL
MODEL 6
REMARK VINA RESULT:    -6.984      4.178      7.092
REMARK INTER + INTRA:          -8.840
REMARK INTER:                  -8.245
REMARK INTRA:                  -0.594
REMARK UNBOUND:                -0.222
REMARK  Name = 
REMARK  4 active torsions:
REMARK  status: ('A' for Active; 'I' for Inactive)
REMARK    1  A    between atoms: C_2  and  C_4
REMARK    2  A    between atoms: N_8  and  C_9
REMARK    3  A    between atoms: C_9  and  C_10
REMARK    4  A    between atoms: C_14  and  C_15
REMARK                            x       y       z     vdW  Elec       q    Type
REMARK                         _______ _______ _______ _____ _____    ______ ____
ROOT
ATOM      1  C   UNL     1      45.842   4.450  12.986  0.00  0.00    +0.000 C 
ATOM      2  C   UNL     1      44.377   4.130  13.239  0.00  0.00    +0.000 C 
ATOM      3  C   UNL     1      44.961   3.846  11.896  0.00  0.00    +0.000 C 
ENDROOT
BRANCH   1   8
ATOM      4  C   UNL     1      48.292   3.861  17.506  0.00  0.00    +0.000 A 
ATOM      5  C   UNL     1      47.705   4.985  16.939  0.00  0.00    +0.000 A 
ATOM      6  C   UNL     1      47.228   4.916  15.631  0.00  0.00    +0.000 A 
ATOM      7  C   UNL     1      47.334   3.732  14.907  0.00  0.00    +0.000 A 
ATOM      8  N   UNL     1      46.876   3.604  13.593  0.00  0.00    +0.000 N 
ATOM      9  N   UNL     1      47.918   2.639  15.442  0.00  0.00    +0.000 NA
ATOM     10  C   UNL     1      48.393   2.725  16.714  0.00  0.00    +0.000 A 
ATOM     11  H   UNL     1      46.978   2.637  13.303  0.00  0.00    +0.000 HD
BRANCH   4  13
ATOM     12  N   UNL     1      48.284   2.936  19.751  0.00  0.00    +0.000 N 
ATOM     13  C   UNL     1      48.827   3.842  18.878  0.00  0.00    +0.000 C 
ATOM     14  O   UNL     1      49.745   4.575  19.221  0.00  0.00    +0.000 OA
ATOM     15  H   UNL     1      48.713   2.871  20.663  0.00  0.00    +0.000 HD
ATOM     16  H   UNL     1      47.702   2.168  19.448  0.00  0.00    +0.000 HD
ENDBRANCH   4  13
ENDBRANCH   1   8
BRANCH   1  17
ATOM     17  C   UNL     1      46.254   5.901  12.747  0.00  0.00    +0.000 A 
ATOM     18  C   UNL     1      45.321   6.948  12.805  0.00  0.00    +0.000 A 
ATOM     19  C   UNL     1      45.721   8.280  12.694  0.00  0.00    +0.000 A 
ATOM     20  C   UNL     1      47.069   8.591  12.516  0.00  0.00    +0.000 A 
ATOM     21  C   UNL     1      48.040   7.583  12.442  0.00  0.00    +0.000 A 
ATOM     22  C   UNL     1      47.601   6.253  12.543  0.00  0.00    +0.000 A 
BRANCH  21  23
ATOM     23  C   UNL     1      49.479   7.885  12.355  0.00  0.00    +0.000 A 
ATOM     24  C   UNL     1      50.175   7.773  11.143  0.00  0.00    +0.000 A 
ATOM     25  C   UNL     1      51.521   8.121  11.060  0.00  0.00    +0.000 A 
ATOM     26  C   UNL     1      52.151   8.582  12.202  0.00  0.00    +0.000 A 
ATOM     27  N   UNL     1      51.535   8.707  13.394  0.00  0.00    +0.000 NA
ATOM     28  C   UNL     1      50.226   8.352  13.440  0.00  0.00    +0.000 A 
ENDBRANCH  21  23
ENDBRANCH   1  17
TORSDOF 4
ENDMDL
MODEL 7
REMARK VINA RESULT:    -6.866      2.228      3.013
REMARK INTER + INTRA:          -8.693
REMARK INTER:                  -8.069
REMARK INTRA:                  -0.624
REMARK UNBOUND:                -0.222
REMARK  Name = 
REMARK  4 active torsions:
REMARK  status: ('A' for Active; 'I' for Inactive)
REMARK    1  A    between atoms: C_2  and  C_4
REMARK    2  A    between atoms: N_8  and  C_9
REMARK    3  A    between atoms: C_9  and  C_10
REMARK    4  A    between atoms: C_14  and  C_15
REMARK                            x       y       z     vdW  Elec       q    Type
REMARK                         _______ _______ _______ _____ _____    ______ ____
ROOT
ATOM      1  C   UNL     1      44.042   5.295  11.635  0.00  0.00    +0.000 C 
ATOM      2  C   UNL     1      44.301   4.274  12.732  0.00  0.00    +0.000 C 
ATOM      3  C   UNL     1      43.051   5.087  12.777  0.00  0.00    +0.000 C 
ENDROOT
BRANCH   1   8
ATOM      4  C   UNL     1      46.281   3.574   7.299  0.00  0.00    +0.000 A 
ATOM      5  C   UNL     1      46.766   4.420   8.288  0.00  0.00    +0.000 A 
ATOM      6  C   UNL     1      45.903   4.850   9.297  0.00  0.00    +0.000 A 
ATOM      7  C   UNL     1      44.577   4.429   9.312  0.00  0.00    +0.000 A 
ATOM      8  N   UNL     1      43.667   4.829  10.295  0.00  0.00    +0.000 N 
ATOM      9  N   UNL     1      44.091   3.621   8.347  0.00  0.00    +0.000 NA
ATOM     10  C   UNL     1      44.940   3.222   7.360  0.00  0.00    +0.000 A 
ATOM     11  H   UNL     1      42.794   4.331  10.154  0.00  0.00    +0.000 HD
BRANCH   4  13
ATOM     12  N   UNL     1      48.391   2.677   6.501  0.00  0.00    +0.000 N 
ATOM     13  C   UNL     1      47.116   3.073   6.195  0.00  0.00    +0.000 C 
ATOM     14  O   UNL     1      46.683   2.973   5.054  0.00  0.00    +0.000 OA
ATOM     15  H   UNL     1      48.927   2.255   5.756  0.00  0.00    +0.000 HD
ATOM     16  H   UNL     1      48.701   2.522   7.449  0.00  0.00    +0.000 HD
ENDBRANCH   4  13
ENDBRANCH   1   8
BRANCH   1  17
ATOM     17  C   UNL     1      44.789   6.627  11.669  0.00  0.00    +0.000 A 
ATOM     18  C   UNL     1      44.168   7.826  11.288  0.00  0.00    +0.000 A 
ATOM     19  C   UNL     1      44.820   9.053  11.425  0.00  0.00    +0.000 A 
ATOM     20  C   UNL     1      46.114   9.101  11.943  0.00  0.00    +0.000 A 
ATOM     21  C   UNL     1      46.783   7.931  12.330  0.00  0.00    +0.000 A 
ATOM     22  C   UNL     1      46.104   6.714  12.165  0.00  0.00    +0.000 A 
BRANCH  21  23
ATOM     23  C   UNL     1      48.108   7.961  12.970  0.00  0.00    +0.000 A 
ATOM     24  C   UNL     1      49.005   9.014  12.741  0.00  0.00    +0.000 A 
ATOM     25  C   UNL     1      50.231   9.062  13.401  0.00  0.00    +0.000 A 
ATOM     26  C   UNL     1      50.537   8.047  14.289  0.00  0.00    +0.000 A 
ATOM     27  N   UNL     1      49.717   7.009  14.547  0.00  0.00    +0.000 NA
ATOM     28  C   UNL     1      48.535   6.990  13.880  0.00  0.00    +0.000 A 
ENDBRANCH  21  23
ENDBRANCH   1  17
TORSDOF 4
ENDMDL
MODEL 8
REMARK VINA RESULT:    -6.702      3.204      5.174
REMARK INTER + INTRA:          -8.491
REMARK INTER:                  -7.736
REMARK INTRA:                  -0.755
REMARK UNBOUND:                -0.222
REMARK  Name = 
REMARK  4 active torsions:
REMARK  status: ('A' for Active; 'I' for Inactive)
REMARK    1  A    between atoms: C_2  and  C_4
REMARK    2  A    between atoms: N_8  and  C_9
REMARK    3  A    between atoms: C_9  and  C_10
REMARK    4  A    between atoms: C_14  and  C_15
REMARK                            x       y       z     vdW  Elec       q    Type
REMARK                         _______ _______ _______ _____ _____    ______ ____
ROOT
ATOM      1  C   UNL     1      48.565   8.592  12.672  0.00  0.00    +0.000 C 
ATOM      2  C   UNL     1      48.193   9.963  12.127  0.00  0.00    +0.000 C 
ATOM      3  C   UNL     1      49.615   9.515  12.060  0.00  0.00    +0.000 C 
ENDROOT
BRANCH   1   8
ATOM      4  C   UNL     1      44.334   5.781  11.683  0.00  0.00    +0.000 A 
ATOM      5  C   UNL     1      44.647   6.584  12.772  0.00  0.00    +0.000 A 
ATOM      6  C   UNL     1      45.927   7.129  12.868  0.00  0.00    +0.000 A 
ATOM      7  C   UNL     1      46.874   6.876  11.879  0.00  0.00    +0.000 A 
ATOM      8  N   UNL     1      48.171   7.393  11.923  0.00  0.00    +0.000 N 
ATOM      9  N   UNL     1      46.585   6.083  10.826  0.00  0.00    +0.000 NA
ATOM     10  C   UNL     1      45.337   5.545  10.753  0.00  0.00    +0.000 A 
ATOM     11  H   UNL     1      48.650   7.151  11.061  0.00  0.00    +0.000 HD
BRANCH   4  13
ATOM     12  N   UNL     1      41.912   5.937  11.756  0.00  0.00    +0.000 N 
ATOM     13  C   UNL     1      43.011   5.161  11.500  0.00  0.00    +0.000 C 
ATOM     14  O   UNL     1      42.889   4.011  11.098  0.00  0.00    +0.000 OA
ATOM     15  H   UNL     1      41.010   5.533  11.546  0.00  0.00    +0.000 HD
ATOM     16  H   UNL     1      41.965   6.941  11.858  0.00  0.00    +0.000 HD
ENDBRANCH   4  13
ENDBRANCH   1   8
BRANCH   1  17
ATOM     17  C   UNL     1      48.681   8.400  14.183  0.00  0.00    +0.000 A 
ATOM     18  C   UNL     1      48.455   9.458  15.076  0.00  0.00    +0.000 A 
ATOM     19  C   UNL     1      48.456   9.251  16.456  0.00  0.00    +0.000 A 
ATOM     20  C   UNL     1      48.691   7.975  16.970  0.00  0.00    +0.000 A 
ATOM     21  C   UNL     1      48.932   6.886  16.121  0.00  0.00    +0.000 A 
ATOM     22  C   UNL     1      48.938   7.133  14.739  0.00  0.00    +0.000 A 
BRANCH  21  23
ATOM     23  C   UNL     1      49.083   5.513  16.631  0.00  0.00    +0.000 A 
ATOM     24  C   UNL     1      48.007   4.615  16.638  0.00  0.00    +0.000 A 
ATOM     25  C   UNL     1      48.178   3.301  17.065  0.00  0.00    +0.000 A 
ATOM     26  C   UNL     1      49.437   2.904  17.478  0.00  0.00    +0.000 A 
ATOM     27  N   UNL     1      50.508   3.723  17.496  0.00  0.00    +0.000 NA
ATOM     28  C   UNL     1      50.302   4.999  17.081  0.00  0.00    +0.000 A 
ENDBRANCH  21  23
ENDBRANCH   1  17
TORSDOF 4
ENDMDL
MODEL 9
REMARK VINA RESULT:    -6.665      4.350      6.358
REMARK INTER + INTRA:          -8.445
REMARK INTER:                  -7.636
REMARK INTRA:                  -0.809
REMARK UNBOUND:                -0.222
REMARK  Name = 
REMARK  4 active torsions:
REMARK  status: ('A' for Active; 'I' for Inactive)
REMARK    1  A    between atoms: C_2  and  C_4
REMARK    2  A    between atoms: N_8  and  C_9
REMARK    3  A    between atoms: C_9  and  C_10
REMARK    4  A    between atoms: C_14  and  C_15
REMARK                            x       y       z     vdW  Elec       q    Type
REMARK                         _______ _______ _______ _____ _____    ______ ____
ROOT
ATOM      1  C   UNL     1      47.820   8.272  13.782  0.00  0.00    +0.000 C 
ATOM      2  C   UNL     1      48.566   7.291  14.673  0.00  0.00    +0.000 C 
ATOM      3  C   UNL     1      48.271   8.660  15.188  0.00  0.00    +0.000 C 
ENDROOT
BRANCH   1   8
ATOM      4  C   UNL     1      44.679   5.264  10.978  0.00  0.00    +0.000 A 
ATOM      5  C   UNL     1      45.989   5.661  10.746  0.00  0.00    +0.000 A 
ATOM      6  C   UNL     1      46.574   6.602  11.593  0.00  0.00    +0.000 A 
ATOM      7  C   UNL     1      45.853   7.128  12.661  0.00  0.00    +0.000 A 
ATOM      8  N   UNL     1      46.386   8.074  13.542  0.00  0.00    +0.000 N 
ATOM      9  N   UNL     1      44.574   6.762  12.886  0.00  0.00    +0.000 NA
ATOM     10  C   UNL     1      44.011   5.854  12.042  0.00  0.00    +0.000 A 
ATOM     11  H   UNL     1      45.716   8.243  14.285  0.00  0.00    +0.000 HD
BRANCH   4  13
ATOM     12  N   UNL     1      44.104   4.415   8.777  0.00  0.00    +0.000 N 
ATOM     13  C   UNL     1      43.980   4.280  10.135  0.00  0.00    +0.000 C 
ATOM     14  O   UNL     1      43.344   3.353  10.619  0.00  0.00    +0.000 OA
ATOM     15  H   UNL     1      43.692   3.688   8.209  0.00  0.00    +0.000 HD
ATOM     16  H   UNL     1      44.798   5.011   8.350  0.00  0.00    +0.000 HD
ENDBRANCH   4  13
ENDBRANCH   1   8
BRANCH   1  17
ATOM     17  C   UNL     1      48.574   8.970  12.652  0.00  0.00    +0.000 A 
ATOM     18  C   UNL     1      48.145  10.202  12.136  0.00  0.00    +0.000 A 
ATOM     19  C   UNL     1      48.897  10.887  11.180  0.00  0.00    +0.000 A 
ATOM     20  C   UNL     1      50.096  10.344  10.717  0.00  0.00    +0.000 A 
ATOM     21  C   UNL     1      50.564   9.112  11.192  0.00  0.00    +0.000 A 
ATOM     22  C   UNL     1      49.776   8.444  12.142  0.00  0.00    +0.000 A 
BRANCH  21  23
ATOM     23  C   UNL     1      51.872   8.564  10.796  0.00  0.00    +0.000 A 
ATOM     24  C   UNL     1      51.979   7.313  10.171  0.00  0.00    +0.000 A 
ATOM     25  C   UNL     1      53.216   6.833   9.746  0.00  0.00    +0.000 A 
ATOM     26  C   UNL     1      54.332   7.624   9.951  0.00  0.00    +0.000 A 
ATOM     27  N   UNL     1      54.290   8.831  10.547  0.00  0.00    +0.000 NA
ATOM     28  C   UNL     1      53.071   9.264  10.957  0.00  0.00    +0.000 A 
ENDBRANCH  21  23
ENDBRANCH   1  17
TORSDOF 4
ENDMDL
