MODEL 1
REMARK VINA RESULT:    -9.155      0.000      0.000
REMARK INTER + INTRA:         -13.774
REMARK INTER:                 -12.634
REMARK INTRA:                  -1.140
REMARK UNBOUND:                -1.140
REMARK  Name = 
REMARK  7 active torsions:
REMARK  status: ('A' for Active; 'I' for Inactive)
REMARK    1  A    between atoms: C_2  and  C_4
REMARK    2  A    between atoms: C_7  and  N_8
REMARK    3  A    between atoms: N_8  and  C_9
REMARK    4  A    between atoms: C_9  and  C_10
REMARK    5  A    between atoms: C_10  and  O_11
REMARK    6  A    between atoms: C_10  and  C_12
REMARK    7  A    between atoms: C_16  and  C_17
REMARK                            x       y       z     vdW  Elec       q    Type
REMARK                         _______ _______ _______ _____ _____    ______ ____
ROOT
ATOM      1  C   UNL     1      43.375   5.453  12.394  0.00  0.00    +0.000 C 
ENDROOT
BRANCH   1   2
ATOM      2  C   UNL     1      44.848   5.555  12.752  0.00  0.00    +0.000 A 
ATOM      3  C   UNL     1      45.502   4.459  13.328  0.00  0.00    +0.000 A 
ATOM      4  C   UNL     1      46.856   4.531  13.646  0.00  0.00    +0.000 A 
ATOM      5  C   UNL     1      47.582   5.689  13.369  0.00  0.00    +0.000 A 
ATOM      6  C   UNL     1      46.978   6.801  12.753  0.00  0.00    +0.000 A 
ATOM      7  C   UNL     1      45.596   6.719  12.487  0.00  0.00    +0.000 A 
BRANCH   6   8
ATOM      8  C   UNL     1      47.777   7.972  12.317  0.00  0.00    +0.000 A 
ATOM      9  C   UNL     1      49.114   7.812  11.897  0.00  0.00    +0.000 A 
ATOM     10  C   UNL     1      49.860   8.883  11.397  0.00  0.00    +0.000 A 
ATOM     11  C   UNL     1      49.278  10.140  11.298  0.00  0.00    +0.000 A 
ATOM     12 CL   UNL     1      50.180  11.451  10.645  0.00  0.00    +0.000 Cl
ATOM     13  C   UNL     1      47.967  10.337  11.715  0.00  0.00    +0.000 A 
ATOM     14  C   UNL     1      47.229   9.264  12.230  0.00  0.00    +0.000 A 
ENDBRANCH   6   8
ENDBRANCH   1   2
BRANCH   1  15
ATOM     15  O   UNL     1      42.617   5.066  13.549  0.00  0.00    +0.000 OA
ATOM     16  H   UNL     1      41.800   5.590  13.560  0.00  0.00    +0.000 HD
ENDBRANCH   1  15
BRANCH   1  17
ATOM     17  C   UNL     1      43.116   4.450  11.247  0.00  0.00    +0.000 C 
BRANCH  17  18
ATOM     18  N   UNL     1      43.759   4.890  10.007  0.00  0.00    +0.000 N 
ATOM     19  H   UNL     1      43.161   5.480   9.424  0.00  0.00    +0.000 HD
BRANCH  18  23
ATOM     20  C   UNL     1      46.337   2.309   7.889  0.00  0.00    +0.000 A 
ATOM     21  C   UNL     1      45.421   1.773   8.795  0.00  0.00    +0.000 A 
ATOM     22  C   UNL     1      44.548   2.621   9.485  0.00  0.00    +0.000 A 
ATOM     23  C   UNL     1      44.548   4.006   9.275  0.00  0.00    +0.000 A 
ATOM     24  C   UNL     1      45.488   4.527   8.374  0.00  0.00    +0.000 A 
ATOM     25  C   UNL     1      46.383   3.690   7.693  0.00  0.00    +0.000 A 
BRANCH  20  27
ATOM     26  N   UNL     1      48.350   2.073   6.540  0.00  0.00    +0.000 N 
ATOM     27  C   UNL     1      47.307   1.447   7.168  0.00  0.00    +0.000 C 
ATOM     28  O   UNL     1      47.203   0.229   7.159  0.00  0.00    +0.000 OA
ATOM     29  H   UNL     1      49.051   1.474   6.142  0.00  0.00    +0.000 HD
ATOM     30  H   UNL     1      48.604   3.027   6.745  0.00  0.00    +0.000 HD
ENDBRANCH  20  27
ENDBRANCH  18  23
ENDBRANCH  17  18
ENDBRANCH   1  17
TORSDOF 7
ENDMDL
MODEL 2
REMARK VINA RESULT:    -9.144      2.781      4.145
REMARK INTER + INTRA:         -13.758
REMARK INTER:                 -12.756
REMARK INTRA:                  -1.002
REMARK UNBOUND:                -1.140
REMARK  Name = 
REMARK  7 active torsions:
REMARK  status: ('A' for Active; 'I' for Inactive)
REMARK    1  A    between atoms: C_2  and  C_4
REMARK    2  A    between atoms: C_7  and  N_8
REMARK    3  A    between atoms: N_8  and  C_9
REMARK    4  A    between atoms: C_9  and  C_10
REMARK    5  A    between atoms: C_10  and  O_11
REMARK    6  A    between atoms: C_10  and  C_12
REMARK    7  A    between atoms: C_16  and  C_17
REMARK                            x       y       z     vdW  Elec       q    Type
REMARK                         _______ _______ _______ _____ _____    ______ ____
ROOT
ATOM      1  C   UNL     1      43.587   5.656  12.107  0.00  0.00    +0.000 C 
ENDROOT
BRANCH   1   2
ATOM      2  C   UNL     1      45.066   5.843  12.399  0.00  0.00    +0.000 A 
ATOM      3  C   UNL     1      45.865   6.571  11.509  0.00  0.00    +0.000 A 
ATOM      4  C   UNL     1      47.219   6.765  11.771  0.00  0.00    +0.000 A 
ATOM      5  C   UNL     1      47.788   6.257  12.938  0.00  0.00    +0.000 A 
ATOM      6  C   UNL     1      47.017   5.553  13.882  0.00  0.00    +0.000 A 
ATOM      7  C   UNL     1      45.661   5.329  13.568  0.00  0.00    +0.000 A 
BRANCH   6   8
ATOM      8  C   UNL     1      47.581   5.147  15.193  0.00  0.00    +0.000 A 
ATOM      9  C   UNL     1      48.532   5.957  15.847  0.00  0.00    +0.000 A 
ATOM     10  C   UNL     1      49.011   5.644  17.121  0.00  0.00    +0.000 A 
ATOM     11  C   UNL     1      48.541   4.511  17.774  0.00  0.00    +0.000 A 
ATOM     12 CL   UNL     1      49.098   4.144  19.359  0.00  0.00    +0.000 Cl
ATOM     13  C   UNL     1      47.613   3.682  17.154  0.00  0.00    +0.000 A 
ATOM     14  C   UNL     1      47.147   3.993  15.870  0.00  0.00    +0.000 A 
ENDBRANCH   6   8
ENDBRANCH   1   2
BRANCH   1  15
ATOM     15  O   UNL     1      42.855   5.555  13.336  0.00  0.00    +0.000 OA
ATOM     16  H   UNL     1      41.948   5.283  13.124  0.00  0.00    +0.000 HD
ENDBRANCH   1  15
BRANCH   1  17
ATOM     17  C   UNL     1      43.311   4.408  11.239  0.00  0.00    +0.000 C 
BRANCH  17  18
ATOM     18  N   UNL     1      43.623   4.666   9.831  0.00  0.00    +0.000 N 
ATOM     19  H   UNL     1      42.796   4.829   9.253  0.00  0.00    +0.000 HD
BRANCH  18  23
ATOM     20  C   UNL     1      46.457   2.323   7.764  0.00  0.00    +0.000 A 
ATOM     21  C   UNL     1      46.457   3.708   7.595  0.00  0.00    +0.000 A 
ATOM     22  C   UNL     1      45.534   4.494   8.293  0.00  0.00    +0.000 A 
ATOM     23  C   UNL     1      44.615   3.929   9.187  0.00  0.00    +0.000 A 
ATOM     24  C   UNL     1      44.619   2.534   9.330  0.00  0.00    +0.000 A 
ATOM     25  C   UNL     1      45.523   1.734   8.619  0.00  0.00    +0.000 A 
BRANCH  20  27
ATOM     26  N   UNL     1      48.510   2.043   6.484  0.00  0.00    +0.000 N 
ATOM     27  C   UNL     1      47.393   1.451   7.011  0.00  0.00    +0.000 C 
ATOM     28  O   UNL     1      47.199   0.250   6.891  0.00  0.00    +0.000 OA
ATOM     29  H   UNL     1      49.183   1.425   6.066  0.00  0.00    +0.000 HD
ATOM     30  H   UNL     1      48.825   2.953   6.783  0.00  0.00    +0.000 HD
ENDBRANCH  20  27
ENDBRANCH  18  23
ENDBRANCH  17  18
ENDBRANCH   1  17
TORSDOF 7
ENDMDL
MODEL 3
REMARK VINA RESULT:    -8.414      2.910      4.022
REMARK INTER + INTRA:         -12.751
REMARK INTER:                 -11.664
REMARK INTRA:                  -1.087
REMARK UNBOUND:                -1.140
REMARK  Name = 
REMARK  7 active torsions:
REMARK  status: ('A' for Active; 'I' for Inactive)
REMARK    1  A    between atoms: C_2  and  C_4
REMARK    2  A    between atoms: C_7  and  N_8
REMARK    3  A    between atoms: N_8  and  C_9
REMARK    4  A    between atoms: C_9  and  C_10
REMARK    5  A    between atoms: C_10  and  O_11
REMARK    6  A    between atoms: C_10  and  C_12
REMARK    7  A    between atoms: C_16  and  C_17
REMARK                            x       y       z     vdW  Elec       q    Type
REMARK                         _______ _______ _______ _____ _____    ______ ____
ROOT
ATOM      1  C   UNL     1      43.646   4.820  12.462  0.00  0.00    +0.000 C 
ENDROOT
BRANCH   1   2
ATOM      2  C   UNL     1      45.071   5.314  12.647  0.00  0.00    +0.000 A 
ATOM      3  C   UNL     1      45.662   6.119  11.665  0.00  0.00    +0.000 A 
ATOM      4  C   UNL     1      46.961   6.593  11.828  0.00  0.00    +0.000 A 
ATOM      5  C   UNL     1      47.679   6.292  12.985  0.00  0.00    +0.000 A 
ATOM      6  C   UNL     1      47.113   5.521  14.017  0.00  0.00    +0.000 A 
ATOM      7  C   UNL     1      45.815   5.013  13.804  0.00  0.00    +0.000 A 
BRANCH   6   8
ATOM      8  C   UNL     1      47.812   5.329  15.311  0.00  0.00    +0.000 A 
ATOM      9  C   UNL     1      47.582   4.174  16.087  0.00  0.00    +0.000 A 
ATOM     10  C   UNL     1      48.293   3.926  17.264  0.00  0.00    +0.000 A 
ATOM     11  C   UNL     1      49.259   4.831  17.687  0.00  0.00    +0.000 A 
ATOM     12 CL   UNL     1      50.165   4.509  19.114  0.00  0.00    +0.000 Cl
ATOM     13  C   UNL     1      49.503   5.987  16.955  0.00  0.00    +0.000 A 
ATOM     14  C   UNL     1      48.776   6.237  15.784  0.00  0.00    +0.000 A 
ENDBRANCH   6   8
ENDBRANCH   1   2
BRANCH   1  15
ATOM     15  O   UNL     1      43.423   3.658  13.273  0.00  0.00    +0.000 OA
ATOM     16  H   UNL     1      43.280   3.952  14.186  0.00  0.00    +0.000 HD
ENDBRANCH   1  15
BRANCH   1  17
ATOM     17  C   UNL     1      43.324   4.490  10.987  0.00  0.00    +0.000 C 
BRANCH  17  18
ATOM     18  N   UNL     1      43.829   3.164  10.622  0.00  0.00    +0.000 N 
ATOM     19  H   UNL     1      44.146   2.613  11.423  0.00  0.00    +0.000 HD
BRANCH  18  23
ATOM     20  C   UNL     1      46.398   2.814   7.295  0.00  0.00    +0.000 A 
ATOM     21  C   UNL     1      46.047   1.671   8.014  0.00  0.00    +0.000 A 
ATOM     22  C   UNL     1      45.179   1.776   9.106  0.00  0.00    +0.000 A 
ATOM     23  C   UNL     1      44.624   3.004   9.489  0.00  0.00    +0.000 A 
ATOM     24  C   UNL     1      45.002   4.144   8.765  0.00  0.00    +0.000 A 
ATOM     25  C   UNL     1      45.889   4.055   7.683  0.00  0.00    +0.000 A 
BRANCH  20  27
ATOM     26  N   UNL     1      48.651   2.449   6.446  0.00  0.00    +0.000 N 
ATOM     27  C   UNL     1      47.348   2.751   6.155  0.00  0.00    +0.000 C 
ATOM     28  O   UNL     1      46.982   2.926   5.002  0.00  0.00    +0.000 OA
ATOM     29  H   UNL     1      49.260   2.310   5.659  0.00  0.00    +0.000 HD
ATOM     30  H   UNL     1      48.924   2.049   7.331  0.00  0.00    +0.000 HD
ENDBRANCH  20  27
ENDBRANCH  18  23
ENDBRANCH  17  18
ENDBRANCH   1  17
TORSDOF 7
ENDMDL
MODEL 4
REMARK VINA RESULT:    -8.373      1.684      2.166
REMARK INTER + INTRA:         -12.694
REMARK INTER:                 -12.031
REMARK INTRA:                  -0.663
REMARK UNBOUND:                -1.140
REMARK  Name = 
REMARK  7 active torsions:
REMARK  status: ('A' for Active; 'I' for Inactive)
REMARK    1  A    between atoms: C_2  and  C_4
REMARK    2  A    between atoms: C_7  and  N_8
REMARK    3  A    between atoms: N_8  and  C_9
REMARK    4  A    between atoms: C_9  and  C_10
REMARK    5  A    between atoms: C_10  and  O_11
REMARK    6  A    between atoms: C_10  and  C_12
REMARK    7  A    between atoms: C_16  and  C_17
REMARK                            x       y       z     vdW  Elec       q    Type
REMARK                         _______ _______ _______ _____ _____    ______ ____
ROOT
ATOM      1  C   UNL     1      44.520   3.697  12.659  0.00  0.00    +0.000 C 
ENDROOT
BRANCH   1   2
ATOM      2  C   UNL     1      44.976   5.113  12.351  0.00  0.00    +0.000 A 
ATOM      3  C   UNL     1      44.032   6.089  12.009  0.00  0.00    +0.000 A 
ATOM      4  C   UNL     1      44.432   7.396  11.741  0.00  0.00    +0.000 A 
ATOM      5  C   UNL     1      45.778   7.751  11.834  0.00  0.00    +0.000 A 
ATOM      6  C   UNL     1      46.757   6.814  12.213  0.00  0.00    +0.000 A 
ATOM      7  C   UNL     1      46.331   5.489  12.431  0.00  0.00    +0.000 A 
BRANCH   6   8
ATOM      8  C   UNL     1      48.161   7.223  12.465  0.00  0.00    +0.000 A 
ATOM      9  C   UNL     1      48.958   7.734  11.420  0.00  0.00    +0.000 A 
ATOM     10  C   UNL     1      50.253   8.208  11.648  0.00  0.00    +0.000 A 
ATOM     11  C   UNL     1      50.776   8.188  12.935  0.00  0.00    +0.000 A 
ATOM     12 CL   UNL     1      52.353   8.809  13.226  0.00  0.00    +0.000 Cl
ATOM     13  C   UNL     1      50.024   7.678  13.987  0.00  0.00    +0.000 A 
ATOM     14  C   UNL     1      48.732   7.190  13.750  0.00  0.00    +0.000 A 
ENDBRANCH   6   8
ENDBRANCH   1   2
BRANCH   1  15
ATOM     15  O   UNL     1      45.657   2.830  12.771  0.00  0.00    +0.000 OA
ATOM     16  H   UNL     1      45.340   1.952  13.036  0.00  0.00    +0.000 HD
ENDBRANCH   1  15
BRANCH   1  17
ATOM     17  C   UNL     1      43.554   3.143  11.587  0.00  0.00    +0.000 C 
BRANCH  17  18
ATOM     18  N   UNL     1      43.695   3.872  10.324  0.00  0.00    +0.000 N 
ATOM     19  H   UNL     1      42.805   4.193   9.937  0.00  0.00    +0.000 HD
BRANCH  18  23
ATOM     20  C   UNL     1      46.582   2.648   7.502  0.00  0.00    +0.000 A 
ATOM     21  C   UNL     1      45.943   1.691   8.291  0.00  0.00    +0.000 A 
ATOM     22  C   UNL     1      44.970   2.086   9.214  0.00  0.00    +0.000 A 
ATOM     23  C   UNL     1      44.593   3.428   9.356  0.00  0.00    +0.000 A 
ATOM     24  C   UNL     1      45.258   4.378   8.567  0.00  0.00    +0.000 A 
ATOM     25  C   UNL     1      46.251   3.996   7.655  0.00  0.00    +0.000 A 
BRANCH  20  27
ATOM     26  N   UNL     1      47.768   3.039   5.412  0.00  0.00    +0.000 N 
ATOM     27  C   UNL     1      47.649   2.274   6.540  0.00  0.00    +0.000 C 
ATOM     28  O   UNL     1      48.413   1.344   6.757  0.00  0.00    +0.000 OA
ATOM     29  H   UNL     1      48.555   2.838   4.821  0.00  0.00    +0.000 HD
ATOM     30  H   UNL     1      47.338   3.948   5.333  0.00  0.00    +0.000 HD
ENDBRANCH  20  27
ENDBRANCH  18  23
ENDBRANCH  17  18
ENDBRANCH   1  17
TORSDOF 7
ENDMDL
MODEL 5
REMARK VINA RESULT:    -7.953      1.698      2.222
REMARK INTER + INTRA:         -12.115
REMARK INTER:                 -11.177
REMARK INTRA:                  -0.938
REMARK UNBOUND:                -1.140
REMARK  Name = 
REMARK  7 active torsions:
REMARK  status: ('A' for Active; 'I' for Inactive)
REMARK    1  A    between atoms: C_2  and  C_4
REMARK    2  A    between atoms: C_7  and  N_8
REMARK    3  A    between atoms: N_8  and  C_9
REMARK    4  A    between atoms: C_9  and  C_10
REMARK    5  A    between atoms: C_10  and  O_11
REMARK    6  A    between atoms: C_10  and  C_12
REMARK    7  A    between atoms: C_16  and  C_17
REMARK                            x       y       z     vdW  Elec       q    Type
REMARK                         _______ _______ _______ _____ _____    ______ ____
ROOT
ATOM      1  C   UNL     1      44.705   6.148  11.283  0.00  0.00    +0.000 C 
ENDROOT
BRANCH   1   2
ATOM      2  C   UNL     1      45.753   5.884  12.350  0.00  0.00    +0.000 A 
ATOM      3  C   UNL     1      45.637   4.761  13.177  0.00  0.00    +0.000 A 
ATOM      4  C   UNL     1      46.598   4.496  14.149  0.00  0.00    +0.000 A 
ATOM      5  C   UNL     1      47.703   5.335  14.291  0.00  0.00    +0.000 A 
ATOM      6  C   UNL     1      47.884   6.454  13.457  0.00  0.00    +0.000 A 
ATOM      7  C   UNL     1      46.871   6.726  12.515  0.00  0.00    +0.000 A 
BRANCH   6   8
ATOM      8  C   UNL     1      49.130   7.258  13.500  0.00  0.00    +0.000 A 
ATOM      9  C   UNL     1      49.735   7.578  14.733  0.00  0.00    +0.000 A 
ATOM     10  C   UNL     1      50.955   8.256  14.799  0.00  0.00    +0.000 A 
ATOM     11  C   UNL     1      51.602   8.623  13.626  0.00  0.00    +0.000 A 
ATOM     12 CL   UNL     1      53.123   9.421  13.702  0.00  0.00    +0.000 Cl
ATOM     13  C   UNL     1      51.028   8.336  12.392  0.00  0.00    +0.000 A 
ATOM     14  C   UNL     1      49.797   7.670  12.333  0.00  0.00    +0.000 A 
ENDBRANCH   6   8
ENDBRANCH   1   2
BRANCH   1  15
ATOM     15  O   UNL     1      44.030   7.384  11.555  0.00  0.00    +0.000 OA
ATOM     16  H   UNL     1      44.393   8.061  10.962  0.00  0.00    +0.000 HD
ENDBRANCH   1  15
BRANCH   1  17
ATOM     17  C   UNL     1      43.669   5.007  11.180  0.00  0.00    +0.000 C 
BRANCH  17  18
ATOM     18  N   UNL     1      43.508   4.565   9.792  0.00  0.00    +0.000 N 
ATOM     19  H   UNL     1      42.574   4.205   9.585  0.00  0.00    +0.000 HD
BRANCH  18  23
ATOM     20  C   UNL     1      46.435   2.301   7.767  0.00  0.00    +0.000 A 
ATOM     21  C   UNL     1      46.352   3.676   7.541  0.00  0.00    +0.000 A 
ATOM     22  C   UNL     1      45.398   4.436   8.225  0.00  0.00    +0.000 A 
ATOM     23  C   UNL     1      44.529   3.859   9.159  0.00  0.00    +0.000 A 
ATOM     24  C   UNL     1      44.616   2.474   9.360  0.00  0.00    +0.000 A 
ATOM     25  C   UNL     1      45.552   1.697   8.664  0.00  0.00    +0.000 A 
BRANCH  20  27
ATOM     26  N   UNL     1      48.571   2.047   6.625  0.00  0.00    +0.000 N 
ATOM     27  C   UNL     1      47.407   1.453   7.032  0.00  0.00    +0.000 C 
ATOM     28  O   UNL     1      47.197   0.266   6.824  0.00  0.00    +0.000 OA
ATOM     29  H   UNL     1      49.261   1.439   6.220  0.00  0.00    +0.000 HD
ATOM     30  H   UNL     1      48.882   2.930   7.002  0.00  0.00    +0.000 HD
ENDBRANCH  20  27
ENDBRANCH  18  23
ENDBRANCH  17  18
ENDBRANCH   1  17
TORSDOF 7
ENDMDL
MODEL 6
REMARK VINA RESULT:    -7.892      2.565      3.441
REMARK INTER + INTRA:         -12.030
REMARK INTER:                 -10.967
REMARK INTRA:                  -1.063
REMARK UNBOUND:                -1.140
REMARK  Name = 
REMARK  7 active torsions:
REMARK  status: ('A' for Active; 'I' for Inactive)
REMARK    1  A    between atoms: C_2  and  C_4
REMARK    2  A    between atoms: C_7  and  N_8
REMARK    3  A    between atoms: N_8  and  C_9
REMARK    4  A    between atoms: C_9  and  C_10
REMARK    5  A    between atoms: C_10  and  O_11
REMARK    6  A    between atoms: C_10  and  C_12
REMARK    7  A    between atoms: C_16  and  C_17
REMARK                            x       y       z     vdW  Elec       q    Type
REMARK                         _______ _______ _______ _____ _____    ______ ____
ROOT
ATOM      1  C   UNL     1      44.187   4.412  12.482  0.00  0.00    +0.000 C 
ENDROOT
BRANCH   1   2
ATOM      2  C   UNL     1      45.266   5.482  12.479  0.00  0.00    +0.000 A 
ATOM      3  C   UNL     1      45.192   6.542  11.568  0.00  0.00    +0.000 A 
ATOM      4  C   UNL     1      46.163   7.539  11.563  0.00  0.00    +0.000 A 
ATOM      5  C   UNL     1      47.208   7.506  12.486  0.00  0.00    +0.000 A 
ATOM      6  C   UNL     1      47.302   6.483  13.448  0.00  0.00    +0.000 A 
ATOM      7  C   UNL     1      46.333   5.460  13.398  0.00  0.00    +0.000 A 
BRANCH   6   8
ATOM      8  C   UNL     1      48.319   6.527  14.527  0.00  0.00    +0.000 A 
ATOM      9  C   UNL     1      48.156   5.761  15.699  0.00  0.00    +0.000 A 
ATOM     10  C   UNL     1      49.140   5.715  16.691  0.00  0.00    +0.000 A 
ATOM     11  C   UNL     1      50.318   6.432  16.524  0.00  0.00    +0.000 A 
ATOM     12 CL   UNL     1      51.548   6.346  17.722  0.00  0.00    +0.000 Cl
ATOM     13  C   UNL     1      50.508   7.209  15.387  0.00  0.00    +0.000 A 
ATOM     14  C   UNL     1      49.511   7.263  14.404  0.00  0.00    +0.000 A 
ENDBRANCH   6   8
ENDBRANCH   1   2
BRANCH   1  15
ATOM     15  O   UNL     1      44.753   3.148  12.855  0.00  0.00    +0.000 OA
ATOM     16  H   UNL     1      44.867   2.621  12.048  0.00  0.00    +0.000 HD
ENDBRANCH   1  15
BRANCH   1  17
ATOM     17  C   UNL     1      43.485   4.279  11.112  0.00  0.00    +0.000 C 
BRANCH  17  18
ATOM     18  N   UNL     1      43.786   2.987  10.490  0.00  0.00    +0.000 N 
ATOM     19  H   UNL     1      43.800   2.209  11.152  0.00  0.00    +0.000 HD
BRANCH  18  23
ATOM     20  C   UNL     1      46.607   2.586   7.379  0.00  0.00    +0.000 A 
ATOM     21  C   UNL     1      46.144   3.855   7.727  0.00  0.00    +0.000 A 
ATOM     22  C   UNL     1      45.225   3.998   8.771  0.00  0.00    +0.000 A 
ATOM     23  C   UNL     1      44.767   2.896   9.504  0.00  0.00    +0.000 A 
ATOM     24  C   UNL     1      45.230   1.627   9.129  0.00  0.00    +0.000 A 
ATOM     25  C   UNL     1      46.134   1.468   8.070  0.00  0.00    +0.000 A 
BRANCH  20  27
ATOM     26  N   UNL     1      47.422   3.224   5.175  0.00  0.00    +0.000 N 
ATOM     27  C   UNL     1      47.552   2.388   6.251  0.00  0.00    +0.000 C 
ATOM     28  O   UNL     1      48.431   1.539   6.289  0.00  0.00    +0.000 OA
ATOM     29  H   UNL     1      48.129   3.146   4.466  0.00  0.00    +0.000 HD
ATOM     30  H   UNL     1      46.894   4.082   5.224  0.00  0.00    +0.000 HD
ENDBRANCH  20  27
ENDBRANCH  18  23
ENDBRANCH  17  18
ENDBRANCH   1  17
TORSDOF 7
ENDMDL
MODEL 7
REMARK VINA RESULT:    -7.598      1.894      2.764
REMARK INTER + INTRA:         -11.625
REMARK INTER:                 -10.698
REMARK INTRA:                  -0.927
REMARK UNBOUND:                -1.140
REMARK  Name = 
REMARK  7 active torsions:
REMARK  status: ('A' for Active; 'I' for Inactive)
REMARK    1  A    between atoms: C_2  and  C_4
REMARK    2  A    between atoms: C_7  and  N_8
REMARK    3  A    between atoms: N_8  and  C_9
REMARK    4  A    between atoms: C_9  and  C_10
REMARK    5  A    between atoms: C_10  and  O_11
REMARK    6  A    between atoms: C_10  and  C_12
REMARK    7  A    between atoms: C_16  and  C_17
REMARK                            x       y       z     vdW  Elec       q    Type
REMARK                         _______ _______ _______ _____ _____    ______ ____
ROOT
ATOM      1  C   UNL     1      43.151   6.256  11.071  0.00  0.00    +0.000 C 
ENDROOT
BRANCH   1   2
ATOM      2  C   UNL     1      44.054   7.450  11.326  0.00  0.00    +0.000 A 
ATOM      3  C   UNL     1      43.572   8.747  11.108  0.00  0.00    +0.000 A 
ATOM      4  C   UNL     1      44.382   9.852  11.353  0.00  0.00    +0.000 A 
ATOM      5  C   UNL     1      45.676   9.680  11.844  0.00  0.00    +0.000 A 
ATOM      6  C   UNL     1      46.190   8.399  12.117  0.00  0.00    +0.000 A 
ATOM      7  C   UNL     1      45.367   7.296  11.814  0.00  0.00    +0.000 A 
BRANCH   6   8
ATOM      8  C   UNL     1      47.503   8.219  12.783  0.00  0.00    +0.000 A 
ATOM      9  C   UNL     1      48.614   7.735  12.062  0.00  0.00    +0.000 A 
ATOM     10  C   UNL     1      49.882   7.640  12.641  0.00  0.00    +0.000 A 
ATOM     11  C   UNL     1      50.067   8.038  13.959  0.00  0.00    +0.000 A 
ATOM     12 CL   UNL     1      51.635   7.962  14.663  0.00  0.00    +0.000 Cl
ATOM     13  C   UNL     1      48.992   8.508  14.705  0.00  0.00    +0.000 A 
ATOM     14  C   UNL     1      47.720   8.585  14.124  0.00  0.00    +0.000 A 
ENDBRANCH   6   8
ENDBRANCH   1   2
BRANCH   1  15
ATOM     15  O   UNL     1      41.935   6.393  11.820  0.00  0.00    +0.000 OA
ATOM     16  H   UNL     1      41.194   6.182  11.230  0.00  0.00    +0.000 HD
ENDBRANCH   1  15
BRANCH   1  17
ATOM     17  C   UNL     1      43.830   4.916  11.433  0.00  0.00    +0.000 C 
BRANCH  17  18
ATOM     18  N   UNL     1      43.571   3.901  10.409  0.00  0.00    +0.000 N 
ATOM     19  H   UNL     1      42.978   3.135  10.735  0.00  0.00    +0.000 HD
BRANCH  18  23
ATOM     20  C   UNL     1      46.510   2.532   7.710  0.00  0.00    +0.000 A 
ATOM     21  C   UNL     1      46.260   3.900   7.817  0.00  0.00    +0.000 A 
ATOM     22  C   UNL     1      45.302   4.363   8.725  0.00  0.00    +0.000 A 
ATOM     23  C   UNL     1      44.595   3.487   9.558  0.00  0.00    +0.000 A 
ATOM     24  C   UNL     1      44.847   2.115   9.424  0.00  0.00    +0.000 A 
ATOM     25  C   UNL     1      45.788   1.637   8.502  0.00  0.00    +0.000 A 
BRANCH  20  27
ATOM     26  N   UNL     1      48.560   2.792   6.422  0.00  0.00    +0.000 N 
ATOM     27  C   UNL     1      47.490   1.997   6.730  0.00  0.00    +0.000 C 
ATOM     28  O   UNL     1      47.369   0.882   6.243  0.00  0.00    +0.000 OA
ATOM     29  H   UNL     1      49.265   2.379   5.838  0.00  0.00    +0.000 HD
ATOM     30  H   UNL     1      48.822   3.584   6.991  0.00  0.00    +0.000 HD
ENDBRANCH  20  27
ENDBRANCH  18  23
ENDBRANCH  17  18
ENDBRANCH   1  17
TORSDOF 7
ENDMDL
MODEL 8
REMARK VINA RESULT:    -7.443      4.035      7.237
REMARK INTER + INTRA:         -11.411
REMARK INTER:                 -10.754
REMARK INTRA:                  -0.657
REMARK UNBOUND:                -1.140
REMARK  Name = 
REMARK  7 active torsions:
REMARK  status: ('A' for Active; 'I' for Inactive)
REMARK    1  A    between atoms: C_2  and  C_4
REMARK    2  A    between atoms: C_7  and  N_8
REMARK    3  A    between atoms: N_8  and  C_9
REMARK    4  A    between atoms: C_9  and  C_10
REMARK    5  A    between atoms: C_10  and  O_11
REMARK    6  A    between atoms: C_10  and  C_12
REMARK    7  A    between atoms: C_16  and  C_17
REMARK                            x       y       z     vdW  Elec       q    Type
REMARK                         _______ _______ _______ _____ _____    ______ ____
ROOT
ATOM      1  C   UNL     1      45.500   7.432  12.810  0.00  0.00    +0.000 C 
ENDROOT
BRANCH   1   2
ATOM      2  C   UNL     1      44.781   6.285  12.121  0.00  0.00    +0.000 A 
ATOM      3  C   UNL     1      43.449   6.002  12.446  0.00  0.00    +0.000 A 
ATOM      4  C   UNL     1      42.771   4.965  11.812  0.00  0.00    +0.000 A 
ATOM      5  C   UNL     1      43.405   4.212  10.824  0.00  0.00    +0.000 A 
ATOM      6  C   UNL     1      44.730   4.485  10.434  0.00  0.00    +0.000 A 
ATOM      7  C   UNL     1      45.408   5.508  11.127  0.00  0.00    +0.000 A 
BRANCH   6   8
ATOM      8  C   UNL     1      45.354   3.791   9.281  0.00  0.00    +0.000 A 
ATOM      9  C   UNL     1      45.994   4.527   8.262  0.00  0.00    +0.000 A 
ATOM     10  C   UNL     1      46.667   3.896   7.212  0.00  0.00    +0.000 A 
ATOM     11  C   UNL     1      46.720   2.509   7.165  0.00  0.00    +0.000 A 
ATOM     12 CL   UNL     1      47.582   1.729   5.897  0.00  0.00    +0.000 Cl
ATOM     13  C   UNL     1      46.089   1.751   8.145  0.00  0.00    +0.000 A 
ATOM     14  C   UNL     1      45.403   2.389   9.186  0.00  0.00    +0.000 A 
ENDBRANCH   6   8
ENDBRANCH   1   2
BRANCH   1  15
ATOM     15  O   UNL     1      44.901   8.681  12.435  0.00  0.00    +0.000 OA
ATOM     16  H   UNL     1      45.360   9.389  12.914  0.00  0.00    +0.000 HD
ENDBRANCH   1  15
BRANCH   1  17
ATOM     17  C   UNL     1      47.009   7.465  12.479  0.00  0.00    +0.000 C 
BRANCH  17  18
ATOM     18  N   UNL     1      47.816   7.494  13.702  0.00  0.00    +0.000 N 
ATOM     19  H   UNL     1      48.723   7.949  13.581  0.00  0.00    +0.000 HD
BRANCH  18  23
ATOM     20  C   UNL     1      47.838   4.249  16.398  0.00  0.00    +0.000 A 
ATOM     21  C   UNL     1      47.152   4.133  15.189  0.00  0.00    +0.000 A 
ATOM     22  C   UNL     1      47.157   5.197  14.281  0.00  0.00    +0.000 A 
ATOM     23  C   UNL     1      47.860   6.381  14.539  0.00  0.00    +0.000 A 
ATOM     24  C   UNL     1      48.530   6.486  15.766  0.00  0.00    +0.000 A 
ATOM     25  C   UNL     1      48.513   5.436  16.694  0.00  0.00    +0.000 A 
BRANCH  20  27
ATOM     26  N   UNL     1      48.996   2.902  18.063  0.00  0.00    +0.000 N 
ATOM     27  C   UNL     1      47.823   3.159  17.406  0.00  0.00    +0.000 C 
ATOM     28  O   UNL     1      46.803   2.537  17.666  0.00  0.00    +0.000 OA
ATOM     29  H   UNL     1      48.947   2.233  18.811  0.00  0.00    +0.000 HD
ATOM     30  H   UNL     1      49.765   3.555  18.062  0.00  0.00    +0.000 HD
ENDBRANCH  20  27
ENDBRANCH  18  23
ENDBRANCH  17  18
ENDBRANCH   1  17
TORSDOF 7
ENDMDL
MODEL 9
REMARK VINA RESULT:    -7.418      3.853      7.452
REMARK INTER + INTRA:         -11.377
REMARK INTER:                 -10.721
REMARK INTRA:                  -0.656
REMARK UNBOUND:                -1.140
REMARK  Name = 
REMARK  7 active torsions:
REMARK  status: ('A' for Active; 'I' for Inactive)
REMARK    1  A    between atoms: C_2  and  C_4
REMARK    2  A    between atoms: C_7  and  N_8
REMARK    3  A    between atoms: N_8  and  C_9
REMARK    4  A    between atoms: C_9  and  C_10
REMARK    5  A    between atoms: C_10  and  O_11
REMARK    6  A    between atoms: C_10  and  C_12
REMARK    7  A    between atoms: C_16  and  C_17
REMARK                            x       y       z     vdW  Elec       q    Type
REMARK                         _______ _______ _______ _____ _____    ______ ____
ROOT
ATOM      1  C   UNL     1      44.530   6.522  12.295  0.00  0.00    +0.000 C 
ENDROOT
BRANCH   1   2
ATOM      2  C   UNL     1      44.391   5.118  11.731  0.00  0.00    +0.000 A 
ATOM      3  C   UNL     1      43.489   4.220  12.314  0.00  0.00    +0.000 A 
ATOM      4  C   UNL     1      43.337   2.935  11.799  0.00  0.00    +0.000 A 
ATOM      5  C   UNL     1      44.066   2.538  10.678  0.00  0.00    +0.000 A 
ATOM      6  C   UNL     1      44.955   3.419  10.033  0.00  0.00    +0.000 A 
ATOM      7  C   UNL     1      45.124   4.696  10.605  0.00  0.00    +0.000 A 
BRANCH   6   8
ATOM      8  C   UNL     1      45.612   3.054   8.754  0.00  0.00    +0.000 A 
ATOM      9  C   UNL     1      45.922   4.044   7.799  0.00  0.00    +0.000 A 
ATOM     10  C   UNL     1      46.621   3.742   6.627  0.00  0.00    +0.000 A 
ATOM     11  C   UNL     1      47.032   2.436   6.390  0.00  0.00    +0.000 A 
ATOM     12 CL   UNL     1      47.928   2.067   4.969  0.00  0.00    +0.000 Cl
ATOM     13  C   UNL     1      46.732   1.432   7.303  0.00  0.00    +0.000 A 
ATOM     14  C   UNL     1      46.018   1.738   8.468  0.00  0.00    +0.000 A 
ENDBRANCH   6   8
ENDBRANCH   1   2
BRANCH   1  15
ATOM     15  O   UNL     1      43.721   7.435  11.539  0.00  0.00    +0.000 OA
ATOM     16  H   UNL     1      44.140   8.309  11.578  0.00  0.00    +0.000 HD
ENDBRANCH   1  15
BRANCH   1  17
ATOM     17  C   UNL     1      45.994   7.013  12.298  0.00  0.00    +0.000 C 
BRANCH  17  18
ATOM     18  N   UNL     1      46.917   5.916  12.600  0.00  0.00    +0.000 N 
ATOM     19  H   UNL     1      46.734   5.068  12.059  0.00  0.00    +0.000 HD
BRANCH  18  23
ATOM     20  C   UNL     1      48.167   4.952  16.512  0.00  0.00    +0.000 A 
ATOM     21  C   UNL     1      48.654   6.107  15.901  0.00  0.00    +0.000 A 
ATOM     22  C   UNL     1      48.229   6.444  14.612  0.00  0.00    +0.000 A 
ATOM     23  C   UNL     1      47.297   5.662  13.917  0.00  0.00    +0.000 A 
ATOM     24  C   UNL     1      46.831   4.496  14.541  0.00  0.00    +0.000 A 
ATOM     25  C   UNL     1      47.268   4.135  15.823  0.00  0.00    +0.000 A 
BRANCH  20  27
ATOM     26  N   UNL     1      47.703   4.581  18.874  0.00  0.00    +0.000 N 
ATOM     27  C   UNL     1      48.625   4.537  17.862  0.00  0.00    +0.000 C 
ATOM     28  O   UNL     1      49.764   4.141  18.062  0.00  0.00    +0.000 OA
ATOM     29  H   UNL     1      47.997   4.203  19.757  0.00  0.00    +0.000 HD
ATOM     30  H   UNL     1      46.713   4.647  18.694  0.00  0.00    +0.000 HD
ENDBRANCH  20  27
ENDBRANCH  18  23
ENDBRANCH  17  18
ENDBRANCH   1  17
TORSDOF 7
ENDMDL
