MODEL 1
REMARK VINA RESULT:    -9.232      0.000      0.000
REMARK INTER + INTRA:         -12.780
REMARK INTER:                 -11.930
REMARK INTRA:                  -0.849
REMARK UNBOUND:                -0.849
REMARK  Name = 
REMARK  5 active torsions:
REMARK  status: ('A' for Active; 'I' for Inactive)
REMARK    1  A    between atoms: C_2  and  C_4
REMARK    2  A    between atoms: C_7  and  O_8
REMARK    3  A    between atoms: O_8  and  C_9
REMARK    4  A    between atoms: C_9  and  C_10
REMARK    5  A    between atoms: C_15  and  C_16
REMARK                            x       y       z     vdW  Elec       q    Type
REMARK                         _______ _______ _______ _____ _____    ______ ____
ROOT
ATOM      1  C   UNL     1      44.902   4.675  12.004  0.00  0.00    +0.000 A 
ATOM      2  C   UNL     1      45.535   3.795  12.886  0.00  0.00    +0.000 A 
ATOM      3  C   UNL     1      46.699   4.188  13.532  0.00  0.00    +0.000 A 
ATOM      4  F   UNL     1      47.301   3.338  14.375  0.00  0.00    +0.000 F 
ATOM      5  C   UNL     1      47.254   5.448  13.321  0.00  0.00    +0.000 A 
ATOM      6  C   UNL     1      46.662   6.352  12.424  0.00  0.00    +0.000 A 
ATOM      7  C   UNL     1      45.490   5.929  11.765  0.00  0.00    +0.000 A 
ENDROOT
BRANCH   6   8
ATOM      8  C   UNL     1      47.236   7.695  12.174  0.00  0.00    +0.000 A 
ATOM      9  C   UNL     1      48.588   7.869  11.819  0.00  0.00    +0.000 A 
ATOM     10  C   UNL     1      49.126   9.138  11.576  0.00  0.00    +0.000 A 
ATOM     11  C   UNL     1      48.317  10.265  11.669  0.00  0.00    +0.000 A 
ATOM     12  C   UNL     1      46.983  10.113  12.012  0.00  0.00    +0.000 A 
ATOM     13  F   UNL     1      46.194  11.193  12.094  0.00  0.00    +0.000 F 
ATOM     14  C   UNL     1      46.445   8.856  12.270  0.00  0.00    +0.000 A 
ENDBRANCH   6   8
BRANCH   1  15
ATOM     15  C   UNL     1      43.654   4.240  11.267  0.00  0.00    +0.000 C 
BRANCH  15  16
ATOM     16  O   UNL     1      43.700   4.672   9.902  0.00  0.00    +0.000 OA
BRANCH  16  20
ATOM     17  C   UNL     1      46.401   2.443   7.736  0.00  0.00    +0.000 A 
ATOM     18  C   UNL     1      45.545   1.804   8.635  0.00  0.00    +0.000 A 
ATOM     19  C   UNL     1      44.629   2.568   9.362  0.00  0.00    +0.000 A 
ATOM     20  C   UNL     1      44.603   3.942   9.158  0.00  0.00    +0.000 A 
ATOM     21  N   UNL     1      45.414   4.582   8.292  0.00  0.00    +0.000 NA
ATOM     22  C   UNL     1      46.301   3.822   7.609  0.00  0.00    +0.000 A 
BRANCH  17  24
ATOM     23  N   UNL     1      48.496   2.476   6.501  0.00  0.00    +0.000 N 
ATOM     24  C   UNL     1      47.429   1.746   6.940  0.00  0.00    +0.000 C 
ATOM     25  O   UNL     1      47.347   0.547   6.709  0.00  0.00    +0.000 OA
ATOM     26  H   UNL     1      49.237   1.951   6.053  0.00  0.00    +0.000 HD
ATOM     27  H   UNL     1      48.728   3.386   6.876  0.00  0.00    +0.000 HD
ENDBRANCH  17  24
ENDBRANCH  16  20
ENDBRANCH  15  16
ENDBRANCH   1  15
TORSDOF 5
ENDMDL
MODEL 2
REMARK VINA RESULT:    -9.192      0.945      1.346
REMARK INTER + INTRA:         -12.728
REMARK INTER:                 -11.872
REMARK INTRA:                  -0.856
REMARK UNBOUND:                -0.849
REMARK  Name = 
REMARK  5 active torsions:
REMARK  status: ('A' for Active; 'I' for Inactive)
REMARK    1  A    between atoms: C_2  and  C_4
REMARK    2  A    between atoms: C_7  and  O_8
REMARK    3  A    between atoms: O_8  and  C_9
REMARK    4  A    between atoms: C_9  and  C_10
REMARK    5  A    between atoms: C_15  and  C_16
REMARK                            x       y       z     vdW  Elec       q    Type
REMARK                         _______ _______ _______ _____ _____    ______ ____
ROOT
ATOM      1  C   UNL     1      44.907   4.721  11.978  0.00  0.00    +0.000 A 
ATOM      2  C   UNL     1      45.536   3.856  12.879  0.00  0.00    +0.000 A 
ATOM      3  C   UNL     1      46.693   4.263  13.528  0.00  0.00    +0.000 A 
ATOM      4  F   UNL     1      47.290   3.428  14.389  0.00  0.00    +0.000 F 
ATOM      5  C   UNL     1      47.246   5.521  13.303  0.00  0.00    +0.000 A 
ATOM      6  C   UNL     1      46.659   6.410  12.388  0.00  0.00    +0.000 A 
ATOM      7  C   UNL     1      45.494   5.974  11.725  0.00  0.00    +0.000 A 
ENDROOT
BRANCH   6   8
ATOM      8  C   UNL     1      47.230   7.751  12.123  0.00  0.00    +0.000 A 
ATOM      9  C   UNL     1      46.464   8.924  12.269  0.00  0.00    +0.000 A 
ATOM     10  C   UNL     1      47.008  10.191  12.024  0.00  0.00    +0.000 A 
ATOM     11  C   UNL     1      48.338  10.314  11.639  0.00  0.00    +0.000 A 
ATOM     12  C   UNL     1      49.108   9.170  11.495  0.00  0.00    +0.000 A 
ATOM     13  F   UNL     1      50.394   9.280  11.134  0.00  0.00    +0.000 F 
ATOM     14  C   UNL     1      48.571   7.907  11.722  0.00  0.00    +0.000 A 
ENDBRANCH   6   8
BRANCH   1  15
ATOM     15  C   UNL     1      43.667   4.272  11.237  0.00  0.00    +0.000 C 
BRANCH  15  16
ATOM     16  O   UNL     1      43.718   4.692   9.869  0.00  0.00    +0.000 OA
BRANCH  16  20
ATOM     17  C   UNL     1      46.399   2.421   7.722  0.00  0.00    +0.000 A 
ATOM     18  C   UNL     1      45.531   1.796   8.619  0.00  0.00    +0.000 A 
ATOM     19  C   UNL     1      44.622   2.575   9.340  0.00  0.00    +0.000 A 
ATOM     20  C   UNL     1      44.614   3.948   9.131  0.00  0.00    +0.000 A 
ATOM     21  N   UNL     1      45.437   4.574   8.266  0.00  0.00    +0.000 NA
ATOM     22  C   UNL     1      46.317   3.800   7.589  0.00  0.00    +0.000 A 
BRANCH  17  24
ATOM     23  N   UNL     1      48.472   2.433   6.452  0.00  0.00    +0.000 N 
ATOM     24  C   UNL     1      47.420   1.708   6.932  0.00  0.00    +0.000 C 
ATOM     25  O   UNL     1      47.347   0.500   6.743  0.00  0.00    +0.000 OA
ATOM     26  H   UNL     1      49.211   1.900   6.009  0.00  0.00    +0.000 HD
ATOM     27  H   UNL     1      48.702   3.356   6.792  0.00  0.00    +0.000 HD
ENDBRANCH  17  24
ENDBRANCH  16  20
ENDBRANCH  15  16
ENDBRANCH   1  15
TORSDOF 5
ENDMDL
MODEL 3
REMARK VINA RESULT:    -8.848      2.077      4.245
REMARK INTER + INTRA:         -12.284
REMARK INTER:                 -11.569
REMARK INTRA:                  -0.715
REMARK UNBOUND:                -0.849
REMARK  Name = 
REMARK  5 active torsions:
REMARK  status: ('A' for Active; 'I' for Inactive)
REMARK    1  A    between atoms: C_2  and  C_4
REMARK    2  A    between atoms: C_7  and  O_8
REMARK    3  A    between atoms: O_8  and  C_9
REMARK    4  A    between atoms: C_9  and  C_10
REMARK    5  A    between atoms: C_15  and  C_16
REMARK                            x       y       z     vdW  Elec       q    Type
REMARK                         _______ _______ _______ _____ _____    ______ ____
ROOT
ATOM      1  C   UNL     1      45.514   5.200  12.137  0.00  0.00    +0.000 A 
ATOM      2  C   UNL     1      46.111   6.306  11.526  0.00  0.00    +0.000 A 
ATOM      3  C   UNL     1      47.166   6.953  12.154  0.00  0.00    +0.000 A 
ATOM      4  F   UNL     1      47.732   8.013  11.563  0.00  0.00    +0.000 F 
ATOM      5  C   UNL     1      47.647   6.523  13.389  0.00  0.00    +0.000 A 
ATOM      6  C   UNL     1      47.059   5.431  14.048  0.00  0.00    +0.000 A 
ATOM      7  C   UNL     1      45.978   4.797  13.402  0.00  0.00    +0.000 A 
ENDROOT
BRANCH   6   8
ATOM      8  C   UNL     1      47.545   4.957  15.365  0.00  0.00    +0.000 A 
ATOM      9  C   UNL     1      48.557   5.638  16.069  0.00  0.00    +0.000 A 
ATOM     10  C   UNL     1      49.010   5.192  17.318  0.00  0.00    +0.000 A 
ATOM     11  C   UNL     1      48.448   4.060  17.896  0.00  0.00    +0.000 A 
ATOM     12  C   UNL     1      47.447   3.381  17.220  0.00  0.00    +0.000 A 
ATOM     13  F   UNL     1      46.894   2.294  17.775  0.00  0.00    +0.000 F 
ATOM     14  C   UNL     1      47.003   3.809  15.972  0.00  0.00    +0.000 A 
ENDBRANCH   6   8
BRANCH   1  15
ATOM     15  C   UNL     1      44.339   4.513  11.478  0.00  0.00    +0.000 C 
BRANCH  15  16
ATOM     16  O   UNL     1      44.229   4.908  10.106  0.00  0.00    +0.000 OA
BRANCH  16  20
ATOM     17  C   UNL     1      46.486   2.466   7.678  0.00  0.00    +0.000 A 
ATOM     18  C   UNL     1      45.662   1.897   8.651  0.00  0.00    +0.000 A 
ATOM     19  C   UNL     1      44.898   2.734   9.467  0.00  0.00    +0.000 A 
ATOM     20  C   UNL     1      44.983   4.107   9.274  0.00  0.00    +0.000 A 
ATOM     21  N   UNL     1      45.765   4.680   8.337  0.00  0.00    +0.000 NA
ATOM     22  C   UNL     1      46.506   3.849   7.567  0.00  0.00    +0.000 A 
BRANCH  17  24
ATOM     23  N   UNL     1      48.420   2.331   6.209  0.00  0.00    +0.000 N 
ATOM     24  C   UNL     1      47.361   1.686   6.782  0.00  0.00    +0.000 C 
ATOM     25  O   UNL     1      47.167   0.494   6.585  0.00  0.00    +0.000 OA
ATOM     26  H   UNL     1      49.064   1.748   5.689  0.00  0.00    +0.000 HD
ATOM     27  H   UNL     1      48.759   3.225   6.537  0.00  0.00    +0.000 HD
ENDBRANCH  17  24
ENDBRANCH  16  20
ENDBRANCH  15  16
ENDBRANCH   1  15
TORSDOF 5
ENDMDL
MODEL 4
REMARK VINA RESULT:    -8.429      1.918      2.931
REMARK INTER + INTRA:         -11.743
REMARK INTER:                 -10.955
REMARK INTRA:                  -0.788
REMARK UNBOUND:                -0.849
REMARK  Name = 
REMARK  5 active torsions:
REMARK  status: ('A' for Active; 'I' for Inactive)
REMARK    1  A    between atoms: C_2  and  C_4
REMARK    2  A    between atoms: C_7  and  O_8
REMARK    3  A    between atoms: O_8  and  C_9
REMARK    4  A    between atoms: C_9  and  C_10
REMARK    5  A    between atoms: C_15  and  C_16
REMARK                            x       y       z     vdW  Elec       q    Type
REMARK                         _______ _______ _______ _____ _____    ______ ____
ROOT
ATOM      1  C   UNL     1      44.530   4.863  11.565  0.00  0.00    +0.000 A 
ATOM      2  C   UNL     1      43.570   5.833  11.264  0.00  0.00    +0.000 A 
ATOM      3  C   UNL     1      43.903   7.178  11.340  0.00  0.00    +0.000 A 
ATOM      4  F   UNL     1      42.977   8.101  11.052  0.00  0.00    +0.000 F 
ATOM      5  C   UNL     1      45.183   7.586  11.710  0.00  0.00    +0.000 A 
ATOM      6  C   UNL     1      46.169   6.645  12.044  0.00  0.00    +0.000 A 
ATOM      7  C   UNL     1      45.807   5.283  11.977  0.00  0.00    +0.000 A 
ENDROOT
BRANCH   6   8
ATOM      8  C   UNL     1      47.535   7.051  12.449  0.00  0.00    +0.000 A 
ATOM      9  C   UNL     1      48.386   7.760  11.578  0.00  0.00    +0.000 A 
ATOM     10  C   UNL     1      49.674   8.149  11.966  0.00  0.00    +0.000 A 
ATOM     11  C   UNL     1      50.136   7.849  13.242  0.00  0.00    +0.000 A 
ATOM     12  C   UNL     1      49.310   7.157  14.114  0.00  0.00    +0.000 A 
ATOM     13  F   UNL     1      49.744   6.871  15.349  0.00  0.00    +0.000 F 
ATOM     14  C   UNL     1      48.035   6.753  13.731  0.00  0.00    +0.000 A 
ENDBRANCH   6   8
BRANCH   1  15
ATOM     15  C   UNL     1      44.164   3.396  11.523  0.00  0.00    +0.000 C 
BRANCH  15  16
ATOM     16  O   UNL     1      43.619   3.049  10.244  0.00  0.00    +0.000 OA
BRANCH  16  20
ATOM     17  C   UNL     1      46.516   2.590   7.354  0.00  0.00    +0.000 A 
ATOM     18  C   UNL     1      45.847   3.810   7.471  0.00  0.00    +0.000 A 
ATOM     19  C   UNL     1      44.869   3.957   8.457  0.00  0.00    +0.000 A 
ATOM     20  C   UNL     1      44.602   2.879   9.292  0.00  0.00    +0.000 A 
ATOM     21  N   UNL     1      45.238   1.694   9.204  0.00  0.00    +0.000 NA
ATOM     22  C   UNL     1      46.172   1.571   8.232  0.00  0.00    +0.000 A 
BRANCH  17  24
ATOM     23  N   UNL     1      47.490   3.017   5.167  0.00  0.00    +0.000 N 
ATOM     24  C   UNL     1      47.542   2.307   6.333  0.00  0.00    +0.000 C 
ATOM     25  O   UNL     1      48.431   1.490   6.535  0.00  0.00    +0.000 OA
ATOM     26  H   UNL     1      48.267   2.882   4.533  0.00  0.00    +0.000 HD
ATOM     27  H   UNL     1      46.943   3.860   5.064  0.00  0.00    +0.000 HD
ENDBRANCH  17  24
ENDBRANCH  16  20
ENDBRANCH  15  16
ENDBRANCH   1  15
TORSDOF 5
ENDMDL
MODEL 5
REMARK VINA RESULT:    -8.270      4.975      8.270
REMARK INTER + INTRA:         -11.536
REMARK INTER:                 -10.897
REMARK INTRA:                  -0.639
REMARK UNBOUND:                -0.849
REMARK  Name = 
REMARK  5 active torsions:
REMARK  status: ('A' for Active; 'I' for Inactive)
REMARK    1  A    between atoms: C_2  and  C_4
REMARK    2  A    between atoms: C_7  and  O_8
REMARK    3  A    between atoms: O_8  and  C_9
REMARK    4  A    between atoms: C_9  and  C_10
REMARK    5  A    between atoms: C_15  and  C_16
REMARK                            x       y       z     vdW  Elec       q    Type
REMARK                         _______ _______ _______ _____ _____    ______ ____
ROOT
ATOM      1  C   UNL     1      45.157   5.008  12.751  0.00  0.00    +0.000 A 
ATOM      2  C   UNL     1      43.825   5.432  12.774  0.00  0.00    +0.000 A 
ATOM      3  C   UNL     1      43.020   5.229  11.662  0.00  0.00    +0.000 A 
ATOM      4  F   UNL     1      41.745   5.639  11.691  0.00  0.00    +0.000 F 
ATOM      5  C   UNL     1      43.511   4.607  10.516  0.00  0.00    +0.000 A 
ATOM      6  C   UNL     1      44.849   4.188  10.443  0.00  0.00    +0.000 A 
ATOM      7  C   UNL     1      45.657   4.419  11.576  0.00  0.00    +0.000 A 
ENDROOT
BRANCH   6   8
ATOM      8  C   UNL     1      45.400   3.533   9.235  0.00  0.00    +0.000 A 
ATOM      9  C   UNL     1      45.831   4.278   8.120  0.00  0.00    +0.000 A 
ATOM     10  C   UNL     1      46.359   3.657   6.981  0.00  0.00    +0.000 A 
ATOM     11  C   UNL     1      46.479   2.272   6.938  0.00  0.00    +0.000 A 
ATOM     12  C   UNL     1      46.065   1.523   8.028  0.00  0.00    +0.000 A 
ATOM     13  F   UNL     1      46.187   0.189   7.999  0.00  0.00    +0.000 F 
ATOM     14  C   UNL     1      45.526   2.133   9.157  0.00  0.00    +0.000 A 
ENDBRANCH   6   8
BRANCH   1  15
ATOM     15  C   UNL     1      46.052   5.261  13.944  0.00  0.00    +0.000 C 
BRANCH  15  16
ATOM     16  O   UNL     1      46.499   4.023  14.509  0.00  0.00    +0.000 OA
BRANCH  16  20
ATOM     17  C   UNL     1      48.376   4.585  18.131  0.00  0.00    +0.000 A 
ATOM     18  C   UNL     1      48.656   5.448  17.069  0.00  0.00    +0.000 A 
ATOM     19  C   UNL     1      48.011   5.251  15.846  0.00  0.00    +0.000 A 
ATOM     20  C   UNL     1      47.107   4.203  15.734  0.00  0.00    +0.000 A 
ATOM     21  N   UNL     1      46.814   3.361  16.745  0.00  0.00    +0.000 NA
ATOM     22  C   UNL     1      47.462   3.563  17.917  0.00  0.00    +0.000 A 
BRANCH  17  24
ATOM     23  N   UNL     1      48.562   3.845  20.439  0.00  0.00    +0.000 N 
ATOM     24  C   UNL     1      49.018   4.675  19.455  0.00  0.00    +0.000 C 
ATOM     25  O   UNL     1      49.952   5.440  19.658  0.00  0.00    +0.000 OA
ATOM     26  H   UNL     1      49.092   3.850  21.303  0.00  0.00    +0.000 HD
ATOM     27  H   UNL     1      47.983   3.039  20.251  0.00  0.00    +0.000 HD
ENDBRANCH  17  24
ENDBRANCH  16  20
ENDBRANCH  15  16
ENDBRANCH   1  15
TORSDOF 5
ENDMDL
MODEL 6
REMARK VINA RESULT:    -8.166      3.883      7.420
REMARK INTER + INTRA:         -11.403
REMARK INTER:                 -10.901
REMARK INTRA:                  -0.501
REMARK UNBOUND:                -0.849
REMARK  Name = 
REMARK  5 active torsions:
REMARK  status: ('A' for Active; 'I' for Inactive)
REMARK    1  A    between atoms: C_2  and  C_4
REMARK    2  A    between atoms: C_7  and  O_8
REMARK    3  A    between atoms: O_8  and  C_9
REMARK    4  A    between atoms: C_9  and  C_10
REMARK    5  A    between atoms: C_15  and  C_16
REMARK                            x       y       z     vdW  Elec       q    Type
REMARK                         _______ _______ _______ _____ _____    ______ ____
ROOT
ATOM      1  C   UNL     1      45.440   6.232  11.420  0.00  0.00    +0.000 A 
ATOM      2  C   UNL     1      44.080   6.169  11.736  0.00  0.00    +0.000 A 
ATOM      3  C   UNL     1      43.259   5.272  11.066  0.00  0.00    +0.000 A 
ATOM      4  F   UNL     1      41.956   5.219  11.374  0.00  0.00    +0.000 F 
ATOM      5  C   UNL     1      43.763   4.426  10.081  0.00  0.00    +0.000 A 
ATOM      6  C   UNL     1      45.118   4.474   9.717  0.00  0.00    +0.000 A 
ATOM      7  C   UNL     1      45.933   5.404  10.396  0.00  0.00    +0.000 A 
ENDROOT
BRANCH   6   8
ATOM      8  C   UNL     1      45.679   3.593   8.667  0.00  0.00    +0.000 A 
ATOM      9  C   UNL     1      46.229   4.113   7.480  0.00  0.00    +0.000 A 
ATOM     10  C   UNL     1      46.766   3.279   6.491  0.00  0.00    +0.000 A 
ATOM     11  C   UNL     1      46.776   1.901   6.676  0.00  0.00    +0.000 A 
ATOM     12  C   UNL     1      46.243   1.371   7.841  0.00  0.00    +0.000 A 
ATOM     13  F   UNL     1      46.257   0.045   8.031  0.00  0.00    +0.000 F 
ATOM     14  C   UNL     1      45.694   2.194   8.821  0.00  0.00    +0.000 A 
ENDBRANCH   6   8
BRANCH   1  15
ATOM     15  C   UNL     1      46.334   7.233  12.117  0.00  0.00    +0.000 C 
BRANCH  15  16
ATOM     16  O   UNL     1      47.601   6.645  12.432  0.00  0.00    +0.000 OA
BRANCH  16  20
ATOM     17  C   UNL     1      47.578   4.626  16.020  0.00  0.00    +0.000 A 
ATOM     18  C   UNL     1      48.243   5.850  15.923  0.00  0.00    +0.000 A 
ATOM     19  C   UNL     1      48.241   6.529  14.703  0.00  0.00    +0.000 A 
ATOM     20  C   UNL     1      47.571   5.959  13.628  0.00  0.00    +0.000 A 
ATOM     21  N   UNL     1      46.916   4.783  13.698  0.00  0.00    +0.000 NA
ATOM     22  C   UNL     1      46.943   4.137  14.887  0.00  0.00    +0.000 A 
BRANCH  17  24
ATOM     23  N   UNL     1      48.509   4.016  18.183  0.00  0.00    +0.000 N 
ATOM     24  C   UNL     1      47.539   3.804  17.245  0.00  0.00    +0.000 C 
ATOM     25  O   UNL     1      46.649   2.985  17.432  0.00  0.00    +0.000 OA
ATOM     26  H   UNL     1      48.394   3.519  19.057  0.00  0.00    +0.000 HD
ATOM     27  H   UNL     1      49.097   4.838  18.187  0.00  0.00    +0.000 HD
ENDBRANCH  17  24
ENDBRANCH  16  20
ENDBRANCH  15  16
ENDBRANCH   1  15
TORSDOF 5
ENDMDL
MODEL 7
REMARK VINA RESULT:    -7.997      3.624      6.966
REMARK INTER + INTRA:         -11.184
REMARK INTER:                 -10.298
REMARK INTRA:                  -0.886
REMARK UNBOUND:                -0.849
REMARK  Name = 
REMARK  5 active torsions:
REMARK  status: ('A' for Active; 'I' for Inactive)
REMARK    1  A    between atoms: C_2  and  C_4
REMARK    2  A    between atoms: C_7  and  O_8
REMARK    3  A    between atoms: O_8  and  C_9
REMARK    4  A    between atoms: C_9  and  C_10
REMARK    5  A    between atoms: C_15  and  C_16
REMARK                            x       y       z     vdW  Elec       q    Type
REMARK                         _______ _______ _______ _____ _____    ______ ____
ROOT
ATOM      1  C   UNL     1      44.479   5.408  11.138  0.00  0.00    +0.000 A 
ATOM      2  C   UNL     1      43.762   4.545  11.971  0.00  0.00    +0.000 A 
ATOM      3  C   UNL     1      43.707   3.190  11.674  0.00  0.00    +0.000 A 
ATOM      4  F   UNL     1      43.016   2.369  12.477  0.00  0.00    +0.000 F 
ATOM      5  C   UNL     1      44.355   2.667  10.557  0.00  0.00    +0.000 A 
ATOM      6  C   UNL     1      45.065   3.503   9.681  0.00  0.00    +0.000 A 
ATOM      7  C   UNL     1      45.096   4.879   9.990  0.00  0.00    +0.000 A 
ENDROOT
BRANCH   6   8
ATOM      8  C   UNL     1      45.756   2.975   8.482  0.00  0.00    +0.000 A 
ATOM      9  C   UNL     1      46.138   3.816   7.418  0.00  0.00    +0.000 A 
ATOM     10  C   UNL     1      46.798   3.316   6.288  0.00  0.00    +0.000 A 
ATOM     11  C   UNL     1      47.102   1.962   6.204  0.00  0.00    +0.000 A 
ATOM     12  C   UNL     1      46.739   1.121   7.244  0.00  0.00    +0.000 A 
ATOM     13  F   UNL     1      47.037  -0.183   7.174  0.00  0.00    +0.000 F 
ATOM     14  C   UNL     1      46.069   1.608   8.363  0.00  0.00    +0.000 A 
ENDBRANCH   6   8
BRANCH   1  15
ATOM     15  C   UNL     1      44.512   6.891  11.432  0.00  0.00    +0.000 C 
BRANCH  15  16
ATOM     16  O   UNL     1      45.123   7.138  12.704  0.00  0.00    +0.000 OA
BRANCH  16  20
ATOM     17  C   UNL     1      49.143   7.936  12.307  0.00  0.00    +0.000 A 
ATOM     18  C   UNL     1      48.210   8.924  11.986  0.00  0.00    +0.000 A 
ATOM     19  C   UNL     1      46.849   8.645  12.128  0.00  0.00    +0.000 A 
ATOM     20  C   UNL     1      46.473   7.390  12.590  0.00  0.00    +0.000 A 
ATOM     21  N   UNL     1      47.354   6.422  12.914  0.00  0.00    +0.000 NA
ATOM     22  C   UNL     1      48.667   6.711  12.755  0.00  0.00    +0.000 A 
BRANCH  17  24
ATOM     23  N   UNL     1      51.234   7.377  11.199  0.00  0.00    +0.000 N 
ATOM     24  C   UNL     1      50.601   8.103  12.167  0.00  0.00    +0.000 C 
ATOM     25  O   UNL     1      51.220   8.893  12.869  0.00  0.00    +0.000 OA
ATOM     26  H   UNL     1      52.212   7.593  11.053  0.00  0.00    +0.000 HD
ATOM     27  H   UNL     1      50.739   6.919  10.446  0.00  0.00    +0.000 HD
ENDBRANCH  17  24
ENDBRANCH  16  20
ENDBRANCH  15  16
ENDBRANCH   1  15
TORSDOF 5
ENDMDL
MODEL 8
REMARK VINA RESULT:    -7.666      3.704      7.156
REMARK INTER + INTRA:         -10.756
REMARK INTER:                 -10.101
REMARK INTRA:                  -0.655
REMARK UNBOUND:                -0.849
REMARK  Name = 
REMARK  5 active torsions:
REMARK  status: ('A' for Active; 'I' for Inactive)
REMARK    1  A    between atoms: C_2  and  C_4
REMARK    2  A    between atoms: C_7  and  O_8
REMARK    3  A    between atoms: O_8  and  C_9
REMARK    4  A    between atoms: C_9  and  C_10
REMARK    5  A    between atoms: C_15  and  C_16
REMARK                            x       y       z     vdW  Elec       q    Type
REMARK                         _______ _______ _______ _____ _____    ______ ____
ROOT
ATOM      1  C   UNL     1      44.203   5.004  10.991  0.00  0.00    +0.000 A 
ATOM      2  C   UNL     1      43.476   4.070  11.734  0.00  0.00    +0.000 A 
ATOM      3  C   UNL     1      43.507   2.730  11.372  0.00  0.00    +0.000 A 
ATOM      4  F   UNL     1      42.807   1.841  12.089  0.00  0.00    +0.000 F 
ATOM      5  C   UNL     1      44.251   2.292  10.279  0.00  0.00    +0.000 A 
ATOM      6  C   UNL     1      44.975   3.202   9.492  0.00  0.00    +0.000 A 
ATOM      7  C   UNL     1      44.919   4.561   9.864  0.00  0.00    +0.000 A 
ENDROOT
BRANCH   6   8
ATOM      8  C   UNL     1      45.768   2.765   8.319  0.00  0.00    +0.000 A 
ATOM      9  C   UNL     1      46.318   1.471   8.238  0.00  0.00    +0.000 A 
ATOM     10  C   UNL     1      47.061   1.057   7.125  0.00  0.00    +0.000 A 
ATOM     11  C   UNL     1      47.260   1.928   6.060  0.00  0.00    +0.000 A 
ATOM     12  C   UNL     1      46.721   3.204   6.121  0.00  0.00    +0.000 A 
ATOM     13  F   UNL     1      46.899   4.047   5.094  0.00  0.00    +0.000 F 
ATOM     14  C   UNL     1      45.994   3.627   7.230  0.00  0.00    +0.000 A 
ENDBRANCH   6   8
BRANCH   1  15
ATOM     15  C   UNL     1      44.144   6.472  11.354  0.00  0.00    +0.000 C 
BRANCH  15  16
ATOM     16  O   UNL     1      45.385   7.117  11.045  0.00  0.00    +0.000 OA
BRANCH  16  20
ATOM     17  C   UNL     1      47.938   7.296  14.271  0.00  0.00    +0.000 A 
ATOM     18  C   UNL     1      47.230   8.437  13.889  0.00  0.00    +0.000 A 
ATOM     19  C   UNL     1      46.363   8.365  12.796  0.00  0.00    +0.000 A 
ATOM     20  C   UNL     1      46.235   7.153  12.130  0.00  0.00    +0.000 A 
ATOM     21  N   UNL     1      46.901   6.035  12.483  0.00  0.00    +0.000 NA
ATOM     22  C   UNL     1      47.745   6.133  13.537  0.00  0.00    +0.000 A 
BRANCH  17  24
ATOM     23  N   UNL     1      48.528   7.828  16.569  0.00  0.00    +0.000 N 
ATOM     24  C   UNL     1      48.903   7.259  15.385  0.00  0.00    +0.000 C 
ATOM     25  O   UNL     1      49.989   6.708  15.267  0.00  0.00    +0.000 OA
ATOM     26  H   UNL     1      49.163   7.692  17.346  0.00  0.00    +0.000 HD
ATOM     27  H   UNL     1      47.568   8.060  16.785  0.00  0.00    +0.000 HD
ENDBRANCH  17  24
ENDBRANCH  16  20
ENDBRANCH  15  16
ENDBRANCH   1  15
TORSDOF 5
ENDMDL
MODEL 9
REMARK VINA RESULT:    -7.225      5.436      7.814
REMARK INTER + INTRA:         -10.186
REMARK INTER:                  -9.361
REMARK INTRA:                  -0.825
REMARK UNBOUND:                -0.849
REMARK  Name = 
REMARK  5 active torsions:
REMARK  status: ('A' for Active; 'I' for Inactive)
REMARK    1  A    between atoms: C_2  and  C_4
REMARK    2  A    between atoms: C_7  and  O_8
REMARK    3  A    between atoms: O_8  and  C_9
REMARK    4  A    between atoms: C_9  and  C_10
REMARK    5  A    between atoms: C_15  and  C_16
REMARK                            x       y       z     vdW  Elec       q    Type
REMARK                         _______ _______ _______ _____ _____    ______ ____
ROOT
ATOM      1  C   UNL     1      48.323   6.690  14.431  0.00  0.00    +0.000 A 
ATOM      2  C   UNL     1      49.061   7.453  13.523  0.00  0.00    +0.000 A 
ATOM      3  C   UNL     1      48.643   7.544  12.202  0.00  0.00    +0.000 A 
ATOM      4  F   UNL     1      49.357   8.276  11.337  0.00  0.00    +0.000 F 
ATOM      5  C   UNL     1      47.496   6.890  11.759  0.00  0.00    +0.000 A 
ATOM      6  C   UNL     1      46.740   6.094  12.634  0.00  0.00    +0.000 A 
ATOM      7  C   UNL     1      47.190   5.999  13.968  0.00  0.00    +0.000 A 
ENDROOT
BRANCH   6   8
ATOM      8  C   UNL     1      45.521   5.379  12.188  0.00  0.00    +0.000 A 
ATOM      9  C   UNL     1      44.583   4.871  13.108  0.00  0.00    +0.000 A 
ATOM     10  C   UNL     1      43.428   4.203  12.685  0.00  0.00    +0.000 A 
ATOM     11  C   UNL     1      43.178   4.039  11.327  0.00  0.00    +0.000 A 
ATOM     12  C   UNL     1      44.088   4.537  10.407  0.00  0.00    +0.000 A 
ATOM     13  F   UNL     1      43.851   4.391   9.097  0.00  0.00    +0.000 F 
ATOM     14  C   UNL     1      45.246   5.189  10.821  0.00  0.00    +0.000 A 
ENDBRANCH   6   8
BRANCH   1  15
ATOM     15  C   UNL     1      48.793   6.553  15.863  0.00  0.00    +0.000 C 
BRANCH  15  16
ATOM     16  O   UNL     1      48.197   5.408  16.482  0.00  0.00    +0.000 OA
BRANCH  16  20
ATOM     17  C   UNL     1      50.923   2.455  17.378  0.00  0.00    +0.000 A 
ATOM     18  C   UNL     1      49.622   2.102  17.012  0.00  0.00    +0.000 A 
ATOM     19  C   UNL     1      48.706   3.112  16.705  0.00  0.00    +0.000 A 
ATOM     20  C   UNL     1      49.128   4.433  16.773  0.00  0.00    +0.000 A 
ATOM     21  N   UNL     1      50.379   4.799  17.117  0.00  0.00    +0.000 NA
ATOM     22  C   UNL     1      51.245   3.804  17.422  0.00  0.00    +0.000 A 
BRANCH  17  24
ATOM     23  N   UNL     1      51.562   0.223  18.101  0.00  0.00    +0.000 N 
ATOM     24  C   UNL     1      51.965   1.480  17.754  0.00  0.00    +0.000 C 
ATOM     25  O   UNL     1      53.152   1.777  17.721  0.00  0.00    +0.000 OA
ATOM     26  H   UNL     1      52.302  -0.454  18.247  0.00  0.00    +0.000 HD
ATOM     27  H   UNL     1      50.638  -0.132  17.899  0.00  0.00    +0.000 HD
ENDBRANCH  17  24
ENDBRANCH  16  20
ENDBRANCH  15  16
ENDBRANCH   1  15
TORSDOF 5
ENDMDL
