MODEL 1
REMARK VINA RESULT:    -9.181      0.000      0.000
REMARK INTER + INTRA:         -12.616
REMARK INTER:                 -11.865
REMARK INTRA:                  -0.751
REMARK UNBOUND:                -0.751
REMARK  Name = 
REMARK  5 active torsions:
REMARK  status: ('A' for Active; 'I' for Inactive)
REMARK    1  A    between atoms: C_2  and  C_4
REMARK    2  A    between atoms: C_7  and  O_8
REMARK    3  A    between atoms: O_8  and  C_9
REMARK    4  A    between atoms: C_9  and  C_10
REMARK    5  A    between atoms: C_14  and  C_15
REMARK                            x       y       z     vdW  Elec       q    Type
REMARK                         _______ _______ _______ _____ _____    ______ ____
ROOT
ATOM      1  C   UNL     1      43.784   3.181  11.645  0.00  0.00    +0.000 C 
ENDROOT
BRANCH   1   2
ATOM      2  C   UNL     1      44.970   3.913  12.196  0.00  0.00    +0.000 A 
ATOM      3  C   UNL     1      45.931   3.255  12.950  0.00  0.00    +0.000 A 
ATOM      4  N   UNL     1      46.992   3.862  13.516  0.00  0.00    +0.000 NA
ATOM      5  C   UNL     1      47.108   5.195  13.308  0.00  0.00    +0.000 A 
ATOM      6  C   UNL     1      46.216   5.978  12.569  0.00  0.00    +0.000 A 
ATOM      7  C   UNL     1      45.128   5.292  12.011  0.00  0.00    +0.000 A 
BRANCH   6   8
ATOM      8  C   UNL     1      46.402   7.432  12.395  0.00  0.00    +0.000 A 
ATOM      9  C   UNL     1      47.683   8.015  12.434  0.00  0.00    +0.000 A 
ATOM     10  C   UNL     1      47.865   9.389  12.267  0.00  0.00    +0.000 A 
ATOM     11  C   UNL     1      46.763  10.216  12.064  0.00  0.00    +0.000 A 
ATOM     12  C   UNL     1      45.489   9.663  12.026  0.00  0.00    +0.000 A 
ATOM     13 CL   UNL     1      44.122  10.681  11.782  0.00  0.00    +0.000 Cl
ATOM     14  C   UNL     1      45.306   8.289  12.185  0.00  0.00    +0.000 A 
ENDBRANCH   6   8
ENDBRANCH   1   2
BRANCH   1  15
ATOM     15  O   UNL     1      43.576   3.563  10.284  0.00  0.00    +0.000 OA
BRANCH  15  19
ATOM     16  C   UNL     1      46.503   2.597   7.460  0.00  0.00    +0.000 A 
ATOM     17  C   UNL     1      46.078   3.915   7.666  0.00  0.00    +0.000 A 
ATOM     18  C   UNL     1      45.096   4.195   8.625  0.00  0.00    +0.000 A 
ATOM     19  C   UNL     1      44.536   3.170   9.392  0.00  0.00    +0.000 A 
ATOM     20  C   UNL     1      44.977   1.861   9.201  0.00  0.00    +0.000 A 
ATOM     21  C   UNL     1      45.947   1.585   8.243  0.00  0.00    +0.000 A 
ATOM     22  F   UNL     1      46.325   0.305   8.098  0.00  0.00    +0.000 F 
BRANCH  16  24
ATOM     23  N   UNL     1      47.430   3.030   5.244  0.00  0.00    +0.000 N 
ATOM     24  C   UNL     1      47.514   2.321   6.409  0.00  0.00    +0.000 C 
ATOM     25  O   UNL     1      48.404   1.498   6.578  0.00  0.00    +0.000 OA
ATOM     26  H   UNL     1      48.130   2.862   4.532  0.00  0.00    +0.000 HD
ATOM     27  H   UNL     1      46.724   3.734   5.074  0.00  0.00    +0.000 HD
ENDBRANCH  16  24
ENDBRANCH  15  19
ENDBRANCH   1  15
TORSDOF 5
ENDMDL
MODEL 2
REMARK VINA RESULT:    -9.165      1.161      1.494
REMARK INTER + INTRA:         -12.595
REMARK INTER:                 -11.844
REMARK INTRA:                  -0.752
REMARK UNBOUND:                -0.751
REMARK  Name = 
REMARK  5 active torsions:
REMARK  status: ('A' for Active; 'I' for Inactive)
REMARK    1  A    between atoms: C_2  and  C_4
REMARK    2  A    between atoms: C_7  and  O_8
REMARK    3  A    between atoms: O_8  and  C_9
REMARK    4  A    between atoms: C_9  and  C_10
REMARK    5  A    between atoms: C_14  and  C_15
REMARK                            x       y       z     vdW  Elec       q    Type
REMARK                         _______ _______ _______ _____ _____    ______ ____
ROOT
ATOM      1  C   UNL     1      43.724   3.218  11.613  0.00  0.00    +0.000 C 
ENDROOT
BRANCH   1   2
ATOM      2  C   UNL     1      44.907   3.898  12.233  0.00  0.00    +0.000 A 
ATOM      3  C   UNL     1      45.760   3.216  13.089  0.00  0.00    +0.000 A 
ATOM      4  N   UNL     1      46.809   3.779  13.717  0.00  0.00    +0.000 NA
ATOM      5  C   UNL     1      47.027   5.093  13.469  0.00  0.00    +0.000 A 
ATOM      6  C   UNL     1      46.249   5.897  12.631  0.00  0.00    +0.000 A 
ATOM      7  C   UNL     1      45.168   5.256  12.010  0.00  0.00    +0.000 A 
BRANCH   6   8
ATOM      8  C   UNL     1      46.542   7.328  12.417  0.00  0.00    +0.000 A 
ATOM      9  C   UNL     1      45.532   8.304  12.516  0.00  0.00    +0.000 A 
ATOM     10  C   UNL     1      45.804   9.659  12.317  0.00  0.00    +0.000 A 
ATOM     11  C   UNL     1      47.097  10.069  12.006  0.00  0.00    +0.000 A 
ATOM     12  C   UNL     1      48.109   9.124  11.899  0.00  0.00    +0.000 A 
ATOM     13 CL   UNL     1      49.710   9.624  11.509  0.00  0.00    +0.000 Cl
ATOM     14  C   UNL     1      47.841   7.770  12.105  0.00  0.00    +0.000 A 
ENDBRANCH   6   8
ENDBRANCH   1   2
BRANCH   1  15
ATOM     15  O   UNL     1      43.579   3.649  10.259  0.00  0.00    +0.000 OA
BRANCH  15  19
ATOM     16  C   UNL     1      46.534   2.602   7.492  0.00  0.00    +0.000 A 
ATOM     17  C   UNL     1      46.166   3.935   7.716  0.00  0.00    +0.000 A 
ATOM     18  C   UNL     1      45.173   4.242   8.655  0.00  0.00    +0.000 A 
ATOM     19  C   UNL     1      44.544   3.229   9.384  0.00  0.00    +0.000 A 
ATOM     20  C   UNL     1      44.927   1.905   9.175  0.00  0.00    +0.000 A 
ATOM     21  C   UNL     1      45.908   1.603   8.237  0.00  0.00    +0.000 A 
ATOM     22  F   UNL     1      46.228   0.309   8.074  0.00  0.00    +0.000 F 
BRANCH  16  24
ATOM     23  N   UNL     1      47.444   2.920   5.250  0.00  0.00    +0.000 N 
ATOM     24  C   UNL     1      47.558   2.301   6.462  0.00  0.00    +0.000 C 
ATOM     25  O   UNL     1      48.485   1.534   6.688  0.00  0.00    +0.000 OA
ATOM     26  H   UNL     1      48.154   2.735   4.551  0.00  0.00    +0.000 HD
ATOM     27  H   UNL     1      46.706   3.577   5.031  0.00  0.00    +0.000 HD
ENDBRANCH  16  24
ENDBRANCH  15  19
ENDBRANCH   1  15
TORSDOF 5
ENDMDL
MODEL 3
REMARK VINA RESULT:    -9.157      2.156      2.474
REMARK INTER + INTRA:         -12.585
REMARK INTER:                 -11.879
REMARK INTRA:                  -0.706
REMARK UNBOUND:                -0.751
REMARK  Name = 
REMARK  5 active torsions:
REMARK  status: ('A' for Active; 'I' for Inactive)
REMARK    1  A    between atoms: C_2  and  C_4
REMARK    2  A    between atoms: C_7  and  O_8
REMARK    3  A    between atoms: O_8  and  C_9
REMARK    4  A    between atoms: C_9  and  C_10
REMARK    5  A    between atoms: C_14  and  C_15
REMARK                            x       y       z     vdW  Elec       q    Type
REMARK                         _______ _______ _______ _____ _____    ______ ____
ROOT
ATOM      1  C   UNL     1      43.774   5.182  10.803  0.00  0.00    +0.000 C 
ENDROOT
BRANCH   1   2
ATOM      2  C   UNL     1      44.864   5.103  11.828  0.00  0.00    +0.000 A 
ATOM      3  C   UNL     1      44.789   4.210  12.887  0.00  0.00    +0.000 A 
ATOM      4  N   UNL     1      45.707   4.122  13.868  0.00  0.00    +0.000 NA
ATOM      5  C   UNL     1      46.765   4.964  13.782  0.00  0.00    +0.000 A 
ATOM      6  C   UNL     1      46.965   5.910  12.772  0.00  0.00    +0.000 A 
ATOM      7  C   UNL     1      45.972   5.958  11.782  0.00  0.00    +0.000 A 
BRANCH   6   8
ATOM      8  C   UNL     1      48.139   6.803  12.751  0.00  0.00    +0.000 A 
ATOM      9  C   UNL     1      48.473   7.545  11.602  0.00  0.00    +0.000 A 
ATOM     10  C   UNL     1      49.581   8.394  11.576  0.00  0.00    +0.000 A 
ATOM     11  C   UNL     1      50.390   8.513  12.703  0.00  0.00    +0.000 A 
ATOM     12  C   UNL     1      50.084   7.787  13.847  0.00  0.00    +0.000 A 
ATOM     13 CL   UNL     1      51.083   7.924  15.242  0.00  0.00    +0.000 Cl
ATOM     14  C   UNL     1      48.972   6.944  13.876  0.00  0.00    +0.000 A 
ENDBRANCH   6   8
ENDBRANCH   1   2
BRANCH   1  15
ATOM     15  O   UNL     1      43.541   3.886  10.251  0.00  0.00    +0.000 OA
BRANCH  15  19
ATOM     16  C   UNL     1      46.461   2.680   7.512  0.00  0.00    +0.000 A 
ATOM     17  C   UNL     1      46.095   4.023   7.663  0.00  0.00    +0.000 A 
ATOM     18  C   UNL     1      45.113   4.384   8.594  0.00  0.00    +0.000 A 
ATOM     19  C   UNL     1      44.495   3.415   9.390  0.00  0.00    +0.000 A 
ATOM     20  C   UNL     1      44.877   2.082   9.254  0.00  0.00    +0.000 A 
ATOM     21  C   UNL     1      45.846   1.725   8.323  0.00  0.00    +0.000 A 
ATOM     22  F   UNL     1      46.166   0.424   8.231  0.00  0.00    +0.000 F 
BRANCH  16  24
ATOM     23  N   UNL     1      47.453   3.001   5.306  0.00  0.00    +0.000 N 
ATOM     24  C   UNL     1      47.473   2.319   6.489  0.00  0.00    +0.000 C 
ATOM     25  O   UNL     1      48.309   1.449   6.696  0.00  0.00    +0.000 OA
ATOM     26  H   UNL     1      48.156   2.775   4.613  0.00  0.00    +0.000 HD
ATOM     27  H   UNL     1      46.794   3.742   5.105  0.00  0.00    +0.000 HD
ENDBRANCH  16  24
ENDBRANCH  15  19
ENDBRANCH   1  15
TORSDOF 5
ENDMDL
MODEL 4
REMARK VINA RESULT:    -8.792      2.185      2.719
REMARK INTER + INTRA:         -12.113
REMARK INTER:                 -11.364
REMARK INTRA:                  -0.749
REMARK UNBOUND:                -0.751
REMARK  Name = 
REMARK  5 active torsions:
REMARK  status: ('A' for Active; 'I' for Inactive)
REMARK    1  A    between atoms: C_2  and  C_4
REMARK    2  A    between atoms: C_7  and  O_8
REMARK    3  A    between atoms: O_8  and  C_9
REMARK    4  A    between atoms: C_9  and  C_10
REMARK    5  A    between atoms: C_14  and  C_15
REMARK                            x       y       z     vdW  Elec       q    Type
REMARK                         _______ _______ _______ _____ _____    ______ ____
ROOT
ATOM      1  C   UNL     1      44.002   3.630  11.601  0.00  0.00    +0.000 C 
ENDROOT
BRANCH   1   2
ATOM      2  C   UNL     1      44.442   5.057  11.733  0.00  0.00    +0.000 A 
ATOM      3  C   UNL     1      43.568   6.104  11.479  0.00  0.00    +0.000 A 
ATOM      4  N   UNL     1      43.911   7.405  11.531  0.00  0.00    +0.000 NA
ATOM      5  C   UNL     1      45.195   7.677  11.866  0.00  0.00    +0.000 A 
ATOM      6  C   UNL     1      46.177   6.723  12.149  0.00  0.00    +0.000 A 
ATOM      7  C   UNL     1      45.761   5.386  12.072  0.00  0.00    +0.000 A 
BRANCH   6   8
ATOM      8  C   UNL     1      47.561   7.096  12.497  0.00  0.00    +0.000 A 
ATOM      9  C   UNL     1      48.436   7.640  11.537  0.00  0.00    +0.000 A 
ATOM     10  C   UNL     1      49.746   7.997  11.862  0.00  0.00    +0.000 A 
ATOM     11  C   UNL     1      50.216   7.809  13.159  0.00  0.00    +0.000 A 
ATOM     12  C   UNL     1      49.372   7.270  14.122  0.00  0.00    +0.000 A 
ATOM     13 CL   UNL     1      49.948   7.029  15.727  0.00  0.00    +0.000 Cl
ATOM     14  C   UNL     1      48.060   6.920  13.801  0.00  0.00    +0.000 A 
ENDBRANCH   6   8
ENDBRANCH   1   2
BRANCH   1  15
ATOM     15  O   UNL     1      43.565   3.387  10.263  0.00  0.00    +0.000 OA
BRANCH  15  19
ATOM     16  C   UNL     1      46.521   2.590   7.417  0.00  0.00    +0.000 A 
ATOM     17  C   UNL     1      46.064   3.889   7.667  0.00  0.00    +0.000 A 
ATOM     18  C   UNL     1      45.073   4.112   8.631  0.00  0.00    +0.000 A 
ATOM     19  C   UNL     1      44.536   3.048   9.361  0.00  0.00    +0.000 A 
ATOM     20  C   UNL     1      45.009   1.758   9.127  0.00  0.00    +0.000 A 
ATOM     21  C   UNL     1      45.988   1.538   8.163  0.00  0.00    +0.000 A 
ATOM     22  F   UNL     1      46.397   0.273   7.975  0.00  0.00    +0.000 F 
BRANCH  16  24
ATOM     23  N   UNL     1      47.335   2.968   5.147  0.00  0.00    +0.000 N 
ATOM     24  C   UNL     1      47.541   2.375   6.360  0.00  0.00    +0.000 C 
ATOM     25  O   UNL     1      48.542   1.702   6.565  0.00  0.00    +0.000 OA
ATOM     26  H   UNL     1      48.039   2.844   4.430  0.00  0.00    +0.000 HD
ATOM     27  H   UNL     1      46.532   3.550   4.945  0.00  0.00    +0.000 HD
ENDBRANCH  16  24
ENDBRANCH  15  19
ENDBRANCH   1  15
TORSDOF 5
ENDMDL
MODEL 5
REMARK VINA RESULT:    -8.653      2.116      2.669
REMARK INTER + INTRA:         -11.933
REMARK INTER:                 -11.265
REMARK INTRA:                  -0.668
REMARK UNBOUND:                -0.751
REMARK  Name = 
REMARK  5 active torsions:
REMARK  status: ('A' for Active; 'I' for Inactive)
REMARK    1  A    between atoms: C_2  and  C_4
REMARK    2  A    between atoms: C_7  and  O_8
REMARK    3  A    between atoms: O_8  and  C_9
REMARK    4  A    between atoms: C_9  and  C_10
REMARK    5  A    between atoms: C_14  and  C_15
REMARK                            x       y       z     vdW  Elec       q    Type
REMARK                         _______ _______ _______ _____ _____    ______ ____
ROOT
ATOM      1  C   UNL     1      44.018   3.510  11.477  0.00  0.00    +0.000 C 
ENDROOT
BRANCH   1   2
ATOM      2  C   UNL     1      44.442   4.934  11.669  0.00  0.00    +0.000 A 
ATOM      3  C   UNL     1      43.582   5.984  11.379  0.00  0.00    +0.000 A 
ATOM      4  N   UNL     1      43.917   7.284  11.482  0.00  0.00    +0.000 NA
ATOM      5  C   UNL     1      45.174   7.553  11.908  0.00  0.00    +0.000 A 
ATOM      6  C   UNL     1      46.139   6.595  12.233  0.00  0.00    +0.000 A 
ATOM      7  C   UNL     1      45.734   5.259  12.101  0.00  0.00    +0.000 A 
BRANCH   6   8
ATOM      8  C   UNL     1      47.496   6.964  12.681  0.00  0.00    +0.000 A 
ATOM      9  C   UNL     1      47.846   6.947  14.045  0.00  0.00    +0.000 A 
ATOM     10  C   UNL     1      49.129   7.293  14.474  0.00  0.00    +0.000 A 
ATOM     11  C   UNL     1      50.093   7.673  13.544  0.00  0.00    +0.000 A 
ATOM     12  C   UNL     1      49.769   7.702  12.193  0.00  0.00    +0.000 A 
ATOM     13 CL   UNL     1      50.954   8.178  11.039  0.00  0.00    +0.000 Cl
ATOM     14  C   UNL     1      48.490   7.350  11.763  0.00  0.00    +0.000 A 
ENDBRANCH   6   8
ENDBRANCH   1   2
BRANCH   1  15
ATOM     15  O   UNL     1      43.607   3.311  10.123  0.00  0.00    +0.000 OA
BRANCH  15  19
ATOM     16  C   UNL     1      46.595   2.535   7.304  0.00  0.00    +0.000 A 
ATOM     17  C   UNL     1      46.061   3.816   7.484  0.00  0.00    +0.000 A 
ATOM     18  C   UNL     1      45.062   4.033   8.442  0.00  0.00    +0.000 A 
ATOM     19  C   UNL     1      44.594   2.981   9.234  0.00  0.00    +0.000 A 
ATOM     20  C   UNL     1      45.143   1.710   9.069  0.00  0.00    +0.000 A 
ATOM     21  C   UNL     1      46.129   1.497   8.111  0.00  0.00    +0.000 A 
ATOM     22  F   UNL     1      46.614   0.250   7.991  0.00  0.00    +0.000 F 
BRANCH  16  24
ATOM     23  N   UNL     1      47.619   3.169   5.181  0.00  0.00    +0.000 N 
ATOM     24  C   UNL     1      47.622   2.323   6.253  0.00  0.00    +0.000 C 
ATOM     25  O   UNL     1      48.455   1.431   6.344  0.00  0.00    +0.000 OA
ATOM     26  H   UNL     1      48.331   3.044   4.472  0.00  0.00    +0.000 HD
ATOM     27  H   UNL     1      46.963   3.932   5.080  0.00  0.00    +0.000 HD
ENDBRANCH  16  24
ENDBRANCH  15  19
ENDBRANCH   1  15
TORSDOF 5
ENDMDL
MODEL 6
REMARK VINA RESULT:    -8.197      2.996      4.196
REMARK INTER + INTRA:         -11.344
REMARK INTER:                 -10.812
REMARK INTRA:                  -0.532
REMARK UNBOUND:                -0.751
REMARK  Name = 
REMARK  5 active torsions:
REMARK  status: ('A' for Active; 'I' for Inactive)
REMARK    1  A    between atoms: C_2  and  C_4
REMARK    2  A    between atoms: C_7  and  O_8
REMARK    3  A    between atoms: O_8  and  C_9
REMARK    4  A    between atoms: C_9  and  C_10
REMARK    5  A    between atoms: C_14  and  C_15
REMARK                            x       y       z     vdW  Elec       q    Type
REMARK                         _______ _______ _______ _____ _____    ______ ____
ROOT
ATOM      1  C   UNL     1      44.594   3.498  11.920  0.00  0.00    +0.000 C 
ENDROOT
BRANCH   1   2
ATOM      2  C   UNL     1      45.524   4.440  12.622  0.00  0.00    +0.000 A 
ATOM      3  C   UNL     1      45.881   5.654  12.053  0.00  0.00    +0.000 A 
ATOM      4  N   UNL     1      46.748   6.522  12.607  0.00  0.00    +0.000 NA
ATOM      5  C   UNL     1      47.281   6.165  13.800  0.00  0.00    +0.000 A 
ATOM      6  C   UNL     1      47.008   4.977  14.484  0.00  0.00    +0.000 A 
ATOM      7  C   UNL     1      46.102   4.111  13.855  0.00  0.00    +0.000 A 
BRANCH   6   8
ATOM      8  C   UNL     1      47.636   4.651  15.779  0.00  0.00    +0.000 A 
ATOM      9  C   UNL     1      47.258   3.507  16.508  0.00  0.00    +0.000 A 
ATOM     10  C   UNL     1      47.850   3.193  17.732  0.00  0.00    +0.000 A 
ATOM     11  C   UNL     1      48.833   4.024  18.262  0.00  0.00    +0.000 A 
ATOM     12  C   UNL     1      49.219   5.161  17.563  0.00  0.00    +0.000 A 
ATOM     13 CL   UNL     1      50.429   6.197  18.215  0.00  0.00    +0.000 Cl
ATOM     14  C   UNL     1      48.634   5.472  16.336  0.00  0.00    +0.000 A 
ENDBRANCH   6   8
ENDBRANCH   1   2
BRANCH   1  15
ATOM     15  O   UNL     1      44.298   4.001  10.616  0.00  0.00    +0.000 OA
BRANCH  15  19
ATOM     16  C   UNL     1      46.577   2.666   7.375  0.00  0.00    +0.000 A 
ATOM     17  C   UNL     1      46.388   4.028   7.637  0.00  0.00    +0.000 A 
ATOM     18  C   UNL     1      45.619   4.433   8.736  0.00  0.00    +0.000 A 
ATOM     19  C   UNL     1      45.040   3.487   9.587  0.00  0.00    +0.000 A 
ATOM     20  C   UNL     1      45.248   2.131   9.337  0.00  0.00    +0.000 A 
ATOM     21  C   UNL     1      46.005   1.733   8.240  0.00  0.00    +0.000 A 
ATOM     22  F   UNL     1      46.163   0.414   8.046  0.00  0.00    +0.000 F 
BRANCH  16  24
ATOM     23  N   UNL     1      47.088   2.894   4.999  0.00  0.00    +0.000 N 
ATOM     24  C   UNL     1      47.360   2.264   6.180  0.00  0.00    +0.000 C 
ATOM     25  O   UNL     1      48.231   1.406   6.246  0.00  0.00    +0.000 OA
ATOM     26  H   UNL     1      47.636   2.639   4.186  0.00  0.00    +0.000 HD
ATOM     27  H   UNL     1      46.393   3.622   4.908  0.00  0.00    +0.000 HD
ENDBRANCH  16  24
ENDBRANCH  15  19
ENDBRANCH   1  15
TORSDOF 5
ENDMDL
MODEL 7
REMARK VINA RESULT:    -8.090      4.308      7.214
REMARK INTER + INTRA:         -11.206
REMARK INTER:                 -10.194
REMARK INTRA:                  -1.012
REMARK UNBOUND:                -0.751
REMARK  Name = 
REMARK  5 active torsions:
REMARK  status: ('A' for Active; 'I' for Inactive)
REMARK    1  A    between atoms: C_2  and  C_4
REMARK    2  A    between atoms: C_7  and  O_8
REMARK    3  A    between atoms: O_8  and  C_9
REMARK    4  A    between atoms: C_9  and  C_10
REMARK    5  A    between atoms: C_14  and  C_15
REMARK                            x       y       z     vdW  Elec       q    Type
REMARK                         _______ _______ _______ _____ _____    ______ ____
ROOT
ATOM      1  C   UNL     1      44.181   6.747  11.662  0.00  0.00    +0.000 C 
ENDROOT
BRANCH   1   2
ATOM      2  C   UNL     1      44.064   5.326  11.201  0.00  0.00    +0.000 A 
ATOM      3  C   UNL     1      43.204   4.437  11.829  0.00  0.00    +0.000 A 
ATOM      4  N   UNL     1      43.087   3.137  11.498  0.00  0.00    +0.000 NA
ATOM      5  C   UNL     1      43.862   2.703  10.475  0.00  0.00    +0.000 A 
ATOM      6  C   UNL     1      44.767   3.489   9.757  0.00  0.00    +0.000 A 
ATOM      7  C   UNL     1      44.849   4.832  10.152  0.00  0.00    +0.000 A 
BRANCH   6   8
ATOM      8  C   UNL     1      45.588   2.942   8.659  0.00  0.00    +0.000 A 
ATOM      9  C   UNL     1      46.158   3.782   7.683  0.00  0.00    +0.000 A 
ATOM     10  C   UNL     1      46.937   3.271   6.644  0.00  0.00    +0.000 A 
ATOM     11  C   UNL     1      47.158   1.899   6.552  0.00  0.00    +0.000 A 
ATOM     12  C   UNL     1      46.602   1.050   7.500  0.00  0.00    +0.000 A 
ATOM     13 CL   UNL     1      46.866  -0.647   7.389  0.00  0.00    +0.000 Cl
ATOM     14  C   UNL     1      45.829   1.561   8.544  0.00  0.00    +0.000 A 
ENDBRANCH   6   8
ENDBRANCH   1   2
BRANCH   1  15
ATOM     15  O   UNL     1      45.012   6.807  12.823  0.00  0.00    +0.000 OA
BRANCH  15  19
ATOM     16  C   UNL     1      49.064   7.705  12.319  0.00  0.00    +0.000 A 
ATOM     17  C   UNL     1      48.635   6.475  12.833  0.00  0.00    +0.000 A 
ATOM     18  C   UNL     1      47.267   6.214  12.983  0.00  0.00    +0.000 A 
ATOM     19  C   UNL     1      46.315   7.169  12.615  0.00  0.00    +0.000 A 
ATOM     20  C   UNL     1      46.744   8.384  12.083  0.00  0.00    +0.000 A 
ATOM     21  C   UNL     1      48.103   8.643  11.943  0.00  0.00    +0.000 A 
ATOM     22  F   UNL     1      48.455   9.834  11.433  0.00  0.00    +0.000 F 
BRANCH  16  24
ATOM     23  N   UNL     1      51.225   8.136  13.368  0.00  0.00    +0.000 N 
ATOM     24  C   UNL     1      50.520   7.972  12.210  0.00  0.00    +0.000 C 
ATOM     25  O   UNL     1      51.079   8.033  11.123  0.00  0.00    +0.000 OA
ATOM     26  H   UNL     1      52.223   8.296  13.300  0.00  0.00    +0.000 HD
ATOM     27  H   UNL     1      50.805   8.071  14.286  0.00  0.00    +0.000 HD
ENDBRANCH  16  24
ENDBRANCH  15  19
ENDBRANCH   1  15
TORSDOF 5
ENDMDL
MODEL 8
REMARK VINA RESULT:    -7.956      4.129      7.621
REMARK INTER + INTRA:         -11.032
REMARK INTER:                 -10.337
REMARK INTRA:                  -0.695
REMARK UNBOUND:                -0.751
REMARK  Name = 
REMARK  5 active torsions:
REMARK  status: ('A' for Active; 'I' for Inactive)
REMARK    1  A    between atoms: C_2  and  C_4
REMARK    2  A    between atoms: C_7  and  O_8
REMARK    3  A    between atoms: O_8  and  C_9
REMARK    4  A    between atoms: C_9  and  C_10
REMARK    5  A    between atoms: C_14  and  C_15
REMARK                            x       y       z     vdW  Elec       q    Type
REMARK                         _______ _______ _______ _____ _____    ______ ____
ROOT
ATOM      1  C   UNL     1      44.980   7.083  11.770  0.00  0.00    +0.000 C 
ENDROOT
BRANCH   1   2
ATOM      2  C   UNL     1      44.550   5.758  11.218  0.00  0.00    +0.000 A 
ATOM      3  C   UNL     1      43.456   5.084  11.742  0.00  0.00    +0.000 A 
ATOM      4  N   UNL     1      43.047   3.870  11.327  0.00  0.00    +0.000 NA
ATOM      5  C   UNL     1      43.760   3.303  10.325  0.00  0.00    +0.000 A 
ATOM      6  C   UNL     1      44.879   3.870   9.707  0.00  0.00    +0.000 A 
ATOM      7  C   UNL     1      45.260   5.132  10.187  0.00  0.00    +0.000 A 
BRANCH   6   8
ATOM      8  C   UNL     1      45.614   3.185   8.626  0.00  0.00    +0.000 A 
ATOM      9  C   UNL     1      46.155   3.902   7.542  0.00  0.00    +0.000 A 
ATOM     10  C   UNL     1      46.854   3.260   6.518  0.00  0.00    +0.000 A 
ATOM     11  C   UNL     1      47.021   1.878   6.551  0.00  0.00    +0.000 A 
ATOM     12  C   UNL     1      46.491   1.149   7.609  0.00  0.00    +0.000 A 
ATOM     13 CL   UNL     1      46.688  -0.560   7.654  0.00  0.00    +0.000 Cl
ATOM     14  C   UNL     1      45.800   1.791   8.637  0.00  0.00    +0.000 A 
ENDBRANCH   6   8
ENDBRANCH   1   2
BRANCH   1  15
ATOM     15  O   UNL     1      46.407   7.139  11.823  0.00  0.00    +0.000 OA
BRANCH  15  19
ATOM     16  C   UNL     1      48.321   6.104  15.392  0.00  0.00    +0.000 A 
ATOM     17  C   UNL     1      48.495   7.358  14.794  0.00  0.00    +0.000 A 
ATOM     18  C   UNL     1      47.833   7.665  13.598  0.00  0.00    +0.000 A 
ATOM     19  C   UNL     1      46.985   6.732  12.994  0.00  0.00    +0.000 A 
ATOM     20  C   UNL     1      46.795   5.493  13.603  0.00  0.00    +0.000 A 
ATOM     21  C   UNL     1      47.461   5.188  14.786  0.00  0.00    +0.000 A 
ATOM     22  F   UNL     1      47.245   3.975  15.321  0.00  0.00    +0.000 F 
BRANCH  16  24
ATOM     23  N   UNL     1      48.412   5.932  17.825  0.00  0.00    +0.000 N 
ATOM     24  C   UNL     1      49.068   5.788  16.635  0.00  0.00    +0.000 C 
ATOM     25  O   UNL     1      50.228   5.399  16.603  0.00  0.00    +0.000 OA
ATOM     26  H   UNL     1      48.910   5.696  18.675  0.00  0.00    +0.000 HD
ATOM     27  H   UNL     1      47.448   6.229  17.893  0.00  0.00    +0.000 HD
ENDBRANCH  16  24
ENDBRANCH  15  19
ENDBRANCH   1  15
TORSDOF 5
ENDMDL
MODEL 9
REMARK VINA RESULT:    -7.258      4.788      8.375
REMARK INTER + INTRA:         -10.131
REMARK INTER:                  -9.290
REMARK INTRA:                  -0.840
REMARK UNBOUND:                -0.751
REMARK  Name = 
REMARK  5 active torsions:
REMARK  status: ('A' for Active; 'I' for Inactive)
REMARK    1  A    between atoms: C_2  and  C_4
REMARK    2  A    between atoms: C_7  and  O_8
REMARK    3  A    between atoms: O_8  and  C_9
REMARK    4  A    between atoms: C_9  and  C_10
REMARK    5  A    between atoms: C_14  and  C_15
REMARK                            x       y       z     vdW  Elec       q    Type
REMARK                         _______ _______ _______ _____ _____    ______ ____
ROOT
ATOM      1  C   UNL     1      48.237   7.506  13.740  0.00  0.00    +0.000 C 
ENDROOT
BRANCH   1   2
ATOM      2  C   UNL     1      47.025   7.435  12.861  0.00  0.00    +0.000 A 
ATOM      3  C   UNL     1      46.121   8.486  12.800  0.00  0.00    +0.000 A 
ATOM      4  N   UNL     1      44.989   8.467  12.071  0.00  0.00    +0.000 NA
ATOM      5  C   UNL     1      44.751   7.343  11.354  0.00  0.00    +0.000 A 
ATOM      6  C   UNL     1      45.576   6.215  11.323  0.00  0.00    +0.000 A 
ATOM      7  C   UNL     1      46.737   6.291  12.107  0.00  0.00    +0.000 A 
BRANCH   6   8
ATOM      8  C   UNL     1      45.245   5.018  10.524  0.00  0.00    +0.000 A 
ATOM      9  C   UNL     1      44.431   3.994  11.044  0.00  0.00    +0.000 A 
ATOM     10  C   UNL     1      44.113   2.862  10.292  0.00  0.00    +0.000 A 
ATOM     11  C   UNL     1      44.612   2.724   9.000  0.00  0.00    +0.000 A 
ATOM     12  C   UNL     1      45.422   3.719   8.467  0.00  0.00    +0.000 A 
ATOM     13 CL   UNL     1      46.047   3.552   6.872  0.00  0.00    +0.000 Cl
ATOM     14  C   UNL     1      45.734   4.855   9.215  0.00  0.00    +0.000 A 
ENDBRANCH   6   8
ENDBRANCH   1   2
BRANCH   1  15
ATOM     15  O   UNL     1      48.620   6.188  14.135  0.00  0.00    +0.000 OA
BRANCH  15  19
ATOM     16  C   UNL     1      48.102   5.359  18.200  0.00  0.00    +0.000 A 
ATOM     17  C   UNL     1      48.850   6.456  17.756  0.00  0.00    +0.000 A 
ATOM     18  C   UNL     1      48.996   6.699  16.384  0.00  0.00    +0.000 A 
ATOM     19  C   UNL     1      48.393   5.859  15.444  0.00  0.00    +0.000 A 
ATOM     20  C   UNL     1      47.630   4.781  15.888  0.00  0.00    +0.000 A 
ATOM     21  C   UNL     1      47.493   4.537  17.250  0.00  0.00    +0.000 A 
ATOM     22  F   UNL     1      46.754   3.478  17.617  0.00  0.00    +0.000 F 
BRANCH  16  24
ATOM     23  N   UNL     1      48.606   3.980  20.149  0.00  0.00    +0.000 N 
ATOM     24  C   UNL     1      47.998   5.099  19.657  0.00  0.00    +0.000 C 
ATOM     25  O   UNL     1      47.400   5.865  20.401  0.00  0.00    +0.000 OA
ATOM     26  H   UNL     1      48.557   3.810  21.146  0.00  0.00    +0.000 HD
ATOM     27  H   UNL     1      49.128   3.334  19.571  0.00  0.00    +0.000 HD
ENDBRANCH  16  24
ENDBRANCH  15  19
ENDBRANCH   1  15
TORSDOF 5
ENDMDL
