MODEL 1
REMARK VINA RESULT:    -9.196      0.000      0.000
REMARK INTER + INTRA:         -13.550
REMARK INTER:                 -12.422
REMARK INTRA:                  -1.129
REMARK UNBOUND:                -1.129
REMARK  Name = 
REMARK  6 active torsions:
REMARK  status: ('A' for Active; 'I' for Inactive)
REMARK    1  A    between atoms: C_2  and  C_4
REMARK    2  A    between atoms: N_8  and  C_9
REMARK    3  A    between atoms: C_9  and  C_10
REMARK    4  A    between atoms: C_10  and  C_13
REMARK    5  A    between atoms: C_15  and  O_16
REMARK    6  A    between atoms: O_16  and  C_17
REMARK                            x       y       z     vdW  Elec       q    Type
REMARK                         _______ _______ _______ _____ _____    ______ ____
ROOT
ATOM      1  C   UNL     1      43.040   4.393  11.037  0.00  0.00    +0.000 C 
ENDROOT
BRANCH   1   6
ATOM      2  C   UNL     1      46.458   2.492   7.702  0.00  0.00    +0.000 A 
ATOM      3  C   UNL     1      45.701   1.879   8.693  0.00  0.00    +0.000 A 
ATOM      4  C   UNL     1      44.837   2.659   9.463  0.00  0.00    +0.000 A 
ATOM      5  C   UNL     1      44.747   4.031   9.245  0.00  0.00    +0.000 A 
ATOM      6  N   UNL     1      43.910   4.851   9.952  0.00  0.00    +0.000 N 
ATOM      7  N   UNL     1      45.492   4.634   8.299  0.00  0.00    +0.000 NA
ATOM      8  C   UNL     1      46.333   3.864   7.555  0.00  0.00    +0.000 A 
ATOM      9  H   UNL     1      43.981   5.837   9.729  0.00  0.00    +0.000 HD
BRANCH   2  11
ATOM     10  N   UNL     1      48.522   2.405   6.419  0.00  0.00    +0.000 N 
ATOM     11  C   UNL     1      47.395   1.748   6.835  0.00  0.00    +0.000 C 
ATOM     12  O   UNL     1      47.191   0.585   6.521  0.00  0.00    +0.000 OA
ATOM     13  H   UNL     1      49.198   1.857   5.902  0.00  0.00    +0.000 HD
ATOM     14  H   UNL     1      48.844   3.262   6.845  0.00  0.00    +0.000 HD
ENDBRANCH   2  11
ENDBRANCH   1   6
BRANCH   1  15
ATOM     15  C   UNL     1      43.239   5.131  12.381  0.00  0.00    +0.000 C 
ATOM     16  F   UNL     1      42.501   6.285  12.353  0.00  0.00    +0.000 F 
ATOM     17  F   UNL     1      42.685   4.382  13.384  0.00  0.00    +0.000 F 
BRANCH  15  18
ATOM     18  C   UNL     1      44.715   5.423  12.645  0.00  0.00    +0.000 A 
ATOM     19  C   UNL     1      45.447   4.532  13.431  0.00  0.00    +0.000 A 
ATOM     20  C   UNL     1      46.767   4.845  13.740  0.00  0.00    +0.000 A 
ATOM     21  C   UNL     1      47.341   5.997  13.223  0.00  0.00    +0.000 A 
ATOM     22  C   UNL     1      46.564   6.817  12.429  0.00  0.00    +0.000 A 
ATOM     23  N   UNL     1      45.271   6.562  12.139  0.00  0.00    +0.000 NA
BRANCH  20  24
ATOM     24  O   UNL     1      47.581   4.077  14.537  0.00  0.00    +0.000 OA
BRANCH  24  25
ATOM     25  C   UNL     1      47.402   4.142  15.970  0.00  0.00    +0.000 C 
ATOM     26  C   UNL     1      48.338   5.093  16.755  0.00  0.00    +0.000 C 
ATOM     27  C   UNL     1      48.598   3.970  17.767  0.00  0.00    +0.000 C 
ATOM     28  C   UNL     1      48.036   2.966  16.752  0.00  0.00    +0.000 C 
ENDBRANCH  24  25
ENDBRANCH  20  24
ENDBRANCH  15  18
ENDBRANCH   1  15
TORSDOF 6
ENDMDL
MODEL 2
REMARK VINA RESULT:    -8.826      1.551      1.953
REMARK INTER + INTRA:         -13.050
REMARK INTER:                 -11.906
REMARK INTRA:                  -1.144
REMARK UNBOUND:                -1.129
REMARK  Name = 
REMARK  6 active torsions:
REMARK  status: ('A' for Active; 'I' for Inactive)
REMARK    1  A    between atoms: C_2  and  C_4
REMARK    2  A    between atoms: N_8  and  C_9
REMARK    3  A    between atoms: C_9  and  C_10
REMARK    4  A    between atoms: C_10  and  C_13
REMARK    5  A    between atoms: C_15  and  O_16
REMARK    6  A    between atoms: O_16  and  C_17
REMARK                            x       y       z     vdW  Elec       q    Type
REMARK                         _______ _______ _______ _____ _____    ______ ____
ROOT
ATOM      1  C   UNL     1      43.137   4.561  11.025  0.00  0.00    +0.000 C 
ENDROOT
BRANCH   1   6
ATOM      2  C   UNL     1      46.500   2.546   7.701  0.00  0.00    +0.000 A 
ATOM      3  C   UNL     1      45.671   1.952   8.645  0.00  0.00    +0.000 A 
ATOM      4  C   UNL     1      44.845   2.763   9.426  0.00  0.00    +0.000 A 
ATOM      5  C   UNL     1      44.864   4.145   9.264  0.00  0.00    +0.000 A 
ATOM      6  N   UNL     1      44.069   4.997   9.983  0.00  0.00    +0.000 N 
ATOM      7  N   UNL     1      45.678   4.729   8.364  0.00  0.00    +0.000 NA
ATOM      8  C   UNL     1      46.481   3.928   7.609  0.00  0.00    +0.000 A 
ATOM      9  H   UNL     1      44.219   5.983   9.804  0.00  0.00    +0.000 HD
BRANCH   2  11
ATOM     10  N   UNL     1      48.491   2.421   6.311  0.00  0.00    +0.000 N 
ATOM     11  C   UNL     1      47.404   1.769   6.828  0.00  0.00    +0.000 C 
ATOM     12  O   UNL     1      47.208   0.586   6.594  0.00  0.00    +0.000 OA
ATOM     13  H   UNL     1      49.150   1.856   5.790  0.00  0.00    +0.000 HD
ATOM     14  H   UNL     1      48.818   3.308   6.668  0.00  0.00    +0.000 HD
ENDBRANCH   2  11
ENDBRANCH   1   6
BRANCH   1  15
ATOM     15  C   UNL     1      43.728   4.544  12.454  0.00  0.00    +0.000 C 
ATOM     16  F   UNL     1      42.704   4.727  13.346  0.00  0.00    +0.000 F 
ATOM     17  F   UNL     1      44.206   3.289  12.720  0.00  0.00    +0.000 F 
BRANCH  15  18
ATOM     18  C   UNL     1      44.809   5.609  12.625  0.00  0.00    +0.000 A 
ATOM     19  C   UNL     1      46.035   5.239  13.180  0.00  0.00    +0.000 A 
ATOM     20  C   UNL     1      46.986   6.227  13.414  0.00  0.00    +0.000 A 
ATOM     21  C   UNL     1      46.722   7.538  13.046  0.00  0.00    +0.000 A 
ATOM     22  C   UNL     1      45.498   7.824  12.476  0.00  0.00    +0.000 A 
ATOM     23  N   UNL     1      44.540   6.897  12.267  0.00  0.00    +0.000 NA
BRANCH  20  24
ATOM     24  O   UNL     1      48.212   6.003  13.993  0.00  0.00    +0.000 OA
BRANCH  24  25
ATOM     25  C   UNL     1      48.895   7.116  14.613  0.00  0.00    +0.000 C 
ATOM     26  C   UNL     1      50.167   7.646  13.906  0.00  0.00    +0.000 C 
ATOM     27  C   UNL     1      50.895   7.642  15.256  0.00  0.00    +0.000 C 
ATOM     28  C   UNL     1      49.792   6.733  15.814  0.00  0.00    +0.000 C 
ENDBRANCH  24  25
ENDBRANCH  20  24
ENDBRANCH  15  18
ENDBRANCH   1  15
TORSDOF 6
ENDMDL
MODEL 3
REMARK VINA RESULT:    -8.687      2.023      3.317
REMARK INTER + INTRA:         -12.862
REMARK INTER:                 -11.837
REMARK INTRA:                  -1.025
REMARK UNBOUND:                -1.129
REMARK  Name = 
REMARK  6 active torsions:
REMARK  status: ('A' for Active; 'I' for Inactive)
REMARK    1  A    between atoms: C_2  and  C_4
REMARK    2  A    between atoms: N_8  and  C_9
REMARK    3  A    between atoms: C_9  and  C_10
REMARK    4  A    between atoms: C_10  and  C_13
REMARK    5  A    between atoms: C_15  and  O_16
REMARK    6  A    between atoms: O_16  and  C_17
REMARK                            x       y       z     vdW  Elec       q    Type
REMARK                         _______ _______ _______ _____ _____    ______ ____
ROOT
ATOM      1  C   UNL     1      43.303   4.315  11.058  0.00  0.00    +0.000 C 
ENDROOT
BRANCH   1   6
ATOM      2  C   UNL     1      46.551   2.637   7.445  0.00  0.00    +0.000 A 
ATOM      3  C   UNL     1      46.137   3.919   7.786  0.00  0.00    +0.000 A 
ATOM      4  C   UNL     1      45.227   4.080   8.832  0.00  0.00    +0.000 A 
ATOM      5  C   UNL     1      44.737   2.968   9.513  0.00  0.00    +0.000 A 
ATOM      6  N   UNL     1      43.856   3.055  10.557  0.00  0.00    +0.000 N 
ATOM      7  N   UNL     1      45.120   1.722   9.175  0.00  0.00    +0.000 NA
ATOM      8  C   UNL     1      46.006   1.578   8.152  0.00  0.00    +0.000 A 
ATOM      9  H   UNL     1      43.539   2.168  10.930  0.00  0.00    +0.000 HD
BRANCH   2  11
ATOM     10  N   UNL     1      47.425   3.149   5.234  0.00  0.00    +0.000 N 
ATOM     11  C   UNL     1      47.513   2.370   6.356  0.00  0.00    +0.000 C 
ATOM     12  O   UNL     1      48.373   1.507   6.459  0.00  0.00    +0.000 OA
ATOM     13  H   UNL     1      48.145   3.017   4.535  0.00  0.00    +0.000 HD
ATOM     14  H   UNL     1      46.903   4.014   5.208  0.00  0.00    +0.000 HD
ENDBRANCH   2  11
ENDBRANCH   1   6
BRANCH   1  15
ATOM     15  C   UNL     1      43.496   4.548  12.574  0.00  0.00    +0.000 C 
ATOM     16  F   UNL     1      42.585   5.486  12.986  0.00  0.00    +0.000 F 
ATOM     17  F   UNL     1      43.153   3.405  13.246  0.00  0.00    +0.000 F 
BRANCH  15  18
ATOM     18  C   UNL     1      44.924   4.985  12.895  0.00  0.00    +0.000 A 
ATOM     19  C   UNL     1      45.560   5.886  12.040  0.00  0.00    +0.000 A 
ATOM     20  C   UNL     1      46.889   6.215  12.287  0.00  0.00    +0.000 A 
ATOM     21  C   UNL     1      47.533   5.691  13.397  0.00  0.00    +0.000 A 
ATOM     22  C   UNL     1      46.832   4.828  14.214  0.00  0.00    +0.000 A 
ATOM     23  N   UNL     1      45.554   4.459  13.985  0.00  0.00    +0.000 NA
BRANCH  20  24
ATOM     24  O   UNL     1      47.640   7.054  11.499  0.00  0.00    +0.000 OA
BRANCH  24  25
ATOM     25  C   UNL     1      48.713   7.801  12.116  0.00  0.00    +0.000 C 
ATOM     26  C   UNL     1      48.708   9.337  11.918  0.00  0.00    +0.000 C 
ATOM     27  C   UNL     1      50.197   9.276  11.558  0.00  0.00    +0.000 C 
ATOM     28  C   UNL     1      50.052   7.763  11.341  0.00  0.00    +0.000 C 
ENDBRANCH  24  25
ENDBRANCH  20  24
ENDBRANCH  15  18
ENDBRANCH   1  15
TORSDOF 6
ENDMDL
MODEL 4
REMARK VINA RESULT:    -8.012      2.752      4.241
REMARK INTER + INTRA:         -11.951
REMARK INTER:                 -10.979
REMARK INTRA:                  -0.972
REMARK UNBOUND:                -1.129
REMARK  Name = 
REMARK  6 active torsions:
REMARK  status: ('A' for Active; 'I' for Inactive)
REMARK    1  A    between atoms: C_2  and  C_4
REMARK    2  A    between atoms: N_8  and  C_9
REMARK    3  A    between atoms: C_9  and  C_10
REMARK    4  A    between atoms: C_10  and  C_13
REMARK    5  A    between atoms: C_15  and  O_16
REMARK    6  A    between atoms: O_16  and  C_17
REMARK                            x       y       z     vdW  Elec       q    Type
REMARK                         _______ _______ _______ _____ _____    ______ ____
ROOT
ATOM      1  C   UNL     1      43.297   4.573  10.968  0.00  0.00    +0.000 C 
ENDROOT
BRANCH   1   6
ATOM      2  C   UNL     1      46.485   2.378   7.586  0.00  0.00    +0.000 A 
ATOM      3  C   UNL     1      45.751   1.845   8.638  0.00  0.00    +0.000 A 
ATOM      4  C   UNL     1      44.953   2.695   9.406  0.00  0.00    +0.000 A 
ATOM      5  C   UNL     1      44.906   4.057   9.123  0.00  0.00    +0.000 A 
ATOM      6  N   UNL     1      44.133   4.944   9.825  0.00  0.00    +0.000 N 
ATOM      7  N   UNL     1      45.628   4.584   8.117  0.00  0.00    +0.000 NA
ATOM      8  C   UNL     1      46.405   3.745   7.376  0.00  0.00    +0.000 A 
ATOM      9  H   UNL     1      44.231   5.914   9.550  0.00  0.00    +0.000 HD
BRANCH   2  11
ATOM     10  N   UNL     1      48.226   2.218   5.897  0.00  0.00    +0.000 N 
ATOM     11  C   UNL     1      47.352   1.557   6.717  0.00  0.00    +0.000 C 
ATOM     12  O   UNL     1      47.314   0.335   6.744  0.00  0.00    +0.000 OA
ATOM     13  H   UNL     1      48.877   1.644   5.375  0.00  0.00    +0.000 HD
ATOM     14  H   UNL     1      48.460   3.194   6.018  0.00  0.00    +0.000 HD
ENDBRANCH   2  11
ENDBRANCH   1   6
BRANCH   1  15
ATOM     15  C   UNL     1      43.976   4.744  12.347  0.00  0.00    +0.000 C 
ATOM     16  F   UNL     1      42.999   4.957  13.285  0.00  0.00    +0.000 F 
ATOM     17  F   UNL     1      44.556   3.558  12.706  0.00  0.00    +0.000 F 
BRANCH  15  18
ATOM     18  C   UNL     1      44.989   5.887  12.333  0.00  0.00    +0.000 A 
ATOM     19  C   UNL     1      44.568   7.163  12.711  0.00  0.00    +0.000 A 
ATOM     20  C   UNL     1      45.470   8.218  12.614  0.00  0.00    +0.000 A 
ATOM     21  C   UNL     1      46.772   7.976  12.203  0.00  0.00    +0.000 A 
ATOM     22  C   UNL     1      47.124   6.682  11.873  0.00  0.00    +0.000 A 
ATOM     23  N   UNL     1      46.266   5.642  11.920  0.00  0.00    +0.000 NA
BRANCH  20  24
ATOM     24  O   UNL     1      45.170   9.525  12.912  0.00  0.00    +0.000 OA
BRANCH  24  25
ATOM     25  C   UNL     1      44.361  10.277  11.979  0.00  0.00    +0.000 C 
ATOM     26  C   UNL     1      43.645   9.477  10.863  0.00  0.00    +0.000 C 
ATOM     27  C   UNL     1      44.138  10.504   9.837  0.00  0.00    +0.000 C 
ATOM     28  C   UNL     1      45.161  10.998  10.869  0.00  0.00    +0.000 C 
ENDBRANCH  24  25
ENDBRANCH  20  24
ENDBRANCH  15  18
ENDBRANCH   1  15
TORSDOF 6
ENDMDL
MODEL 5
REMARK VINA RESULT:    -7.996      2.486      3.139
REMARK INTER + INTRA:         -11.929
REMARK INTER:                 -11.183
REMARK INTRA:                  -0.746
REMARK UNBOUND:                -1.129
REMARK  Name = 
REMARK  6 active torsions:
REMARK  status: ('A' for Active; 'I' for Inactive)
REMARK    1  A    between atoms: C_2  and  C_4
REMARK    2  A    between atoms: N_8  and  C_9
REMARK    3  A    between atoms: C_9  and  C_10
REMARK    4  A    between atoms: C_10  and  C_13
REMARK    5  A    between atoms: C_15  and  O_16
REMARK    6  A    between atoms: O_16  and  C_17
REMARK                            x       y       z     vdW  Elec       q    Type
REMARK                         _______ _______ _______ _____ _____    ______ ____
ROOT
ATOM      1  C   UNL     1      43.397   3.724  11.165  0.00  0.00    +0.000 C 
ENDROOT
BRANCH   1   6
ATOM      2  C   UNL     1      46.590   2.557   7.311  0.00  0.00    +0.000 A 
ATOM      3  C   UNL     1      46.053   3.769   7.725  0.00  0.00    +0.000 A 
ATOM      4  C   UNL     1      45.196   3.789   8.827  0.00  0.00    +0.000 A 
ATOM      5  C   UNL     1      44.879   2.606   9.490  0.00  0.00    +0.000 A 
ATOM      6  N   UNL     1      44.060   2.555  10.585  0.00  0.00    +0.000 N 
ATOM      7  N   UNL     1      45.381   1.425   9.082  0.00  0.00    +0.000 NA
ATOM      8  C   UNL     1      46.214   1.418   8.005  0.00  0.00    +0.000 A 
ATOM      9  H   UNL     1      43.870   1.625  10.940  0.00  0.00    +0.000 HD
BRANCH   2  11
ATOM     10  N   UNL     1      47.385   3.367   5.160  0.00  0.00    +0.000 N 
ATOM     11  C   UNL     1      47.508   2.439   6.159  0.00  0.00    +0.000 C 
ATOM     12  O   UNL     1      48.363   1.567   6.108  0.00  0.00    +0.000 OA
ATOM     13  H   UNL     1      48.078   3.331   4.423  0.00  0.00    +0.000 HD
ATOM     14  H   UNL     1      46.871   4.230   5.274  0.00  0.00    +0.000 HD
ENDBRANCH   2  11
ENDBRANCH   1   6
BRANCH   1  15
ATOM     15  C   UNL     1      44.017   4.227  12.490  0.00  0.00    +0.000 C 
ATOM     16  F   UNL     1      43.044   4.213  13.455  0.00  0.00    +0.000 F 
ATOM     17  F   UNL     1      44.949   3.320  12.916  0.00  0.00    +0.000 F 
BRANCH  15  18
ATOM     18  C   UNL     1      44.618   5.622  12.331  0.00  0.00    +0.000 A 
ATOM     19  C   UNL     1      45.778   5.939  13.040  0.00  0.00    +0.000 A 
ATOM     20  C   UNL     1      46.275   7.236  12.960  0.00  0.00    +0.000 A 
ATOM     21  C   UNL     1      45.647   8.165  12.145  0.00  0.00    +0.000 A 
ATOM     22  C   UNL     1      44.520   7.772  11.451  0.00  0.00    +0.000 A 
ATOM     23  N   UNL     1      43.991   6.533  11.533  0.00  0.00    +0.000 NA
BRANCH  20  24
ATOM     24  O   UNL     1      47.381   7.687  13.640  0.00  0.00    +0.000 OA
BRANCH  24  25
ATOM     25  C   UNL     1      48.455   8.290  12.884  0.00  0.00    +0.000 C 
ATOM     26  C   UNL     1      48.731   7.719  11.471  0.00  0.00    +0.000 C 
ATOM     27  C   UNL     1      50.228   7.674  11.803  0.00  0.00    +0.000 C 
ATOM     28  C   UNL     1      49.872   7.816  13.289  0.00  0.00    +0.000 C 
ENDBRANCH  24  25
ENDBRANCH  20  24
ENDBRANCH  15  18
ENDBRANCH   1  15
TORSDOF 6
ENDMDL
MODEL 6
REMARK VINA RESULT:    -7.856      2.864      8.108
REMARK INTER + INTRA:         -11.740
REMARK INTER:                 -10.867
REMARK INTRA:                  -0.874
REMARK UNBOUND:                -1.129
REMARK  Name = 
REMARK  6 active torsions:
REMARK  status: ('A' for Active; 'I' for Inactive)
REMARK    1  A    between atoms: C_2  and  C_4
REMARK    2  A    between atoms: N_8  and  C_9
REMARK    3  A    between atoms: C_9  and  C_10
REMARK    4  A    between atoms: C_10  and  C_13
REMARK    5  A    between atoms: C_15  and  O_16
REMARK    6  A    between atoms: O_16  and  C_17
REMARK                            x       y       z     vdW  Elec       q    Type
REMARK                         _______ _______ _______ _____ _____    ______ ____
ROOT
ATOM      1  C   UNL     1      46.972   5.862  12.979  0.00  0.00    +0.000 C 
ENDROOT
BRANCH   1   6
ATOM      2  C   UNL     1      48.402   4.434  17.704  0.00  0.00    +0.000 A 
ATOM      3  C   UNL     1      48.747   5.536  16.933  0.00  0.00    +0.000 A 
ATOM      4  C   UNL     1      48.195   5.670  15.658  0.00  0.00    +0.000 A 
ATOM      5  C   UNL     1      47.319   4.704  15.168  0.00  0.00    +0.000 A 
ATOM      6  N   UNL     1      46.729   4.781  13.935  0.00  0.00    +0.000 N 
ATOM      7  N   UNL     1      46.995   3.623  15.903  0.00  0.00    +0.000 NA
ATOM      8  C   UNL     1      47.542   3.503  17.145  0.00  0.00    +0.000 A 
ATOM      9  H   UNL     1      46.155   3.985  13.681  0.00  0.00    +0.000 HD
BRANCH   2  11
ATOM     10  N   UNL     1      48.354   3.218  19.810  0.00  0.00    +0.000 N 
ATOM     11  C   UNL     1      48.933   4.211  19.065  0.00  0.00    +0.000 C 
ATOM     12  O   UNL     1      49.868   4.864  19.503  0.00  0.00    +0.000 OA
ATOM     13  H   UNL     1      48.785   3.015  20.703  0.00  0.00    +0.000 HD
ATOM     14  H   UNL     1      47.759   2.508  19.407  0.00  0.00    +0.000 HD
ENDBRANCH   2  11
ENDBRANCH   1   6
BRANCH   1  15
ATOM     15  C   UNL     1      45.727   6.306  12.175  0.00  0.00    +0.000 C 
ATOM     16  F   UNL     1      44.772   6.733  13.060  0.00  0.00    +0.000 F 
ATOM     17  F   UNL     1      46.047   7.415  11.439  0.00  0.00    +0.000 F 
BRANCH  15  18
ATOM     18  C   UNL     1      45.199   5.176  11.293  0.00  0.00    +0.000 A 
ATOM     19  C   UNL     1      45.560   5.151   9.945  0.00  0.00    +0.000 A 
ATOM     20  C   UNL     1      45.008   4.171   9.126  0.00  0.00    +0.000 A 
ATOM     21  C   UNL     1      44.163   3.215   9.669  0.00  0.00    +0.000 A 
ATOM     22  C   UNL     1      43.874   3.286  11.017  0.00  0.00    +0.000 A 
ATOM     23  N   UNL     1      44.363   4.243  11.833  0.00  0.00    +0.000 NA
BRANCH  20  24
ATOM     24  O   UNL     1      45.247   4.063   7.777  0.00  0.00    +0.000 OA
BRANCH  24  25
ATOM     25  C   UNL     1      46.541   3.588   7.342  0.00  0.00    +0.000 C 
ATOM     26  C   UNL     1      46.709   3.279   5.834  0.00  0.00    +0.000 C 
ATOM     27  C   UNL     1      47.370   1.945   6.200  0.00  0.00    +0.000 C 
ATOM     28  C   UNL     1      46.802   2.088   7.619  0.00  0.00    +0.000 C 
ENDBRANCH  24  25
ENDBRANCH  20  24
ENDBRANCH  15  18
ENDBRANCH   1  15
TORSDOF 6
ENDMDL
MODEL 7
REMARK VINA RESULT:    -7.394      3.255      6.924
REMARK INTER + INTRA:         -11.116
REMARK INTER:                 -10.140
REMARK INTRA:                  -0.976
REMARK UNBOUND:                -1.129
REMARK  Name = 
REMARK  6 active torsions:
REMARK  status: ('A' for Active; 'I' for Inactive)
REMARK    1  A    between atoms: C_2  and  C_4
REMARK    2  A    between atoms: N_8  and  C_9
REMARK    3  A    between atoms: C_9  and  C_10
REMARK    4  A    between atoms: C_10  and  C_13
REMARK    5  A    between atoms: C_15  and  O_16
REMARK    6  A    between atoms: O_16  and  C_17
REMARK                            x       y       z     vdW  Elec       q    Type
REMARK                         _______ _______ _______ _____ _____    ______ ____
ROOT
ATOM      1  C   UNL     1      43.938   5.847  12.734  0.00  0.00    +0.000 C 
ENDROOT
BRANCH   1   6
ATOM      2  C   UNL     1      48.507   8.143  12.225  0.00  0.00    +0.000 A 
ATOM      3  C   UNL     1      48.131   6.810  12.120  0.00  0.00    +0.000 A 
ATOM      4  C   UNL     1      46.792   6.468  12.312  0.00  0.00    +0.000 A 
ATOM      5  C   UNL     1      45.853   7.451  12.615  0.00  0.00    +0.000 A 
ATOM      6  N   UNL     1      44.522   7.187  12.799  0.00  0.00    +0.000 N 
ATOM      7  N   UNL     1      46.214   8.742  12.736  0.00  0.00    +0.000 NA
ATOM      8  C   UNL     1      47.524   9.064  12.548  0.00  0.00    +0.000 A 
ATOM      9  H   UNL     1      43.957   7.985  13.066  0.00  0.00    +0.000 HD
BRANCH   2  11
ATOM     10  N   UNL     1      50.894   7.826  12.569  0.00  0.00    +0.000 N 
ATOM     11  C   UNL     1      49.899   8.600  12.034  0.00  0.00    +0.000 C 
ATOM     12  O   UNL     1      50.159   9.613  11.402  0.00  0.00    +0.000 OA
ATOM     13  H   UNL     1      51.844   8.101  12.353  0.00  0.00    +0.000 HD
ATOM     14  H   UNL     1      50.742   6.876  12.878  0.00  0.00    +0.000 HD
ENDBRANCH   2  11
ENDBRANCH   1   6
BRANCH   1  15
ATOM     15  C   UNL     1      43.162   5.542  11.431  0.00  0.00    +0.000 C 
ATOM     16  F   UNL     1      41.874   5.213  11.763  0.00  0.00    +0.000 F 
ATOM     17  F   UNL     1      43.054   6.694  10.700  0.00  0.00    +0.000 F 
BRANCH  15  18
ATOM     18  C   UNL     1      43.831   4.426  10.631  0.00  0.00    +0.000 A 
ATOM     19  C   UNL     1      44.733   4.769   9.624  0.00  0.00    +0.000 A 
ATOM     20  C   UNL     1      45.274   3.755   8.840  0.00  0.00    +0.000 A 
ATOM     21  C   UNL     1      44.953   2.432   9.107  0.00  0.00    +0.000 A 
ATOM     22  C   UNL     1      44.075   2.167  10.138  0.00  0.00    +0.000 A 
ATOM     23  N   UNL     1      43.504   3.128  10.894  0.00  0.00    +0.000 NA
BRANCH  20  24
ATOM     24  O   UNL     1      46.139   3.961   7.792  0.00  0.00    +0.000 OA
BRANCH  24  25
ATOM     25  C   UNL     1      46.389   2.867   6.880  0.00  0.00    +0.000 C 
ATOM     26  C   UNL     1      47.780   2.190   6.957  0.00  0.00    +0.000 C 
ATOM     27  C   UNL     1      47.882   2.270   5.429  0.00  0.00    +0.000 C 
ATOM     28  C   UNL     1      46.744   3.300   5.437  0.00  0.00    +0.000 C 
ENDBRANCH  24  25
ENDBRANCH  20  24
ENDBRANCH  15  18
ENDBRANCH   1  15
TORSDOF 6
ENDMDL
MODEL 8
REMARK VINA RESULT:    -7.249      2.459      7.223
REMARK INTER + INTRA:         -10.920
REMARK INTER:                 -10.231
REMARK INTRA:                  -0.689
REMARK UNBOUND:                -1.129
REMARK  Name = 
REMARK  6 active torsions:
REMARK  status: ('A' for Active; 'I' for Inactive)
REMARK    1  A    between atoms: C_2  and  C_4
REMARK    2  A    between atoms: N_8  and  C_9
REMARK    3  A    between atoms: C_9  and  C_10
REMARK    4  A    between atoms: C_10  and  C_13
REMARK    5  A    between atoms: C_15  and  O_16
REMARK    6  A    between atoms: O_16  and  C_17
REMARK                            x       y       z     vdW  Elec       q    Type
REMARK                         _______ _______ _______ _____ _____    ______ ____
ROOT
ATOM      1  C   UNL     1      46.914   6.650  11.718  0.00  0.00    +0.000 C 
ENDROOT
BRANCH   1   6
ATOM      2  C   UNL     1      47.836   3.990  16.018  0.00  0.00    +0.000 A 
ATOM      3  C   UNL     1      47.214   3.629  14.829  0.00  0.00    +0.000 A 
ATOM      4  C   UNL     1      47.102   4.576  13.810  0.00  0.00    +0.000 A 
ATOM      5  C   UNL     1      47.597   5.865  13.992  0.00  0.00    +0.000 A 
ATOM      6  N   UNL     1      47.535   6.837  13.030  0.00  0.00    +0.000 N 
ATOM      7  N   UNL     1      48.185   6.226  15.149  0.00  0.00    +0.000 NA
ATOM      8  C   UNL     1      48.287   5.294  16.136  0.00  0.00    +0.000 A 
ATOM      9  H   UNL     1      47.885   7.746  13.311  0.00  0.00    +0.000 HD
BRANCH   2  11
ATOM     10  N   UNL     1      46.871   2.636  17.793  0.00  0.00    +0.000 N 
ATOM     11  C   UNL     1      48.005   3.054  17.149  0.00  0.00    +0.000 C 
ATOM     12  O   UNL     1      49.107   2.646  17.483  0.00  0.00    +0.000 OA
ATOM     13  H   UNL     1      46.993   1.927  18.505  0.00  0.00    +0.000 HD
ATOM     14  H   UNL     1      45.946   2.751  17.403  0.00  0.00    +0.000 HD
ENDBRANCH   2  11
ENDBRANCH   1   6
BRANCH   1  15
ATOM     15  C   UNL     1      45.368   6.624  11.732  0.00  0.00    +0.000 C 
ATOM     16  F   UNL     1      44.942   6.976  12.986  0.00  0.00    +0.000 F 
ATOM     17  F   UNL     1      44.901   7.614  10.910  0.00  0.00    +0.000 F 
BRANCH  15  18
ATOM     18  C   UNL     1      44.828   5.253  11.328  0.00  0.00    +0.000 A 
ATOM     19  C   UNL     1      45.196   4.724  10.090  0.00  0.00    +0.000 A 
ATOM     20  C   UNL     1      44.634   3.516   9.688  0.00  0.00    +0.000 A 
ATOM     21  C   UNL     1      43.772   2.841  10.539  0.00  0.00    +0.000 A 
ATOM     22  C   UNL     1      43.476   3.412  11.760  0.00  0.00    +0.000 A 
ATOM     23  N   UNL     1      43.975   4.598  12.167  0.00  0.00    +0.000 NA
BRANCH  20  24
ATOM     24  O   UNL     1      44.879   2.911   8.480  0.00  0.00    +0.000 OA
BRANCH  24  25
ATOM     25  C   UNL     1      46.243   2.846   8.004  0.00  0.00    +0.000 C 
ATOM     26  C   UNL     1      46.494   3.241   6.528  0.00  0.00    +0.000 C 
ATOM     27  C   UNL     1      47.351   1.981   6.358  0.00  0.00    +0.000 C 
ATOM     28  C   UNL     1      46.733   1.423   7.647  0.00  0.00    +0.000 C 
ENDBRANCH  24  25
ENDBRANCH  20  24
ENDBRANCH  15  18
ENDBRANCH   1  15
TORSDOF 6
ENDMDL
MODEL 9
REMARK VINA RESULT:    -6.868      3.389      4.785
REMARK INTER + INTRA:         -10.405
REMARK INTER:                  -9.176
REMARK INTRA:                  -1.229
REMARK UNBOUND:                -1.129
REMARK  Name = 
REMARK  6 active torsions:
REMARK  status: ('A' for Active; 'I' for Inactive)
REMARK    1  A    between atoms: C_2  and  C_4
REMARK    2  A    between atoms: N_8  and  C_9
REMARK    3  A    between atoms: C_9  and  C_10
REMARK    4  A    between atoms: C_10  and  C_13
REMARK    5  A    between atoms: C_15  and  O_16
REMARK    6  A    between atoms: O_16  and  C_17
REMARK                            x       y       z     vdW  Elec       q    Type
REMARK                         _______ _______ _______ _____ _____    ______ ____
ROOT
ATOM      1  C   UNL     1      46.595   8.761  12.363  0.00  0.00    +0.000 C 
ENDROOT
BRANCH   1   6
ATOM      2  C   UNL     1      44.390   4.198  11.506  0.00  0.00    +0.000 A 
ATOM      3  C   UNL     1      45.205   4.990  10.707  0.00  0.00    +0.000 A 
ATOM      4  C   UNL     1      45.668   6.208  11.209  0.00  0.00    +0.000 A 
ATOM      5  C   UNL     1      45.306   6.621  12.489  0.00  0.00    +0.000 A 
ATOM      6  N   UNL     1      45.737   7.794  13.049  0.00  0.00    +0.000 N 
ATOM      7  N   UNL     1      44.502   5.867  13.262  0.00  0.00    +0.000 NA
ATOM      8  C   UNL     1      44.055   4.682  12.760  0.00  0.00    +0.000 A 
ATOM      9  H   UNL     1      45.358   7.999  13.966  0.00  0.00    +0.000 HD
BRANCH   2  11
ATOM     10  N   UNL     1      44.449   2.311   9.973  0.00  0.00    +0.000 N 
ATOM     11  C   UNL     1      43.857   2.894  11.061  0.00  0.00    +0.000 C 
ATOM     12  O   UNL     1      42.941   2.341  11.653  0.00  0.00    +0.000 OA
ATOM     13  H   UNL     1      44.136   1.378   9.735  0.00  0.00    +0.000 HD
ATOM     14  H   UNL     1      45.346   2.607   9.614  0.00  0.00    +0.000 HD
ENDBRANCH   2  11
ENDBRANCH   1   6
BRANCH   1  15
ATOM     15  C   UNL     1      48.110   8.570  12.610  0.00  0.00    +0.000 C 
ATOM     16  F   UNL     1      48.559   7.570  11.787  0.00  0.00    +0.000 F 
ATOM     17  F   UNL     1      48.772   9.694  12.192  0.00  0.00    +0.000 F 
BRANCH  15  18
ATOM     18  C   UNL     1      48.402   8.255  14.075  0.00  0.00    +0.000 A 
ATOM     19  C   UNL     1      48.831   6.971  14.414  0.00  0.00    +0.000 A 
ATOM     20  C   UNL     1      49.013   6.662  15.758  0.00  0.00    +0.000 A 
ATOM     21  C   UNL     1      48.821   7.640  16.722  0.00  0.00    +0.000 A 
ATOM     22  C   UNL     1      48.424   8.897  16.310  0.00  0.00    +0.000 A 
ATOM     23  N   UNL     1      48.204   9.220  15.019  0.00  0.00    +0.000 NA
BRANCH  20  24
ATOM     24  O   UNL     1      49.390   5.427  16.227  0.00  0.00    +0.000 OA
BRANCH  24  25
ATOM     25  C   UNL     1      48.556   4.781  17.215  0.00  0.00    +0.000 C 
ATOM     26  C   UNL     1      48.964   3.354  17.658  0.00  0.00    +0.000 C 
ATOM     27  C   UNL     1      47.508   2.904  17.482  0.00  0.00    +0.000 C 
ATOM     28  C   UNL     1      47.249   4.170  16.655  0.00  0.00    +0.000 C 
ENDBRANCH  24  25
ENDBRANCH  20  24
ENDBRANCH  15  18
ENDBRANCH   1  15
TORSDOF 6
ENDMDL
