MODEL 1
REMARK VINA RESULT:    -9.078      0.000      0.000
REMARK INTER + INTRA:         -13.907
REMARK INTER:                 -12.793
REMARK INTRA:                  -1.114
REMARK UNBOUND:                -1.114
REMARK  Name = 
REMARK  7 active torsions:
REMARK  status: ('A' for Active; 'I' for Inactive)
REMARK    1  A    between atoms: C_2  and  C_4
REMARK    2  A    between atoms: C_7  and  N_8
REMARK    3  A    between atoms: N_8  and  C_9
REMARK    4  A    between atoms: C_9  and  C_10
REMARK    5  A    between atoms: C_10  and  C_13
REMARK    6  A    between atoms: C_18  and  O_19
REMARK    7  A    between atoms: O_19  and  C_20
REMARK                            x       y       z     vdW  Elec       q    Type
REMARK                         _______ _______ _______ _____ _____    ______ ____
ROOT
ATOM      1  C   UNL     1      44.002   4.834  12.532  0.00  0.00    +0.000 C 
ATOM      2  F   UNL     1      43.109   5.467  13.351  0.00  0.00    +0.000 F 
ATOM      3  F   UNL     1      43.868   3.503  12.820  0.00  0.00    +0.000 F 
ENDROOT
BRANCH   1   4
ATOM      4  C   UNL     1      45.417   5.327  12.770  0.00  0.00    +0.000 A 
ATOM      5  C   UNL     1      46.030   6.193  11.854  0.00  0.00    +0.000 A 
ATOM      6  C   UNL     1      47.321   6.654  12.092  0.00  0.00    +0.000 A 
ATOM      7  F   UNL     1      47.887   7.495  11.216  0.00  0.00    +0.000 F 
ATOM      8  C   UNL     1      48.036   6.266  13.220  0.00  0.00    +0.000 A 
ATOM      9  C   UNL     1      47.445   5.394  14.128  0.00  0.00    +0.000 A 
ATOM     10  C   UNL     1      46.141   4.933  13.909  0.00  0.00    +0.000 A 
BRANCH   9  11
ATOM     11  O   UNL     1      48.037   4.956  15.286  0.00  0.00    +0.000 OA
BRANCH  11  12
ATOM     12  C   UNL     1      47.257   4.160  16.211  0.00  0.00    +0.000 C 
ATOM     13  C   UNL     1      47.184   4.635  17.677  0.00  0.00    +0.000 C 
ATOM     14  N   UNL     1      47.563   3.292  18.143  0.00  0.00    +0.000 NA
ATOM     15  C   UNL     1      47.983   2.925  16.781  0.00  0.00    +0.000 C 
ATOM     16  H   UNL     1      46.784   2.738  18.499  0.00  0.00    +0.000 HD
ENDBRANCH  11  12
ENDBRANCH   9  11
ENDBRANCH   1   4
BRANCH   1  17
ATOM     17  C   UNL     1      43.571   5.051  11.057  0.00  0.00    +0.000 C 
BRANCH  17  18
ATOM     18  N   UNL     1      43.577   3.809  10.265  0.00  0.00    +0.000 N 
ATOM     19  H   UNL     1      43.146   3.008  10.726  0.00  0.00    +0.000 HD
BRANCH  18  23
ATOM     20  C   UNL     1      46.600   2.683   7.550  0.00  0.00    +0.000 A 
ATOM     21  C   UNL     1      46.277   4.033   7.699  0.00  0.00    +0.000 A 
ATOM     22  C   UNL     1      45.291   4.422   8.614  0.00  0.00    +0.000 A 
ATOM     23  C   UNL     1      44.629   3.485   9.417  0.00  0.00    +0.000 A 
ATOM     24  C   UNL     1      44.955   2.133   9.240  0.00  0.00    +0.000 A 
ATOM     25  C   UNL     1      45.926   1.730   8.314  0.00  0.00    +0.000 A 
BRANCH  20  27
ATOM     26  N   UNL     1      47.792   3.002   5.450  0.00  0.00    +0.000 N 
ATOM     27  C   UNL     1      47.613   2.227   6.561  0.00  0.00    +0.000 C 
ATOM     28  O   UNL     1      48.278   1.213   6.739  0.00  0.00    +0.000 OA
ATOM     29  H   UNL     1      48.549   2.733   4.834  0.00  0.00    +0.000 HD
ATOM     30  H   UNL     1      47.453   3.952   5.391  0.00  0.00    +0.000 HD
ENDBRANCH  20  27
ENDBRANCH  18  23
ENDBRANCH  17  18
ENDBRANCH   1  17
TORSDOF 7
ENDMDL
MODEL 2
REMARK VINA RESULT:    -8.447      2.628      3.718
REMARK INTER + INTRA:         -13.017
REMARK INTER:                 -11.989
REMARK INTRA:                  -1.028
REMARK UNBOUND:                -1.114
REMARK  Name = 
REMARK  7 active torsions:
REMARK  status: ('A' for Active; 'I' for Inactive)
REMARK    1  A    between atoms: C_2  and  C_4
REMARK    2  A    between atoms: C_7  and  N_8
REMARK    3  A    between atoms: N_8  and  C_9
REMARK    4  A    between atoms: C_9  and  C_10
REMARK    5  A    between atoms: C_10  and  C_13
REMARK    6  A    between atoms: C_18  and  O_19
REMARK    7  A    between atoms: O_19  and  C_20
REMARK                            x       y       z     vdW  Elec       q    Type
REMARK                         _______ _______ _______ _____ _____    ______ ____
ROOT
ATOM      1  C   UNL     1      43.392   5.481  12.286  0.00  0.00    +0.000 C 
ATOM      2  F   UNL     1      43.055   6.711  11.794  0.00  0.00    +0.000 F 
ATOM      3  F   UNL     1      42.495   5.242  13.291  0.00  0.00    +0.000 F 
ENDROOT
BRANCH   1   4
ATOM      4  C   UNL     1      44.825   5.458  12.784  0.00  0.00    +0.000 A 
ATOM      5  C   UNL     1      45.411   4.256  13.202  0.00  0.00    +0.000 A 
ATOM      6  C   UNL     1      46.732   4.243  13.639  0.00  0.00    +0.000 A 
ATOM      7  F   UNL     1      47.285   3.083  14.019  0.00  0.00    +0.000 F 
ATOM      8  C   UNL     1      47.494   5.405  13.687  0.00  0.00    +0.000 A 
ATOM      9  C   UNL     1      46.918   6.609  13.291  0.00  0.00    +0.000 A 
ATOM     10  C   UNL     1      45.594   6.633  12.835  0.00  0.00    +0.000 A 
BRANCH   9  11
ATOM     11  O   UNL     1      47.570   7.815  13.273  0.00  0.00    +0.000 OA
BRANCH  11  12
ATOM     12  C   UNL     1      47.975   8.369  11.998  0.00  0.00    +0.000 C 
ATOM     13  C   UNL     1      49.481   8.370  11.663  0.00  0.00    +0.000 C 
ATOM     14  N   UNL     1      49.417   9.799  11.321  0.00  0.00    +0.000 NA
ATOM     15  C   UNL     1      48.098   9.907  11.964  0.00  0.00    +0.000 C 
ATOM     16  H   UNL     1      49.404   9.987  10.318  0.00  0.00    +0.000 HD
ENDBRANCH  11  12
ENDBRANCH   9  11
ENDBRANCH   1   4
BRANCH   1  17
ATOM     17  C   UNL     1      43.164   4.418  11.178  0.00  0.00    +0.000 C 
BRANCH  17  18
ATOM     18  N   UNL     1      43.752   4.800   9.882  0.00  0.00    +0.000 N 
ATOM     19  H   UNL     1      43.168   5.412   9.313  0.00  0.00    +0.000 HD
BRANCH  18  23
ATOM     20  C   UNL     1      46.377   2.263   7.771  0.00  0.00    +0.000 A 
ATOM     21  C   UNL     1      45.477   1.714   8.687  0.00  0.00    +0.000 A 
ATOM     22  C   UNL     1      44.585   2.543   9.377  0.00  0.00    +0.000 A 
ATOM     23  C   UNL     1      44.548   3.925   9.152  0.00  0.00    +0.000 A 
ATOM     24  C   UNL     1      45.471   4.458   8.242  0.00  0.00    +0.000 A 
ATOM     25  C   UNL     1      46.382   3.642   7.560  0.00  0.00    +0.000 A 
BRANCH  20  27
ATOM     26  N   UNL     1      48.472   2.049   6.548  0.00  0.00    +0.000 N 
ATOM     27  C   UNL     1      47.366   1.421   7.049  0.00  0.00    +0.000 C 
ATOM     28  O   UNL     1      47.216   0.211   6.923  0.00  0.00    +0.000 OA
ATOM     29  H   UNL     1      49.182   1.451   6.144  0.00  0.00    +0.000 HD
ATOM     30  H   UNL     1      48.749   2.975   6.842  0.00  0.00    +0.000 HD
ENDBRANCH  20  27
ENDBRANCH  18  23
ENDBRANCH  17  18
ENDBRANCH   1  17
TORSDOF 7
ENDMDL
MODEL 3
REMARK VINA RESULT:    -8.083      1.441      2.025
REMARK INTER + INTRA:         -12.505
REMARK INTER:                 -11.944
REMARK INTRA:                  -0.561
REMARK UNBOUND:                -1.114
REMARK  Name = 
REMARK  7 active torsions:
REMARK  status: ('A' for Active; 'I' for Inactive)
REMARK    1  A    between atoms: C_2  and  C_4
REMARK    2  A    between atoms: C_7  and  N_8
REMARK    3  A    between atoms: N_8  and  C_9
REMARK    4  A    between atoms: C_9  and  C_10
REMARK    5  A    between atoms: C_10  and  C_13
REMARK    6  A    between atoms: C_18  and  O_19
REMARK    7  A    between atoms: O_19  and  C_20
REMARK                            x       y       z     vdW  Elec       q    Type
REMARK                         _______ _______ _______ _____ _____    ______ ____
ROOT
ATOM      1  C   UNL     1      45.231   6.506  11.305  0.00  0.00    +0.000 C 
ATOM      2  F   UNL     1      45.836   6.631  10.085  0.00  0.00    +0.000 F 
ATOM      3  F   UNL     1      44.457   7.626  11.435  0.00  0.00    +0.000 F 
ENDROOT
BRANCH   1   4
ATOM      4  C   UNL     1      46.253   6.389  12.420  0.00  0.00    +0.000 A 
ATOM      5  C   UNL     1      47.255   7.356  12.569  0.00  0.00    +0.000 A 
ATOM      6  C   UNL     1      48.176   7.249  13.607  0.00  0.00    +0.000 A 
ATOM      7  F   UNL     1      49.117   8.191  13.748  0.00  0.00    +0.000 F 
ATOM      8  C   UNL     1      48.137   6.188  14.506  0.00  0.00    +0.000 A 
ATOM      9  C   UNL     1      47.158   5.211  14.358  0.00  0.00    +0.000 A 
ATOM     10  C   UNL     1      46.216   5.315  13.327  0.00  0.00    +0.000 A 
BRANCH   9  11
ATOM     11  O   UNL     1      47.003   4.131  15.190  0.00  0.00    +0.000 OA
BRANCH  11  12
ATOM     12  C   UNL     1      47.881   4.002  16.335  0.00  0.00    +0.000 C 
ATOM     13  C   UNL     1      48.025   2.603  16.971  0.00  0.00    +0.000 C 
ATOM     14  N   UNL     1      47.745   3.167  18.301  0.00  0.00    +0.000 NA
ATOM     15  C   UNL     1      47.257   4.411  17.685  0.00  0.00    +0.000 C 
ATOM     16  H   UNL     1      48.573   3.292  18.884  0.00  0.00    +0.000 HD
ENDBRANCH  11  12
ENDBRANCH   9  11
ENDBRANCH   1   4
BRANCH   1  17
ATOM     17  C   UNL     1      44.289   5.273  11.273  0.00  0.00    +0.000 C 
BRANCH  17  18
ATOM     18  N   UNL     1      43.905   4.875   9.908  0.00  0.00    +0.000 N 
ATOM     19  H   UNL     1      42.900   4.829   9.744  0.00  0.00    +0.000 HD
BRANCH  18  23
ATOM     20  C   UNL     1      46.377   2.197   7.786  0.00  0.00    +0.000 A 
ATOM     21  C   UNL     1      45.482   1.702   8.737  0.00  0.00    +0.000 A 
ATOM     22  C   UNL     1      44.640   2.578   9.431  0.00  0.00    +0.000 A 
ATOM     23  C   UNL     1      44.648   3.955   9.177  0.00  0.00    +0.000 A 
ATOM     24  C   UNL     1      45.566   4.435   8.232  0.00  0.00    +0.000 A 
ATOM     25  C   UNL     1      46.428   3.570   7.544  0.00  0.00    +0.000 A 
BRANCH  20  27
ATOM     26  N   UNL     1      48.389   1.890   6.448  0.00  0.00    +0.000 N 
ATOM     27  C   UNL     1      47.315   1.304   7.057  0.00  0.00    +0.000 C 
ATOM     28  O   UNL     1      47.152   0.090   7.017  0.00  0.00    +0.000 OA
ATOM     29  H   UNL     1      49.069   1.262   6.038  0.00  0.00    +0.000 HD
ATOM     30  H   UNL     1      48.688   2.830   6.665  0.00  0.00    +0.000 HD
ENDBRANCH  20  27
ENDBRANCH  18  23
ENDBRANCH  17  18
ENDBRANCH   1  17
TORSDOF 7
ENDMDL
MODEL 4
REMARK VINA RESULT:    -7.883      2.761      4.295
REMARK INTER + INTRA:         -12.222
REMARK INTER:                 -11.396
REMARK INTRA:                  -0.826
REMARK UNBOUND:                -1.114
REMARK  Name = 
REMARK  7 active torsions:
REMARK  status: ('A' for Active; 'I' for Inactive)
REMARK    1  A    between atoms: C_2  and  C_4
REMARK    2  A    between atoms: C_7  and  N_8
REMARK    3  A    between atoms: N_8  and  C_9
REMARK    4  A    between atoms: C_9  and  C_10
REMARK    5  A    between atoms: C_10  and  C_13
REMARK    6  A    between atoms: C_18  and  O_19
REMARK    7  A    between atoms: O_19  and  C_20
REMARK                            x       y       z     vdW  Elec       q    Type
REMARK                         _______ _______ _______ _____ _____    ______ ____
ROOT
ATOM      1  C   UNL     1      43.302   4.683  12.702  0.00  0.00    +0.000 C 
ATOM      2  F   UNL     1      42.177   5.393  12.387  0.00  0.00    +0.000 F 
ATOM      3  F   UNL     1      43.020   4.082  13.898  0.00  0.00    +0.000 F 
ENDROOT
BRANCH   1   4
ATOM      4  C   UNL     1      44.520   5.584  12.791  0.00  0.00    +0.000 A 
ATOM      5  C   UNL     1      45.805   5.033  12.872  0.00  0.00    +0.000 A 
ATOM      6  C   UNL     1      46.916   5.869  12.934  0.00  0.00    +0.000 A 
ATOM      7  F   UNL     1      48.140   5.328  12.994  0.00  0.00    +0.000 F 
ATOM      8  C   UNL     1      46.785   7.254  12.931  0.00  0.00    +0.000 A 
ATOM      9  C   UNL     1      45.513   7.813  12.869  0.00  0.00    +0.000 A 
ATOM     10  C   UNL     1      44.388   6.983  12.791  0.00  0.00    +0.000 A 
BRANCH   9  11
ATOM     11  O   UNL     1      45.255   9.160  12.838  0.00  0.00    +0.000 OA
BRANCH  11  12
ATOM     12  C   UNL     1      45.198   9.830  11.555  0.00  0.00    +0.000 C 
ATOM     13  C   UNL     1      45.176  11.373  11.554  0.00  0.00    +0.000 C 
ATOM     14  N   UNL     1      44.004  11.367  10.664  0.00  0.00    +0.000 NA
ATOM     15  C   UNL     1      43.790   9.937  10.937  0.00  0.00    +0.000 C 
ATOM     16  H   UNL     1      44.220  11.574   9.689  0.00  0.00    +0.000 HD
ENDBRANCH  11  12
ENDBRANCH   9  11
ENDBRANCH   1   4
BRANCH   1  17
ATOM     17  C   UNL     1      43.504   3.568  11.641  0.00  0.00    +0.000 C 
BRANCH  17  18
ATOM     18  N   UNL     1      43.669   4.093  10.275  0.00  0.00    +0.000 N 
ATOM     19  H   UNL     1      42.820   4.478   9.861  0.00  0.00    +0.000 HD
BRANCH  18  23
ATOM     20  C   UNL     1      46.495   2.436   7.620  0.00  0.00    +0.000 A 
ATOM     21  C   UNL     1      45.767   1.595   8.463  0.00  0.00    +0.000 A 
ATOM     22  C   UNL     1      44.809   2.130   9.333  0.00  0.00    +0.000 A 
ATOM     23  C   UNL     1      44.536   3.503   9.362  0.00  0.00    +0.000 A 
ATOM     24  C   UNL     1      45.290   4.333   8.522  0.00  0.00    +0.000 A 
ATOM     25  C   UNL     1      46.265   3.812   7.661  0.00  0.00    +0.000 A 
BRANCH  20  27
ATOM     26  N   UNL     1      48.631   2.712   6.483  0.00  0.00    +0.000 N 
ATOM     27  C   UNL     1      47.549   1.910   6.712  0.00  0.00    +0.000 C 
ATOM     28  O   UNL     1      47.467   0.798   6.204  0.00  0.00    +0.000 OA
ATOM     29  H   UNL     1      49.384   2.304   5.942  0.00  0.00    +0.000 HD
ATOM     30  H   UNL     1      48.850   3.507   7.066  0.00  0.00    +0.000 HD
ENDBRANCH  20  27
ENDBRANCH  18  23
ENDBRANCH  17  18
ENDBRANCH   1  17
TORSDOF 7
ENDMDL
MODEL 5
REMARK VINA RESULT:    -7.635      2.857      3.345
REMARK INTER + INTRA:         -11.874
REMARK INTER:                 -10.990
REMARK INTRA:                  -0.884
REMARK UNBOUND:                -1.114
REMARK  Name = 
REMARK  7 active torsions:
REMARK  status: ('A' for Active; 'I' for Inactive)
REMARK    1  A    between atoms: C_2  and  C_4
REMARK    2  A    between atoms: C_7  and  N_8
REMARK    3  A    between atoms: N_8  and  C_9
REMARK    4  A    between atoms: C_9  and  C_10
REMARK    5  A    between atoms: C_10  and  C_13
REMARK    6  A    between atoms: C_18  and  O_19
REMARK    7  A    between atoms: O_19  and  C_20
REMARK                            x       y       z     vdW  Elec       q    Type
REMARK                         _______ _______ _______ _____ _____    ______ ____
ROOT
ATOM      1  C   UNL     1      43.962   5.130  12.327  0.00  0.00    +0.000 C 
ATOM      2  F   UNL     1      42.960   5.080  13.256  0.00  0.00    +0.000 F 
ATOM      3  F   UNL     1      44.882   4.208  12.746  0.00  0.00    +0.000 F 
ENDROOT
BRANCH   1   4
ATOM      4  C   UNL     1      44.557   6.522  12.228  0.00  0.00    +0.000 A 
ATOM      5  C   UNL     1      43.985   7.479  11.380  0.00  0.00    +0.000 A 
ATOM      6  C   UNL     1      44.526   8.759  11.311  0.00  0.00    +0.000 A 
ATOM      7  F   UNL     1      43.957   9.669  10.510  0.00  0.00    +0.000 F 
ATOM      8  C   UNL     1      45.643   9.117  12.060  0.00  0.00    +0.000 A 
ATOM      9  C   UNL     1      46.232   8.170  12.892  0.00  0.00    +0.000 A 
ATOM     10  C   UNL     1      45.687   6.883  12.982  0.00  0.00    +0.000 A 
BRANCH   9  11
ATOM     11  O   UNL     1      47.320   8.407  13.693  0.00  0.00    +0.000 OA
BRANCH  11  12
ATOM     12  C   UNL     1      48.624   8.538  13.078  0.00  0.00    +0.000 C 
ATOM     13  C   UNL     1      48.916   7.679  11.830  0.00  0.00    +0.000 C 
ATOM     14  N   UNL     1      50.171   7.207  12.434  0.00  0.00    +0.000 NA
ATOM     15  C   UNL     1      49.747   7.720  13.746  0.00  0.00    +0.000 C 
ATOM     16  H   UNL     1      51.008   7.660  12.065  0.00  0.00    +0.000 HD
ENDBRANCH  11  12
ENDBRANCH   9  11
ENDBRANCH   1   4
BRANCH   1  17
ATOM     17  C   UNL     1      43.401   4.659  10.959  0.00  0.00    +0.000 C 
BRANCH  17  18
ATOM     18  N   UNL     1      43.841   3.302  10.590  0.00  0.00    +0.000 N 
ATOM     19  H   UNL     1      44.027   2.685  11.380  0.00  0.00    +0.000 HD
BRANCH  18  23
ATOM     20  C   UNL     1      46.460   2.737   7.333  0.00  0.00    +0.000 A 
ATOM     21  C   UNL     1      46.017   1.630   8.061  0.00  0.00    +0.000 A 
ATOM     22  C   UNL     1      45.129   1.802   9.129  0.00  0.00    +0.000 A 
ATOM     23  C   UNL     1      44.642   3.068   9.479  0.00  0.00    +0.000 A 
ATOM     24  C   UNL     1      45.113   4.168   8.748  0.00  0.00    +0.000 A 
ATOM     25  C   UNL     1      46.016   4.011   7.689  0.00  0.00    +0.000 A 
BRANCH  20  27
ATOM     26  N   UNL     1      48.670   2.108   6.526  0.00  0.00    +0.000 N 
ATOM     27  C   UNL     1      47.433   2.600   6.218  0.00  0.00    +0.000 C 
ATOM     28  O   UNL     1      47.139   2.891   5.064  0.00  0.00    +0.000 OA
ATOM     29  H   UNL     1      49.288   1.929   5.745  0.00  0.00    +0.000 HD
ATOM     30  H   UNL     1      48.862   1.631   7.396  0.00  0.00    +0.000 HD
ENDBRANCH  20  27
ENDBRANCH  18  23
ENDBRANCH  17  18
ENDBRANCH   1  17
TORSDOF 7
ENDMDL
MODEL 6
REMARK VINA RESULT:    -7.594      2.023      7.958
REMARK INTER + INTRA:         -11.815
REMARK INTER:                 -11.058
REMARK INTRA:                  -0.758
REMARK UNBOUND:                -1.114
REMARK  Name = 
REMARK  7 active torsions:
REMARK  status: ('A' for Active; 'I' for Inactive)
REMARK    1  A    between atoms: C_2  and  C_4
REMARK    2  A    between atoms: C_7  and  N_8
REMARK    3  A    between atoms: N_8  and  C_9
REMARK    4  A    between atoms: C_9  and  C_10
REMARK    5  A    between atoms: C_10  and  C_13
REMARK    6  A    between atoms: C_18  and  O_19
REMARK    7  A    between atoms: O_19  and  C_20
REMARK                            x       y       z     vdW  Elec       q    Type
REMARK                         _______ _______ _______ _____ _____    ______ ____
ROOT
ATOM      1  C   UNL     1      45.763   6.260  11.335  0.00  0.00    +0.000 C 
ATOM      2  F   UNL     1      45.005   7.346  10.997  0.00  0.00    +0.000 F 
ATOM      3  F   UNL     1      47.041   6.593  10.980  0.00  0.00    +0.000 F 
ENDROOT
BRANCH   1   4
ATOM      4  C   UNL     1      45.283   5.008  10.625  0.00  0.00    +0.000 A 
ATOM      5  C   UNL     1      44.486   4.072  11.298  0.00  0.00    +0.000 A 
ATOM      6  C   UNL     1      44.036   2.936  10.632  0.00  0.00    +0.000 A 
ATOM      7  F   UNL     1      43.260   2.059  11.283  0.00  0.00    +0.000 F 
ATOM      8  C   UNL     1      44.369   2.693   9.303  0.00  0.00    +0.000 A 
ATOM      9  C   UNL     1      45.174   3.606   8.629  0.00  0.00    +0.000 A 
ATOM     10  C   UNL     1      45.621   4.760   9.284  0.00  0.00    +0.000 A 
BRANCH   9  11
ATOM     11  O   UNL     1      45.552   3.489   7.316  0.00  0.00    +0.000 OA
BRANCH  11  12
ATOM     12  C   UNL     1      46.944   3.232   7.012  0.00  0.00    +0.000 C 
ATOM     13  C   UNL     1      47.308   2.896   5.550  0.00  0.00    +0.000 C 
ATOM     14  N   UNL     1      48.050   1.706   5.996  0.00  0.00    +0.000 NA
ATOM     15  C   UNL     1      47.428   1.802   7.326  0.00  0.00    +0.000 C 
ATOM     16  H   UNL     1      49.063   1.826   6.004  0.00  0.00    +0.000 HD
ENDBRANCH  11  12
ENDBRANCH   9  11
ENDBRANCH   1   4
BRANCH   1  17
ATOM     17  C   UNL     1      45.725   6.082  12.877  0.00  0.00    +0.000 C 
BRANCH  17  18
ATOM     18  N   UNL     1      47.016   6.371  13.523  0.00  0.00    +0.000 N 
ATOM     19  H   UNL     1      47.766   6.629  12.881  0.00  0.00    +0.000 HD
BRANCH  18  23
ATOM     20  C   UNL     1      48.419   4.106  16.792  0.00  0.00    +0.000 A 
ATOM     21  C   UNL     1      48.835   5.431  16.643  0.00  0.00    +0.000 A 
ATOM     22  C   UNL     1      48.358   6.200  15.576  0.00  0.00    +0.000 A 
ATOM     23  C   UNL     1      47.440   5.682  14.653  0.00  0.00    +0.000 A 
ATOM     24  C   UNL     1      47.049   4.345  14.809  0.00  0.00    +0.000 A 
ATOM     25  C   UNL     1      47.534   3.558  15.863  0.00  0.00    +0.000 A 
BRANCH  20  27
ATOM     26  N   UNL     1      48.321   3.353  19.106  0.00  0.00    +0.000 N 
ATOM     27  C   UNL     1      48.933   3.245  17.889  0.00  0.00    +0.000 C 
ATOM     28  O   UNL     1      49.851   2.453  17.713  0.00  0.00    +0.000 OA
ATOM     29  H   UNL     1      48.616   2.695  19.816  0.00  0.00    +0.000 HD
ATOM     30  H   UNL     1      47.421   3.798  19.223  0.00  0.00    +0.000 HD
ENDBRANCH  20  27
ENDBRANCH  18  23
ENDBRANCH  17  18
ENDBRANCH   1  17
TORSDOF 7
ENDMDL
MODEL 7
REMARK VINA RESULT:    -7.491      3.040      4.669
REMARK INTER + INTRA:         -11.671
REMARK INTER:                 -11.053
REMARK INTRA:                  -0.617
REMARK UNBOUND:                -1.114
REMARK  Name = 
REMARK  7 active torsions:
REMARK  status: ('A' for Active; 'I' for Inactive)
REMARK    1  A    between atoms: C_2  and  C_4
REMARK    2  A    between atoms: C_7  and  N_8
REMARK    3  A    between atoms: N_8  and  C_9
REMARK    4  A    between atoms: C_9  and  C_10
REMARK    5  A    between atoms: C_10  and  C_13
REMARK    6  A    between atoms: C_18  and  O_19
REMARK    7  A    between atoms: O_19  and  C_20
REMARK                            x       y       z     vdW  Elec       q    Type
REMARK                         _______ _______ _______ _____ _____    ______ ____
ROOT
ATOM      1  C   UNL     1      44.766   5.489  12.283  0.00  0.00    +0.000 C 
ATOM      2  F   UNL     1      43.972   5.411  13.393  0.00  0.00    +0.000 F 
ATOM      3  F   UNL     1      45.613   4.419  12.375  0.00  0.00    +0.000 F 
ENDROOT
BRANCH   1   4
ATOM      4  C   UNL     1      45.517   6.806  12.230  0.00  0.00    +0.000 A 
ATOM      5  C   UNL     1      46.899   6.826  12.005  0.00  0.00    +0.000 A 
ATOM      6  C   UNL     1      47.576   8.040  11.939  0.00  0.00    +0.000 A 
ATOM      7  F   UNL     1      48.895   8.044  11.705  0.00  0.00    +0.000 F 
ATOM      8  C   UNL     1      46.912   9.251  12.105  0.00  0.00    +0.000 A 
ATOM      9  C   UNL     1      45.542   9.245  12.346  0.00  0.00    +0.000 A 
ATOM     10  C   UNL     1      44.847   8.030  12.400  0.00  0.00    +0.000 A 
BRANCH   9  11
ATOM     11  O   UNL     1      44.774  10.370  12.505  0.00  0.00    +0.000 OA
BRANCH  11  12
ATOM     12  C   UNL     1      44.156  10.963  11.337  0.00  0.00    +0.000 C 
ATOM     13  C   UNL     1      42.621  11.125  11.344  0.00  0.00    +0.000 C 
ATOM     14  N   UNL     1      42.535  10.472  10.028  0.00  0.00    +0.000 NA
ATOM     15  C   UNL     1      43.920   9.994  10.161  0.00  0.00    +0.000 C 
ATOM     16  H   UNL     1      42.393  11.118   9.251  0.00  0.00    +0.000 HD
ENDBRANCH  11  12
ENDBRANCH   9  11
ENDBRANCH   1   4
BRANCH   1  17
ATOM     17  C   UNL     1      43.883   5.293  11.021  0.00  0.00    +0.000 C 
BRANCH  17  18
ATOM     18  N   UNL     1      43.861   3.901  10.542  0.00  0.00    +0.000 N 
ATOM     19  H   UNL     1      43.697   3.203  11.267  0.00  0.00    +0.000 HD
BRANCH  18  23
ATOM     20  C   UNL     1      46.549   2.718   7.515  0.00  0.00    +0.000 A 
ATOM     21  C   UNL     1      45.916   1.746   8.291  0.00  0.00    +0.000 A 
ATOM     22  C   UNL     1      45.004   2.125   9.284  0.00  0.00    +0.000 A 
ATOM     23  C   UNL     1      44.682   3.469   9.506  0.00  0.00    +0.000 A 
ATOM     24  C   UNL     1      45.342   4.431   8.728  0.00  0.00    +0.000 A 
ATOM     25  C   UNL     1      46.271   4.066   7.745  0.00  0.00    +0.000 A 
BRANCH  20  27
ATOM     26  N   UNL     1      47.459   2.993   5.273  0.00  0.00    +0.000 N 
ATOM     27  C   UNL     1      47.553   2.359   6.479  0.00  0.00    +0.000 C 
ATOM     28  O   UNL     1      48.444   1.546   6.697  0.00  0.00    +0.000 OA
ATOM     29  H   UNL     1      48.204   2.811   4.611  0.00  0.00    +0.000 HD
ATOM     30  H   UNL     1      46.910   3.831   5.142  0.00  0.00    +0.000 HD
ENDBRANCH  20  27
ENDBRANCH  18  23
ENDBRANCH  17  18
ENDBRANCH   1  17
TORSDOF 7
ENDMDL
MODEL 8
REMARK VINA RESULT:    -7.210      2.617      3.482
REMARK INTER + INTRA:         -11.275
REMARK INTER:                 -10.790
REMARK INTRA:                  -0.485
REMARK UNBOUND:                -1.114
REMARK  Name = 
REMARK  7 active torsions:
REMARK  status: ('A' for Active; 'I' for Inactive)
REMARK    1  A    between atoms: C_2  and  C_4
REMARK    2  A    between atoms: C_7  and  N_8
REMARK    3  A    between atoms: N_8  and  C_9
REMARK    4  A    between atoms: C_9  and  C_10
REMARK    5  A    between atoms: C_10  and  C_13
REMARK    6  A    between atoms: C_18  and  O_19
REMARK    7  A    between atoms: O_19  and  C_20
REMARK                            x       y       z     vdW  Elec       q    Type
REMARK                         _______ _______ _______ _____ _____    ______ ____
ROOT
ATOM      1  C   UNL     1      45.622   6.473  11.322  0.00  0.00    +0.000 C 
ATOM      2  F   UNL     1      46.386   6.293  10.203  0.00  0.00    +0.000 F 
ATOM      3  F   UNL     1      45.157   7.757  11.233  0.00  0.00    +0.000 F 
ENDROOT
BRANCH   1   4
ATOM      4  C   UNL     1      46.430   6.247  12.586  0.00  0.00    +0.000 A 
ATOM      5  C   UNL     1      46.349   5.028  13.271  0.00  0.00    +0.000 A 
ATOM      6  C   UNL     1      47.109   4.824  14.419  0.00  0.00    +0.000 A 
ATOM      7  F   UNL     1      47.035   3.646  15.053  0.00  0.00    +0.000 F 
ATOM      8  C   UNL     1      47.948   5.813  14.921  0.00  0.00    +0.000 A 
ATOM      9  C   UNL     1      48.024   7.035  14.259  0.00  0.00    +0.000 A 
ATOM     10  C   UNL     1      47.275   7.248  13.095  0.00  0.00    +0.000 A 
BRANCH   9  11
ATOM     11  O   UNL     1      48.828   8.079  14.642  0.00  0.00    +0.000 OA
BRANCH  11  12
ATOM     12  C   UNL     1      48.354   8.984  15.669  0.00  0.00    +0.000 C 
ATOM     13  C   UNL     1      49.022  10.372  15.763  0.00  0.00    +0.000 C 
ATOM     14  N   UNL     1      49.242  10.180  17.206  0.00  0.00    +0.000 NA
ATOM     15  C   UNL     1      48.945   8.745  17.073  0.00  0.00    +0.000 C 
ATOM     16  H   UNL     1      48.582  10.685  17.798  0.00  0.00    +0.000 HD
ENDBRANCH  11  12
ENDBRANCH   9  11
ENDBRANCH   1   4
BRANCH   1  17
ATOM     17  C   UNL     1      44.402   5.516  11.255  0.00  0.00    +0.000 C 
BRANCH  17  18
ATOM     18  N   UNL     1      44.049   5.126   9.880  0.00  0.00    +0.000 N 
ATOM     19  H   UNL     1      43.059   5.218   9.651  0.00  0.00    +0.000 HD
BRANCH  18  23
ATOM     20  C   UNL     1      46.232   2.060   7.979  0.00  0.00    +0.000 A 
ATOM     21  C   UNL     1      45.320   1.733   8.984  0.00  0.00    +0.000 A 
ATOM     22  C   UNL     1      44.572   2.739   9.606  0.00  0.00    +0.000 A 
ATOM     23  C   UNL     1      44.693   4.082   9.226  0.00  0.00    +0.000 A 
ATOM     24  C   UNL     1      45.628   4.391   8.228  0.00  0.00    +0.000 A 
ATOM     25  C   UNL     1      46.396   3.395   7.611  0.00  0.00    +0.000 A 
BRANCH  20  27
ATOM     26  N   UNL     1      46.828  -0.279   7.650  0.00  0.00    +0.000 N 
ATOM     27  C   UNL     1      47.074   1.025   7.322  0.00  0.00    +0.000 C 
ATOM     28  O   UNL     1      47.937   1.318   6.503  0.00  0.00    +0.000 OA
ATOM     29  H   UNL     1      47.341  -0.977   7.125  0.00  0.00    +0.000 HD
ATOM     30  H   UNL     1      45.980  -0.570   8.115  0.00  0.00    +0.000 HD
ENDBRANCH  20  27
ENDBRANCH  18  23
ENDBRANCH  17  18
ENDBRANCH   1  17
TORSDOF 7
ENDMDL
