MODEL 1
REMARK VINA RESULT:    -9.091      0.000      0.000
REMARK INTER + INTRA:         -12.323
REMARK INTER:                 -11.748
REMARK INTRA:                  -0.575
REMARK UNBOUND:                -0.575
REMARK  Name = 
REMARK  5 active torsions:
REMARK  status: ('A' for Active; 'I' for Inactive)
REMARK    1  A    between atoms: C_8  and  C_9
REMARK    2  A    between atoms: N_11  and  C_12
REMARK    3  A    between atoms: C_12  and  C_13
REMARK    4  A    between atoms: C_16  and  O_17
REMARK    5  A    between atoms: O_17  and  C_18
REMARK                            x       y       z     vdW  Elec       q    Type
REMARK                         _______ _______ _______ _____ _____    ______ ____
ROOT
ATOM      1  C   UNL     1      46.338   4.755  14.041  0.00  0.00    +0.000 C 
ATOM      2  O   UNL     1      46.371   3.544  13.831  0.00  0.00    +0.000 OA
ATOM      3  N   UNL     1      45.265   5.511  13.649  0.00  0.00    +0.000 N 
ATOM      4  H   UNL     1      45.239   6.516  13.820  0.00  0.00    +0.000 HD
ENDROOT
BRANCH   1  12
ATOM      5  N   UNL     1      50.959   6.890  17.715  0.00  0.00    +0.000 N 
ATOM      6  C   UNL     1      49.858   6.107  17.502  0.00  0.00    +0.000 A 
ATOM      7  N   UNL     1      49.492   5.318  18.481  0.00  0.00    +0.000 NA
ATOM      8  N   UNL     1      48.405   4.492  18.296  0.00  0.00    +0.000 N 
ATOM      9  C   UNL     1      47.638   4.374  17.150  0.00  0.00    +0.000 A 
ATOM     10  O   UNL     1      46.707   3.576  17.086  0.00  0.00    +0.000 OA
ATOM     11  C   UNL     1      48.011   5.261  16.060  0.00  0.00    +0.000 A 
ATOM     12  C   UNL     1      47.449   5.432  14.735  0.00  0.00    +0.000 A 
ATOM     13  C   UNL     1      48.149   6.431  14.063  0.00  0.00    +0.000 A 
ATOM     14  S   UNL     1      49.421   7.117  14.968  0.00  0.00    +0.000 S 
ATOM     15  C   UNL     1      49.088   6.097  16.274  0.00  0.00    +0.000 A 
ATOM     16  H   UNL     1      51.212   6.990  18.690  0.00  0.00    +0.000 HD
ATOM     17  H   UNL     1      51.044   7.730  17.156  0.00  0.00    +0.000 HD
ATOM     18  H   UNL     1      48.171   3.881  19.071  0.00  0.00    +0.000 HD
ENDBRANCH   1  12
BRANCH   3  19
ATOM     19  C   UNL     1      44.135   4.908  12.989  0.00  0.00    +0.000 C 
BRANCH  19  20
ATOM     20  C   UNL     1      44.417   4.637  11.533  0.00  0.00    +0.000 A 
ATOM     21  C   UNL     1      43.872   3.510  10.903  0.00  0.00    +0.000 A 
ATOM     22  C   UNL     1      44.134   3.249   9.555  0.00  0.00    +0.000 A 
ATOM     23  C   UNL     1      44.905   4.141   8.807  0.00  0.00    +0.000 A 
ATOM     24  C   UNL     1      45.497   5.235   9.440  0.00  0.00    +0.000 A 
ATOM     25  C   UNL     1      45.258   5.481  10.796  0.00  0.00    +0.000 A 
BRANCH  23  26
ATOM     26  O   UNL     1      45.199   3.988   7.470  0.00  0.00    +0.000 OA
BRANCH  26  27
ATOM     27  C   UNL     1      46.180   3.108   7.070  0.00  0.00    +0.000 A 
ATOM     28  C   UNL     1      46.531   1.946   7.752  0.00  0.00    +0.000 A 
ATOM     29  C   UNL     1      47.560   1.176   7.239  0.00  0.00    +0.000 A 
ATOM     30  N   UNL     1      48.207   1.455   6.087  0.00  0.00    +0.000 NA
ATOM     31  C   UNL     1      47.798   2.550   5.413  0.00  0.00    +0.000 A 
ATOM     32  C   UNL     1      46.800   3.399   5.857  0.00  0.00    +0.000 A 
ENDBRANCH  26  27
ENDBRANCH  23  26
ENDBRANCH  19  20
ENDBRANCH   3  19
TORSDOF 5
ENDMDL
MODEL 2
REMARK VINA RESULT:    -8.840      1.838      2.470
REMARK INTER + INTRA:         -11.998
REMARK INTER:                 -11.234
REMARK INTRA:                  -0.765
REMARK UNBOUND:                -0.575
REMARK  Name = 
REMARK  5 active torsions:
REMARK  status: ('A' for Active; 'I' for Inactive)
REMARK    1  A    between atoms: C_8  and  C_9
REMARK    2  A    between atoms: N_11  and  C_12
REMARK    3  A    between atoms: C_12  and  C_13
REMARK    4  A    between atoms: C_16  and  O_17
REMARK    5  A    between atoms: O_17  and  C_18
REMARK                            x       y       z     vdW  Elec       q    Type
REMARK                         _______ _______ _______ _____ _____    ______ ____
ROOT
ATOM      1  C   UNL     1      47.591   5.711  14.400  0.00  0.00    +0.000 C 
ATOM      2  O   UNL     1      48.555   6.048  13.715  0.00  0.00    +0.000 OA
ATOM      3  N   UNL     1      46.311   6.001  14.009  0.00  0.00    +0.000 N 
ATOM      4  H   UNL     1      45.511   5.725  14.579  0.00  0.00    +0.000 HD
ENDROOT
BRANCH   1  12
ATOM      5  N   UNL     1      48.583   3.499  20.190  0.00  0.00    +0.000 N 
ATOM      6  C   UNL     1      48.658   4.495  19.255  0.00  0.00    +0.000 A 
ATOM      7  N   UNL     1      49.129   5.650  19.654  0.00  0.00    +0.000 NA
ATOM      8  N   UNL     1      49.194   6.687  18.750  0.00  0.00    +0.000 N 
ATOM      9  C   UNL     1      48.784   6.663  17.428  0.00  0.00    +0.000 A 
ATOM     10  O   UNL     1      48.859   7.662  16.720  0.00  0.00    +0.000 OA
ATOM     11  C   UNL     1      48.283   5.382  16.958  0.00  0.00    +0.000 A 
ATOM     12  C   UNL     1      47.782   4.971  15.661  0.00  0.00    +0.000 A 
ATOM     13  C   UNL     1      47.438   3.622  15.706  0.00  0.00    +0.000 A 
ATOM     14  S   UNL     1      47.688   2.891  17.226  0.00  0.00    +0.000 S 
ATOM     15  C   UNL     1      48.248   4.349  17.873  0.00  0.00    +0.000 A 
ATOM     16  H   UNL     1      49.151   3.662  21.013  0.00  0.00    +0.000 HD
ATOM     17  H   UNL     1      48.574   2.546  19.851  0.00  0.00    +0.000 HD
ATOM     18  H   UNL     1      49.543   7.570  19.106  0.00  0.00    +0.000 HD
ENDBRANCH   1  12
BRANCH   3  19
ATOM     19  C   UNL     1      46.052   6.700  12.775  0.00  0.00    +0.000 C 
BRANCH  19  20
ATOM     20  C   UNL     1      45.708   5.750  11.656  0.00  0.00    +0.000 A 
ATOM     21  C   UNL     1      45.089   4.523  11.932  0.00  0.00    +0.000 A 
ATOM     22  C   UNL     1      44.772   3.636  10.900  0.00  0.00    +0.000 A 
ATOM     23  C   UNL     1      45.026   3.987   9.573  0.00  0.00    +0.000 A 
ATOM     24  C   UNL     1      45.692   5.181   9.294  0.00  0.00    +0.000 A 
ATOM     25  C   UNL     1      46.035   6.057  10.329  0.00  0.00    +0.000 A 
BRANCH  23  26
ATOM     26  O   UNL     1      44.728   3.195   8.486  0.00  0.00    +0.000 OA
BRANCH  26  27
ATOM     27  C   UNL     1      45.738   2.632   7.739  0.00  0.00    +0.000 A 
ATOM     28  C   UNL     1      46.362   3.246   6.656  0.00  0.00    +0.000 A 
ATOM     29  C   UNL     1      47.345   2.540   5.984  0.00  0.00    +0.000 A 
ATOM     30  N   UNL     1      47.772   1.312   6.350  0.00  0.00    +0.000 NA
ATOM     31  C   UNL     1      47.197   0.771   7.443  0.00  0.00    +0.000 A 
ATOM     32  C   UNL     1      46.187   1.384   8.165  0.00  0.00    +0.000 A 
ENDBRANCH  26  27
ENDBRANCH  23  26
ENDBRANCH  19  20
ENDBRANCH   3  19
TORSDOF 5
ENDMDL
MODEL 3
REMARK VINA RESULT:    -8.772      1.858      2.634
REMARK INTER + INTRA:         -11.910
REMARK INTER:                 -10.972
REMARK INTRA:                  -0.938
REMARK UNBOUND:                -0.575
REMARK  Name = 
REMARK  5 active torsions:
REMARK  status: ('A' for Active; 'I' for Inactive)
REMARK    1  A    between atoms: C_8  and  C_9
REMARK    2  A    between atoms: N_11  and  C_12
REMARK    3  A    between atoms: C_12  and  C_13
REMARK    4  A    between atoms: C_16  and  O_17
REMARK    5  A    between atoms: O_17  and  C_18
REMARK                            x       y       z     vdW  Elec       q    Type
REMARK                         _______ _______ _______ _____ _____    ______ ____
ROOT
ATOM      1  C   UNL     1      46.709   5.010  14.214  0.00  0.00    +0.000 C 
ATOM      2  O   UNL     1      46.628   3.785  14.294  0.00  0.00    +0.000 OA
ATOM      3  N   UNL     1      45.707   5.748  13.643  0.00  0.00    +0.000 N 
ATOM      4  H   UNL     1      45.775   6.763  13.573  0.00  0.00    +0.000 HD
ENDROOT
BRANCH   1  12
ATOM      5  N   UNL     1      51.656   8.623  15.583  0.00  0.00    +0.000 N 
ATOM      6  C   UNL     1      50.732   8.136  14.700  0.00  0.00    +0.000 A 
ATOM      7  N   UNL     1      50.761   8.619  13.483  0.00  0.00    +0.000 NA
ATOM      8  N   UNL     1      49.828   8.176  12.571  0.00  0.00    +0.000 N 
ATOM      9  C   UNL     1      48.811   7.265  12.801  0.00  0.00    +0.000 A 
ATOM     10  O   UNL     1      48.012   6.968  11.918  0.00  0.00    +0.000 OA
ATOM     11  C   UNL     1      48.777   6.697  14.139  0.00  0.00    +0.000 A 
ATOM     12  C   UNL     1      47.886   5.725  14.741  0.00  0.00    +0.000 A 
ATOM     13  C   UNL     1      48.282   5.487  16.054  0.00  0.00    +0.000 A 
ATOM     14  S   UNL     1      49.641   6.392  16.544  0.00  0.00    +0.000 S 
ATOM     15  C   UNL     1      49.735   7.136  15.030  0.00  0.00    +0.000 A 
ATOM     16  H   UNL     1      52.439   9.092  15.144  0.00  0.00    +0.000 HD
ATOM     17  H   UNL     1      51.889   8.039  16.376  0.00  0.00    +0.000 HD
ATOM     18  H   UNL     1      49.872   8.592  11.648  0.00  0.00    +0.000 HD
ENDBRANCH   1  12
BRANCH   3  19
ATOM     19  C   UNL     1      44.518   5.114  13.131  0.00  0.00    +0.000 C 
BRANCH  19  20
ATOM     20  C   UNL     1      44.663   4.746  11.676  0.00  0.00    +0.000 A 
ATOM     21  C   UNL     1      44.050   3.592  11.171  0.00  0.00    +0.000 A 
ATOM     22  C   UNL     1      44.185   3.242   9.825  0.00  0.00    +0.000 A 
ATOM     23  C   UNL     1      44.896   4.071   8.955  0.00  0.00    +0.000 A 
ATOM     24  C   UNL     1      45.556   5.192   9.460  0.00  0.00    +0.000 A 
ATOM     25  C   UNL     1      45.445   5.527  10.813  0.00  0.00    +0.000 A 
BRANCH  23  26
ATOM     26  O   UNL     1      45.065   3.828   7.610  0.00  0.00    +0.000 OA
BRANCH  26  27
ATOM     27  C   UNL     1      46.080   3.006   7.173  0.00  0.00    +0.000 A 
ATOM     28  C   UNL     1      46.501   1.851   7.826  0.00  0.00    +0.000 A 
ATOM     29  C   UNL     1      47.556   1.141   7.278  0.00  0.00    +0.000 A 
ATOM     30  N   UNL     1      48.164   1.473   6.119  0.00  0.00    +0.000 NA
ATOM     31  C   UNL     1      47.688   2.558   5.474  0.00  0.00    +0.000 A 
ATOM     32  C   UNL     1      46.659   3.348   5.954  0.00  0.00    +0.000 A 
ENDBRANCH  26  27
ENDBRANCH  23  26
ENDBRANCH  19  20
ENDBRANCH   3  19
TORSDOF 5
ENDMDL
MODEL 4
REMARK VINA RESULT:    -8.753      1.550      2.205
REMARK INTER + INTRA:         -11.887
REMARK INTER:                 -11.245
REMARK INTRA:                  -0.642
REMARK UNBOUND:                -0.575
REMARK  Name = 
REMARK  5 active torsions:
REMARK  status: ('A' for Active; 'I' for Inactive)
REMARK    1  A    between atoms: C_8  and  C_9
REMARK    2  A    between atoms: N_11  and  C_12
REMARK    3  A    between atoms: C_12  and  C_13
REMARK    4  A    between atoms: C_16  and  O_17
REMARK    5  A    between atoms: O_17  and  C_18
REMARK                            x       y       z     vdW  Elec       q    Type
REMARK                         _______ _______ _______ _____ _____    ______ ____
ROOT
ATOM      1  C   UNL     1      47.854   6.891  13.728  0.00  0.00    +0.000 C 
ATOM      2  O   UNL     1      48.581   7.272  12.812  0.00  0.00    +0.000 OA
ATOM      3  N   UNL     1      46.491   6.923  13.606  0.00  0.00    +0.000 N 
ATOM      4  H   UNL     1      45.887   6.610  14.367  0.00  0.00    +0.000 HD
ENDROOT
BRANCH   1  12
ATOM      5  N   UNL     1      49.721   3.848  18.891  0.00  0.00    +0.000 N 
ATOM      6  C   UNL     1      48.869   4.008  17.833  0.00  0.00    +0.000 A 
ATOM      7  N   UNL     1      47.932   3.106  17.683  0.00  0.00    +0.000 NA
ATOM      8  N   UNL     1      47.071   3.216  16.613  0.00  0.00    +0.000 N 
ATOM      9  C   UNL     1      47.092   4.187  15.627  0.00  0.00    +0.000 A 
ATOM     10  O   UNL     1      46.292   4.167  14.697  0.00  0.00    +0.000 OA
ATOM     11  C   UNL     1      48.108   5.214  15.790  0.00  0.00    +0.000 A 
ATOM     12  C   UNL     1      48.429   6.376  14.984  0.00  0.00    +0.000 A 
ATOM     13  C   UNL     1      49.482   7.069  15.574  0.00  0.00    +0.000 A 
ATOM     14  S   UNL     1      50.067   6.357  17.008  0.00  0.00    +0.000 S 
ATOM     15  C   UNL     1      48.945   5.099  16.881  0.00  0.00    +0.000 A 
ATOM     16  H   UNL     1      49.378   3.217  19.605  0.00  0.00    +0.000 HD
ATOM     17  H   UNL     1      50.194   4.674  19.233  0.00  0.00    +0.000 HD
ATOM     18  H   UNL     1      46.376   2.484  16.522  0.00  0.00    +0.000 HD
ENDBRANCH   1  12
BRANCH   3  19
ATOM     19  C   UNL     1      45.864   7.391  12.395  0.00  0.00    +0.000 C 
BRANCH  19  20
ATOM     20  C   UNL     1      45.552   6.257  11.452  0.00  0.00    +0.000 A 
ATOM     21  C   UNL     1      44.753   5.185  11.872  0.00  0.00    +0.000 A 
ATOM     22  C   UNL     1      44.464   4.128  11.005  0.00  0.00    +0.000 A 
ATOM     23  C   UNL     1      44.931   4.155   9.689  0.00  0.00    +0.000 A 
ATOM     24  C   UNL     1      45.773   5.190   9.280  0.00  0.00    +0.000 A 
ATOM     25  C   UNL     1      46.085   6.234  10.157  0.00  0.00    +0.000 A 
BRANCH  23  26
ATOM     26  O   UNL     1      44.681   3.176   8.753  0.00  0.00    +0.000 OA
BRANCH  26  27
ATOM     27  C   UNL     1      45.705   2.671   7.983  0.00  0.00    +0.000 A 
ATOM     28  C   UNL     1      46.383   3.384   6.998  0.00  0.00    +0.000 A 
ATOM     29  C   UNL     1      47.374   2.729   6.286  0.00  0.00    +0.000 A 
ATOM     30  N   UNL     1      47.759   1.458   6.529  0.00  0.00    +0.000 NA
ATOM     31  C   UNL     1      47.130   0.816   7.535  0.00  0.00    +0.000 A 
ATOM     32  C   UNL     1      46.109   1.373   8.284  0.00  0.00    +0.000 A 
ENDBRANCH  26  27
ENDBRANCH  23  26
ENDBRANCH  19  20
ENDBRANCH   3  19
TORSDOF 5
ENDMDL
MODEL 5
REMARK VINA RESULT:    -8.512      1.041      1.299
REMARK INTER + INTRA:         -11.575
REMARK INTER:                 -10.837
REMARK INTRA:                  -0.738
REMARK UNBOUND:                -0.575
REMARK  Name = 
REMARK  5 active torsions:
REMARK  status: ('A' for Active; 'I' for Inactive)
REMARK    1  A    between atoms: C_8  and  C_9
REMARK    2  A    between atoms: N_11  and  C_12
REMARK    3  A    between atoms: C_12  and  C_13
REMARK    4  A    between atoms: C_16  and  O_17
REMARK    5  A    between atoms: O_17  and  C_18
REMARK                            x       y       z     vdW  Elec       q    Type
REMARK                         _______ _______ _______ _____ _____    ______ ____
ROOT
ATOM      1  C   UNL     1      47.135   5.499  13.923  0.00  0.00    +0.000 C 
ATOM      2  O   UNL     1      47.219   4.273  13.969  0.00  0.00    +0.000 OA
ATOM      3  N   UNL     1      45.972   6.113  13.539  0.00  0.00    +0.000 N 
ATOM      4  H   UNL     1      45.903   7.130  13.498  0.00  0.00    +0.000 HD
ENDROOT
BRANCH   1  12
ATOM      5  N   UNL     1      52.005   8.589  16.400  0.00  0.00    +0.000 N 
ATOM      6  C   UNL     1      50.921   7.764  16.517  0.00  0.00    +0.000 A 
ATOM      7  N   UNL     1      50.684   7.258  17.703  0.00  0.00    +0.000 NA
ATOM      8  N   UNL     1      49.618   6.400  17.856  0.00  0.00    +0.000 N 
ATOM      9  C   UNL     1      48.747   5.973  16.869  0.00  0.00    +0.000 A 
ATOM     10  O   UNL     1      47.847   5.175  17.115  0.00  0.00    +0.000 OA
ATOM     11  C   UNL     1      48.976   6.543  15.551  0.00  0.00    +0.000 A 
ATOM     12  C   UNL     1      48.281   6.349  14.294  0.00  0.00    +0.000 A 
ATOM     13  C   UNL     1      48.871   7.143  13.314  0.00  0.00    +0.000 A 
ATOM     14  S   UNL     1      50.198   8.059  13.867  0.00  0.00    +0.000 S 
ATOM     15  C   UNL     1      50.035   7.419  15.423  0.00  0.00    +0.000 A 
ATOM     16  H   UNL     1      52.349   8.947  17.282  0.00  0.00    +0.000 HD
ATOM     17  H   UNL     1      52.001   9.251  15.635  0.00  0.00    +0.000 HD
ATOM     18  H   UNL     1      49.485   6.014  18.784  0.00  0.00    +0.000 HD
ENDBRANCH   1  12
BRANCH   3  19
ATOM     19  C   UNL     1      44.806   5.342  13.188  0.00  0.00    +0.000 C 
BRANCH  19  20
ATOM     20  C   UNL     1      44.849   4.887  11.751  0.00  0.00    +0.000 A 
ATOM     21  C   UNL     1      44.152   3.739  11.349  0.00  0.00    +0.000 A 
ATOM     22  C   UNL     1      44.192   3.308  10.020  0.00  0.00    +0.000 A 
ATOM     23  C   UNL     1      44.890   4.050   9.065  0.00  0.00    +0.000 A 
ATOM     24  C   UNL     1      45.632   5.162   9.467  0.00  0.00    +0.000 A 
ATOM     25  C   UNL     1      45.616   5.577  10.802  0.00  0.00    +0.000 A 
BRANCH  23  26
ATOM     26  O   UNL     1      44.969   3.724   7.730  0.00  0.00    +0.000 OA
BRANCH  26  27
ATOM     27  C   UNL     1      45.994   2.930   7.266  0.00  0.00    +0.000 A 
ATOM     28  C   UNL     1      46.429   1.758   7.878  0.00  0.00    +0.000 A 
ATOM     29  C   UNL     1      47.494   1.082   7.307  0.00  0.00    +0.000 A 
ATOM     30  N   UNL     1      48.099   1.462   6.162  0.00  0.00    +0.000 NA
ATOM     31  C   UNL     1      47.611   2.564   5.555  0.00  0.00    +0.000 A 
ATOM     32  C   UNL     1      46.571   3.324   6.061  0.00  0.00    +0.000 A 
ENDBRANCH  26  27
ENDBRANCH  23  26
ENDBRANCH  19  20
ENDBRANCH   3  19
TORSDOF 5
ENDMDL
MODEL 6
REMARK VINA RESULT:    -7.986      2.206      3.287
REMARK INTER + INTRA:         -10.895
REMARK INTER:                 -10.021
REMARK INTRA:                  -0.874
REMARK UNBOUND:                -0.575
REMARK  Name = 
REMARK  5 active torsions:
REMARK  status: ('A' for Active; 'I' for Inactive)
REMARK    1  A    between atoms: C_8  and  C_9
REMARK    2  A    between atoms: N_11  and  C_12
REMARK    3  A    between atoms: C_12  and  C_13
REMARK    4  A    between atoms: C_16  and  O_17
REMARK    5  A    between atoms: O_17  and  C_18
REMARK                            x       y       z     vdW  Elec       q    Type
REMARK                         _______ _______ _______ _____ _____    ______ ____
ROOT
ATOM      1  C   UNL     1      48.786   7.205  15.164  0.00  0.00    +0.000 C 
ATOM      2  O   UNL     1      49.653   6.998  14.317  0.00  0.00    +0.000 OA
ATOM      3  N   UNL     1      47.647   7.898  14.853  0.00  0.00    +0.000 N 
ATOM      4  H   UNL     1      46.929   8.073  15.557  0.00  0.00    +0.000 HD
ENDROOT
BRANCH   1  12
ATOM      5  N   UNL     1      49.214   4.130  20.620  0.00  0.00    +0.000 N 
ATOM      6  C   UNL     1      48.826   4.205  19.311  0.00  0.00    +0.000 A 
ATOM      7  N   UNL     1      48.277   3.135  18.791  0.00  0.00    +0.000 NA
ATOM      8  N   UNL     1      47.898   3.161  17.467  0.00  0.00    +0.000 N 
ATOM      9  C   UNL     1      48.054   4.212  16.579  0.00  0.00    +0.000 A 
ATOM     10  O   UNL     1      47.708   4.110  15.406  0.00  0.00    +0.000 OA
ATOM     11  C   UNL     1      48.637   5.419  17.143  0.00  0.00    +0.000 A 
ATOM     12  C   UNL     1      48.940   6.702  16.542  0.00  0.00    +0.000 A 
ATOM     13  C   UNL     1      49.475   7.549  17.509  0.00  0.00    +0.000 A 
ATOM     14  S   UNL     1      49.619   6.839  19.052  0.00  0.00    +0.000 S 
ATOM     15  C   UNL     1      48.987   5.380  18.477  0.00  0.00    +0.000 A 
ATOM     16  H   UNL     1      48.792   3.366  21.132  0.00  0.00    +0.000 HD
ATOM     17  H   UNL     1      49.295   5.001  21.129  0.00  0.00    +0.000 HD
ATOM     18  H   UNL     1      47.499   2.304  17.100  0.00  0.00    +0.000 HD
ENDBRANCH   1  12
BRANCH   3  19
ATOM     19  C   UNL     1      47.421   8.396  13.520  0.00  0.00    +0.000 C 
BRANCH  19  20
ATOM     20  C   UNL     1      46.524   7.481  12.725  0.00  0.00    +0.000 A 
ATOM     21  C   UNL     1      45.502   8.009  11.924  0.00  0.00    +0.000 A 
ATOM     22  C   UNL     1      44.664   7.166  11.190  0.00  0.00    +0.000 A 
ATOM     23  C   UNL     1      44.869   5.785  11.209  0.00  0.00    +0.000 A 
ATOM     24  C   UNL     1      45.848   5.248  12.046  0.00  0.00    +0.000 A 
ATOM     25  C   UNL     1      46.669   6.089  12.803  0.00  0.00    +0.000 A 
BRANCH  23  26
ATOM     26  O   UNL     1      44.116   4.875  10.502  0.00  0.00    +0.000 OA
BRANCH  26  27
ATOM     27  C   UNL     1      44.725   3.970   9.661  0.00  0.00    +0.000 A 
ATOM     28  C   UNL     1      44.574   2.588   9.739  0.00  0.00    +0.000 A 
ATOM     29  C   UNL     1      45.275   1.806   8.838  0.00  0.00    +0.000 A 
ATOM     30  N   UNL     1      46.053   2.305   7.854  0.00  0.00    +0.000 NA
ATOM     31  C   UNL     1      46.125   3.649   7.761  0.00  0.00    +0.000 A 
ATOM     32  C   UNL     1      45.486   4.515   8.630  0.00  0.00    +0.000 A 
ENDBRANCH  26  27
ENDBRANCH  23  26
ENDBRANCH  19  20
ENDBRANCH   3  19
TORSDOF 5
ENDMDL
MODEL 7
REMARK VINA RESULT:    -7.947      2.798      3.709
REMARK INTER + INTRA:         -10.845
REMARK INTER:                  -9.938
REMARK INTRA:                  -0.908
REMARK UNBOUND:                -0.575
REMARK  Name = 
REMARK  5 active torsions:
REMARK  status: ('A' for Active; 'I' for Inactive)
REMARK    1  A    between atoms: C_8  and  C_9
REMARK    2  A    between atoms: N_11  and  C_12
REMARK    3  A    between atoms: C_12  and  C_13
REMARK    4  A    between atoms: C_16  and  O_17
REMARK    5  A    between atoms: O_17  and  C_18
REMARK                            x       y       z     vdW  Elec       q    Type
REMARK                         _______ _______ _______ _____ _____    ______ ____
ROOT
ATOM      1  C   UNL     1      47.070   7.750  13.582  0.00  0.00    +0.000 C 
ATOM      2  O   UNL     1      46.522   8.819  13.318  0.00  0.00    +0.000 OA
ATOM      3  N   UNL     1      46.414   6.560  13.409  0.00  0.00    +0.000 N 
ATOM      4  H   UNL     1      46.866   5.673  13.631  0.00  0.00    +0.000 HD
ENDROOT
BRANCH   1  12
ATOM      5  N   UNL     1      53.202   8.153  14.859  0.00  0.00    +0.000 N 
ATOM      6  C   UNL     1      52.144   8.267  14.000  0.00  0.00    +0.000 A 
ATOM      7  N   UNL     1      52.401   8.719  12.797  0.00  0.00    +0.000 NA
ATOM      8  N   UNL     1      51.357   8.876  11.911  0.00  0.00    +0.000 N 
ATOM      9  C   UNL     1      50.018   8.626  12.154  0.00  0.00    +0.000 A 
ATOM     10  O   UNL     1      49.166   8.835  11.296  0.00  0.00    +0.000 OA
ATOM     11  C   UNL     1      49.714   8.099  13.474  0.00  0.00    +0.000 A 
ATOM     12  C   UNL     1      48.456   7.714  14.082  0.00  0.00    +0.000 A 
ATOM     13  C   UNL     1      48.692   7.242  15.371  0.00  0.00    +0.000 A 
ATOM     14  S   UNL     1      50.332   7.273  15.833  0.00  0.00    +0.000 S 
ATOM     15  C   UNL     1      50.777   7.927  14.339  0.00  0.00    +0.000 A 
ATOM     16  H   UNL     1      54.106   8.160  14.403  0.00  0.00    +0.000 HD
ATOM     17  H   UNL     1      53.107   7.498  15.624  0.00  0.00    +0.000 HD
ATOM     18  H   UNL     1      51.598   9.249  11.000  0.00  0.00    +0.000 HD
ENDBRANCH   1  12
BRANCH   3  19
ATOM     19  C   UNL     1      45.066   6.522  12.900  0.00  0.00    +0.000 C 
BRANCH  19  20
ATOM     20  C   UNL     1      44.982   5.770  11.596  0.00  0.00    +0.000 A 
ATOM     21  C   UNL     1      45.933   5.987  10.589  0.00  0.00    +0.000 A 
ATOM     22  C   UNL     1      45.857   5.297   9.376  0.00  0.00    +0.000 A 
ATOM     23  C   UNL     1      44.857   4.344   9.174  0.00  0.00    +0.000 A 
ATOM     24  C   UNL     1      43.874   4.163  10.148  0.00  0.00    +0.000 A 
ATOM     25  C   UNL     1      43.933   4.873  11.351  0.00  0.00    +0.000 A 
BRANCH  23  26
ATOM     26  O   UNL     1      44.712   3.596   8.027  0.00  0.00    +0.000 OA
BRANCH  26  27
ATOM     27  C   UNL     1      45.758   2.832   7.558  0.00  0.00    +0.000 A 
ATOM     28  C   UNL     1      46.157   1.614   8.102  0.00  0.00    +0.000 A 
ATOM     29  C   UNL     1      47.247   0.975   7.537  0.00  0.00    +0.000 A 
ATOM     30  N   UNL     1      47.912   1.435   6.456  0.00  0.00    +0.000 NA
ATOM     31  C   UNL     1      47.459   2.582   5.909  0.00  0.00    +0.000 A 
ATOM     32  C   UNL     1      46.397   3.310   6.417  0.00  0.00    +0.000 A 
ENDBRANCH  26  27
ENDBRANCH  23  26
ENDBRANCH  19  20
ENDBRANCH   3  19
TORSDOF 5
ENDMDL
MODEL 8
REMARK VINA RESULT:    -7.821      4.257      8.843
REMARK INTER + INTRA:         -10.682
REMARK INTER:                  -9.794
REMARK INTRA:                  -0.889
REMARK UNBOUND:                -0.575
REMARK  Name = 
REMARK  5 active torsions:
REMARK  status: ('A' for Active; 'I' for Inactive)
REMARK    1  A    between atoms: C_8  and  C_9
REMARK    2  A    between atoms: N_11  and  C_12
REMARK    3  A    between atoms: C_12  and  C_13
REMARK    4  A    between atoms: C_16  and  O_17
REMARK    5  A    between atoms: O_17  and  C_18
REMARK                            x       y       z     vdW  Elec       q    Type
REMARK                         _______ _______ _______ _____ _____    ______ ____
ROOT
ATOM      1  C   UNL     1      46.726   4.182  14.331  0.00  0.00    +0.000 C 
ATOM      2  O   UNL     1      47.259   3.204  13.809  0.00  0.00    +0.000 OA
ATOM      3  N   UNL     1      46.766   4.367  15.687  0.00  0.00    +0.000 N 
ATOM      4  H   UNL     1      46.321   5.175  16.122  0.00  0.00    +0.000 HD
ENDROOT
BRANCH   1  12
ATOM      5  N   UNL     1      42.976   7.836  10.869  0.00  0.00    +0.000 N 
ATOM      6  C   UNL     1      43.289   6.632  11.436  0.00  0.00    +0.000 A 
ATOM      7  N   UNL     1      42.423   5.661  11.286  0.00  0.00    +0.000 NA
ATOM      8  N   UNL     1      42.687   4.440  11.868  0.00  0.00    +0.000 N 
ATOM      9  C   UNL     1      43.787   4.110  12.640  0.00  0.00    +0.000 A 
ATOM     10  O   UNL     1      43.903   2.995  13.138  0.00  0.00    +0.000 OA
ATOM     11  C   UNL     1      44.774   5.166  12.798  0.00  0.00    +0.000 A 
ATOM     12  C   UNL     1      46.036   5.194  13.511  0.00  0.00    +0.000 A 
ATOM     13  C   UNL     1      46.633   6.441  13.343  0.00  0.00    +0.000 A 
ATOM     14  S   UNL     1      45.722   7.525  12.392  0.00  0.00    +0.000 S 
ATOM     15  C   UNL     1      44.502   6.373  12.187  0.00  0.00    +0.000 A 
ATOM     16  H   UNL     1      42.254   7.783  10.161  0.00  0.00    +0.000 HD
ATOM     17  H   UNL     1      43.744   8.461  10.659  0.00  0.00    +0.000 HD
ATOM     18  H   UNL     1      41.980   3.725  11.746  0.00  0.00    +0.000 HD
ENDBRANCH   1  12
BRANCH   3  19
ATOM     19  C   UNL     1      47.445   3.428  16.545  0.00  0.00    +0.000 C 
BRANCH  19  20
ATOM     20  C   UNL     1      48.796   3.940  16.975  0.00  0.00    +0.000 A 
ATOM     21  C   UNL     1      49.806   3.045  17.356  0.00  0.00    +0.000 A 
ATOM     22  C   UNL     1      51.059   3.514  17.761  0.00  0.00    +0.000 A 
ATOM     23  C   UNL     1      51.333   4.883  17.742  0.00  0.00    +0.000 A 
ATOM     24  C   UNL     1      50.317   5.783  17.419  0.00  0.00    +0.000 A 
ATOM     25  C   UNL     1      49.055   5.316  17.040  0.00  0.00    +0.000 A 
BRANCH  23  26
ATOM     26  O   UNL     1      52.541   5.440  18.098  0.00  0.00    +0.000 OA
BRANCH  26  27
ATOM     27  C   UNL     1      53.621   5.364  17.247  0.00  0.00    +0.000 A 
ATOM     28  C   UNL     1      54.629   4.407  17.328  0.00  0.00    +0.000 A 
ATOM     29  C   UNL     1      55.668   4.477  16.415  0.00  0.00    +0.000 A 
ATOM     30  N   UNL     1      55.732   5.383  15.417  0.00  0.00    +0.000 NA
ATOM     31  C   UNL     1      54.705   6.254  15.321  0.00  0.00    +0.000 A 
ATOM     32  C   UNL     1      53.638   6.284  16.201  0.00  0.00    +0.000 A 
ENDBRANCH  26  27
ENDBRANCH  23  26
ENDBRANCH  19  20
ENDBRANCH   3  19
TORSDOF 5
ENDMDL
