MODEL 1
REMARK VINA RESULT:    -9.136      0.000      0.000
REMARK INTER + INTRA:         -12.072
REMARK INTER:                 -11.272
REMARK INTRA:                  -0.800
REMARK UNBOUND:                -0.800
REMARK  Name = 
REMARK  4 active torsions:
REMARK  status: ('A' for Active; 'I' for Inactive)
REMARK    1  A    between atoms: C_2  and  C_4
REMARK    2  A    between atoms: N_8  and  C_9
REMARK    3  A    between atoms: C_9  and  C_10
REMARK    4  A    between atoms: C_14  and  N_15
REMARK                            x       y       z     vdW  Elec       q    Type
REMARK                         _______ _______ _______ _____ _____    ______ ____
ROOT
ATOM      1  C   UNL     1      46.372   2.252   7.675  0.00  0.00    +0.000 A 
ATOM      2  C   UNL     1      45.619   1.802   8.753  0.00  0.00    +0.000 A 
ATOM      3  C   UNL     1      44.792   2.703   9.429  0.00  0.00    +0.000 A 
ATOM      4  C   UNL     1      44.733   4.032   9.022  0.00  0.00    +0.000 A 
ATOM      5  N   UNL     1      43.891   4.965   9.579  0.00  0.00    +0.000 N 
ATOM      6  N   UNL     1      45.469   4.480   7.984  0.00  0.00    +0.000 NA
ATOM      7  C   UNL     1      46.277   3.594   7.343  0.00  0.00    +0.000 A 
ATOM      8  H   UNL     1      44.059   5.876   9.167  0.00  0.00    +0.000 HD
ENDROOT
BRANCH   1  10
ATOM      9  N   UNL     1      48.305   1.960   6.234  0.00  0.00    +0.000 N 
ATOM     10  C   UNL     1      47.260   1.372   6.891  0.00  0.00    +0.000 C 
ATOM     11  O   UNL     1      47.092   0.160   6.858  0.00  0.00    +0.000 OA
ATOM     12  H   UNL     1      48.965   1.335   5.790  0.00  0.00    +0.000 HD
ATOM     13  H   UNL     1      48.624   2.895   6.450  0.00  0.00    +0.000 HD
ENDBRANCH   1  10
BRANCH   5  14
ATOM     14  C   UNL     1      43.479   4.954  10.968  0.00  0.00    +0.000 C 
BRANCH  14  15
ATOM     15  C   UNL     1      44.590   5.075  11.979  0.00  0.00    +0.000 A 
ATOM     16  C   UNL     1      44.711   4.074  12.940  0.00  0.00    +0.000 A 
ATOM     17  N   UNL     1      45.660   4.041  13.895  0.00  0.00    +0.000 NA
ATOM     18  C   UNL     1      46.542   5.072  13.894  0.00  0.00    +0.000 A 
ATOM     19  C   UNL     1      46.544   6.147  13.001  0.00  0.00    +0.000 A 
ATOM     20  C   UNL     1      45.526   6.116  12.035  0.00  0.00    +0.000 A 
BRANCH  19  21
ATOM     21  N   UNL     1      47.473   7.167  13.051  0.00  0.00    +0.000 N 
ATOM     22  C   UNL     1      47.093   8.553  13.331  0.00  0.00    +0.000 C 
ATOM     23  C   UNL     1      47.482   9.444  12.154  0.00  0.00    +0.000 C 
ATOM     24  C   UNL     1      48.958   9.273  11.798  0.00  0.00    +0.000 C 
ATOM     25  C   UNL     1      49.305   7.803  11.571  0.00  0.00    +0.000 C 
ATOM     26  C   UNL     1      48.888   6.933  12.758  0.00  0.00    +0.000 C 
ENDBRANCH  19  21
ENDBRANCH  14  15
ENDBRANCH   5  14
TORSDOF 4
ENDMDL
MODEL 2
REMARK VINA RESULT:    -8.306      1.502      2.769
REMARK INTER + INTRA:         -11.048
REMARK INTER:                 -10.297
REMARK INTRA:                  -0.751
REMARK UNBOUND:                -0.800
REMARK  Name = 
REMARK  4 active torsions:
REMARK  status: ('A' for Active; 'I' for Inactive)
REMARK    1  A    between atoms: C_2  and  C_4
REMARK    2  A    between atoms: N_8  and  C_9
REMARK    3  A    between atoms: C_9  and  C_10
REMARK    4  A    between atoms: C_14  and  N_15
REMARK                            x       y       z     vdW  Elec       q    Type
REMARK                         _______ _______ _______ _____ _____    ______ ____
ROOT
ATOM      1  C   UNL     1      46.353   2.228   7.670  0.00  0.00    +0.000 A 
ATOM      2  C   UNL     1      45.744   1.835   8.855  0.00  0.00    +0.000 A 
ATOM      3  C   UNL     1      44.891   2.728   9.511  0.00  0.00    +0.000 A 
ATOM      4  C   UNL     1      44.666   3.992   8.977  0.00  0.00    +0.000 A 
ATOM      5  N   UNL     1      43.785   4.902   9.512  0.00  0.00    +0.000 N 
ATOM      6  N   UNL     1      45.263   4.387   7.833  0.00  0.00    +0.000 NA
ATOM      7  C   UNL     1      46.098   3.511   7.212  0.00  0.00    +0.000 A 
ATOM      8  H   UNL     1      43.826   5.773   8.994  0.00  0.00    +0.000 HD
ENDROOT
BRANCH   1  10
ATOM      9  N   UNL     1      48.325   1.935   6.283  0.00  0.00    +0.000 N 
ATOM     10  C   UNL     1      47.255   1.350   6.900  0.00  0.00    +0.000 C 
ATOM     11  O   UNL     1      47.075   0.140   6.844  0.00  0.00    +0.000 OA
ATOM     12  H   UNL     1      48.992   1.309   5.850  0.00  0.00    +0.000 HD
ATOM     13  H   UNL     1      48.649   2.864   6.523  0.00  0.00    +0.000 HD
ENDBRANCH   1  10
BRANCH   5  14
ATOM     14  C   UNL     1      43.497   5.010  10.928  0.00  0.00    +0.000 C 
BRANCH  14  15
ATOM     15  C   UNL     1      44.495   5.792  11.741  0.00  0.00    +0.000 A 
ATOM     16  C   UNL     1      44.455   7.182  11.664  0.00  0.00    +0.000 A 
ATOM     17  N   UNL     1      45.273   8.009  12.342  0.00  0.00    +0.000 NA
ATOM     18  C   UNL     1      46.190   7.414  13.145  0.00  0.00    +0.000 A 
ATOM     19  C   UNL     1      46.355   6.038  13.319  0.00  0.00    +0.000 A 
ATOM     20  C   UNL     1      45.470   5.237  12.581  0.00  0.00    +0.000 A 
BRANCH  19  21
ATOM     21  N   UNL     1      47.310   5.492  14.155  0.00  0.00    +0.000 N 
ATOM     22  C   UNL     1      47.150   4.169  14.760  0.00  0.00    +0.000 C 
ATOM     23  C   UNL     1      47.157   4.291  16.282  0.00  0.00    +0.000 C 
ATOM     24  C   UNL     1      48.396   5.042  16.767  0.00  0.00    +0.000 C 
ATOM     25  C   UNL     1      48.539   6.390  16.062  0.00  0.00    +0.000 C 
ATOM     26  C   UNL     1      48.510   6.237  14.540  0.00  0.00    +0.000 C 
ENDBRANCH  19  21
ENDBRANCH  14  15
ENDBRANCH   5  14
TORSDOF 4
ENDMDL
MODEL 3
REMARK VINA RESULT:    -7.403      1.546      2.173
REMARK INTER + INTRA:          -9.935
REMARK INTER:                  -9.411
REMARK INTRA:                  -0.524
REMARK UNBOUND:                -0.800
REMARK  Name = 
REMARK  4 active torsions:
REMARK  status: ('A' for Active; 'I' for Inactive)
REMARK    1  A    between atoms: C_2  and  C_4
REMARK    2  A    between atoms: N_8  and  C_9
REMARK    3  A    between atoms: C_9  and  C_10
REMARK    4  A    between atoms: C_14  and  N_15
REMARK                            x       y       z     vdW  Elec       q    Type
REMARK                         _______ _______ _______ _____ _____    ______ ____
ROOT
ATOM      1  C   UNL     1      46.644   2.538   7.205  0.00  0.00    +0.000 A 
ATOM      2  C   UNL     1      46.137   3.761   7.627  0.00  0.00    +0.000 A 
ATOM      3  C   UNL     1      45.395   3.818   8.810  0.00  0.00    +0.000 A 
ATOM      4  C   UNL     1      45.171   2.660   9.546  0.00  0.00    +0.000 A 
ATOM      5  N   UNL     1      44.522   2.638  10.758  0.00  0.00    +0.000 N 
ATOM      6  N   UNL     1      45.649   1.466   9.138  0.00  0.00    +0.000 NA
ATOM      7  C   UNL     1      46.360   1.424   7.978  0.00  0.00    +0.000 A 
ATOM      8  H   UNL     1      44.423   1.682  11.083  0.00  0.00    +0.000 HD
ENDROOT
BRANCH   1  10
ATOM      9  N   UNL     1      47.239   3.280   4.970  0.00  0.00    +0.000 N 
ATOM     10  C   UNL     1      47.450   2.382   5.979  0.00  0.00    +0.000 C 
ATOM     11  O   UNL     1      48.301   1.507   5.880  0.00  0.00    +0.000 OA
ATOM     12  H   UNL     1      47.870   3.228   4.181  0.00  0.00    +0.000 HD
ATOM     13  H   UNL     1      46.750   4.155   5.116  0.00  0.00    +0.000 HD
ENDBRANCH   1  10
BRANCH   5  14
ATOM     14  C   UNL     1      43.459   3.553  11.121  0.00  0.00    +0.000 C 
BRANCH  14  15
ATOM     15  C   UNL     1      43.887   4.969  11.409  0.00  0.00    +0.000 A 
ATOM     16  C   UNL     1      43.061   6.002  10.975  0.00  0.00    +0.000 A 
ATOM     17  N   UNL     1      43.306   7.312  11.172  0.00  0.00    +0.000 NA
ATOM     18  C   UNL     1      44.447   7.610  11.842  0.00  0.00    +0.000 A 
ATOM     19  C   UNL     1      45.374   6.686  12.331  0.00  0.00    +0.000 A 
ATOM     20  C   UNL     1      45.055   5.341  12.088  0.00  0.00    +0.000 A 
BRANCH  19  21
ATOM     21  N   UNL     1      46.520   7.054  13.009  0.00  0.00    +0.000 N 
ATOM     22  C   UNL     1      46.753   8.428  13.456  0.00  0.00    +0.000 C 
ATOM     23  C   UNL     1      48.020   8.976  12.805  0.00  0.00    +0.000 C 
ATOM     24  C   UNL     1      49.208   8.045  13.042  0.00  0.00    +0.000 C 
ATOM     25  C   UNL     1      48.886   6.616  12.607  0.00  0.00    +0.000 C 
ATOM     26  C   UNL     1      47.603   6.101  13.261  0.00  0.00    +0.000 C 
ENDBRANCH  19  21
ENDBRANCH  14  15
ENDBRANCH   5  14
TORSDOF 4
ENDMDL
MODEL 4
REMARK VINA RESULT:    -7.361      2.469      3.106
REMARK INTER + INTRA:          -9.883
REMARK INTER:                  -9.288
REMARK INTRA:                  -0.595
REMARK UNBOUND:                -0.800
REMARK  Name = 
REMARK  4 active torsions:
REMARK  status: ('A' for Active; 'I' for Inactive)
REMARK    1  A    between atoms: C_2  and  C_4
REMARK    2  A    between atoms: N_8  and  C_9
REMARK    3  A    between atoms: C_9  and  C_10
REMARK    4  A    between atoms: C_14  and  N_15
REMARK                            x       y       z     vdW  Elec       q    Type
REMARK                         _______ _______ _______ _____ _____    ______ ____
ROOT
ATOM      1  C   UNL     1      46.617   2.664   7.301  0.00  0.00    +0.000 A 
ATOM      2  C   UNL     1      46.352   3.967   7.703  0.00  0.00    +0.000 A 
ATOM      3  C   UNL     1      45.544   4.183   8.823  0.00  0.00    +0.000 A 
ATOM      4  C   UNL     1      45.013   3.100   9.515  0.00  0.00    +0.000 A 
ATOM      5  N   UNL     1      44.274   3.218  10.669  0.00  0.00    +0.000 N 
ATOM      6  N   UNL     1      45.254   1.831   9.124  0.00  0.00    +0.000 NA
ATOM      7  C   UNL     1      46.034   1.637   8.027  0.00  0.00    +0.000 A 
ATOM      8  H   UNL     1      43.944   2.306  10.966  0.00  0.00    +0.000 HD
ENDROOT
BRANCH   1  10
ATOM      9  N   UNL     1      47.366   3.139   5.040  0.00  0.00    +0.000 N 
ATOM     10  C   UNL     1      47.470   2.338   6.142  0.00  0.00    +0.000 C 
ATOM     11  O   UNL     1      48.269   1.410   6.177  0.00  0.00    +0.000 OA
ATOM     12  H   UNL     1      48.031   2.971   4.296  0.00  0.00    +0.000 HD
ATOM     13  H   UNL     1      46.927   4.051   5.072  0.00  0.00    +0.000 HD
ENDBRANCH   1  10
BRANCH   5  14
ATOM     14  C   UNL     1      43.408   4.343  10.961  0.00  0.00    +0.000 C 
BRANCH  14  15
ATOM     15  C   UNL     1      44.089   5.562  11.524  0.00  0.00    +0.000 A 
ATOM     16  C   UNL     1      45.116   5.371  12.446  0.00  0.00    +0.000 A 
ATOM     17  N   UNL     1      45.823   6.362  13.020  0.00  0.00    +0.000 NA
ATOM     18  C   UNL     1      45.484   7.624  12.656  0.00  0.00    +0.000 A 
ATOM     19  C   UNL     1      44.476   7.973  11.753  0.00  0.00    +0.000 A 
ATOM     20  C   UNL     1      43.781   6.889  11.194  0.00  0.00    +0.000 A 
BRANCH  19  21
ATOM     21  N   UNL     1      44.179   9.280  11.421  0.00  0.00    +0.000 N 
ATOM     22  C   UNL     1      42.997   9.634  10.633  0.00  0.00    +0.000 C 
ATOM     23  C   UNL     1      43.425  10.331   9.344  0.00  0.00    +0.000 C 
ATOM     24  C   UNL     1      44.343  11.516   9.637  0.00  0.00    +0.000 C 
ATOM     25  C   UNL     1      45.528  11.096  10.506  0.00  0.00    +0.000 C 
ATOM     26  C   UNL     1      45.069  10.385  11.781  0.00  0.00    +0.000 C 
ENDBRANCH  19  21
ENDBRANCH  14  15
ENDBRANCH   5  14
TORSDOF 4
ENDMDL
MODEL 5
REMARK VINA RESULT:    -7.358      2.785      6.667
REMARK INTER + INTRA:          -9.878
REMARK INTER:                  -9.110
REMARK INTRA:                  -0.768
REMARK UNBOUND:                -0.800
REMARK  Name = 
REMARK  4 active torsions:
REMARK  status: ('A' for Active; 'I' for Inactive)
REMARK    1  A    between atoms: C_2  and  C_4
REMARK    2  A    between atoms: N_8  and  C_9
REMARK    3  A    between atoms: C_9  and  C_10
REMARK    4  A    between atoms: C_14  and  N_15
REMARK                            x       y       z     vdW  Elec       q    Type
REMARK                         _______ _______ _______ _____ _____    ______ ____
ROOT
ATOM      1  C   UNL     1      49.458   7.977  12.162  0.00  0.00    +0.000 A 
ATOM      2  C   UNL     1      48.253   8.485  11.692  0.00  0.00    +0.000 A 
ATOM      3  C   UNL     1      47.056   7.921  12.140  0.00  0.00    +0.000 A 
ATOM      4  C   UNL     1      47.081   6.862  13.041  0.00  0.00    +0.000 A 
ATOM      5  N   UNL     1      45.954   6.299  13.592  0.00  0.00    +0.000 N 
ATOM      6  N   UNL     1      48.247   6.354  13.493  0.00  0.00    +0.000 NA
ATOM      7  C   UNL     1      49.404   6.907  13.040  0.00  0.00    +0.000 A 
ATOM      8  H   UNL     1      46.208   5.509  14.174  0.00  0.00    +0.000 HD
ENDROOT
BRANCH   1  10
ATOM      9  N   UNL     1      51.882   7.835  12.165  0.00  0.00    +0.000 N 
ATOM     10  C   UNL     1      50.770   8.518  11.758  0.00  0.00    +0.000 C 
ATOM     11  O   UNL     1      50.862   9.517  11.055  0.00  0.00    +0.000 OA
ATOM     12  H   UNL     1      52.767   8.155  11.793  0.00  0.00    +0.000 HD
ATOM     13  H   UNL     1      51.840   6.884  12.509  0.00  0.00    +0.000 HD
ENDBRANCH   1  10
BRANCH   5  14
ATOM     14  C   UNL     1      44.679   6.211  12.909  0.00  0.00    +0.000 C 
BRANCH  14  15
ATOM     15  C   UNL     1      44.379   4.887  12.256  0.00  0.00    +0.000 A 
ATOM     16  C   UNL     1      43.710   3.924  13.009  0.00  0.00    +0.000 A 
ATOM     17  N   UNL     1      43.363   2.705  12.555  0.00  0.00    +0.000 NA
ATOM     18  C   UNL     1      43.705   2.426  11.273  0.00  0.00    +0.000 A 
ATOM     19  C   UNL     1      44.380   3.285  10.400  0.00  0.00    +0.000 A 
ATOM     20  C   UNL     1      44.712   4.537  10.941  0.00  0.00    +0.000 A 
BRANCH  19  21
ATOM     21  N   UNL     1      44.699   2.942   9.101  0.00  0.00    +0.000 N 
ATOM     22  C   UNL     1      44.916   1.553   8.693  0.00  0.00    +0.000 C 
ATOM     23  C   UNL     1      46.334   1.388   8.152  0.00  0.00    +0.000 C 
ATOM     24  C   UNL     1      46.623   2.403   7.048  0.00  0.00    +0.000 C 
ATOM     25  C   UNL     1      46.327   3.827   7.515  0.00  0.00    +0.000 C 
ATOM     26  C   UNL     1      44.907   3.958   8.068  0.00  0.00    +0.000 C 
ENDBRANCH  19  21
ENDBRANCH  14  15
ENDBRANCH   5  14
TORSDOF 4
ENDMDL
MODEL 6
REMARK VINA RESULT:    -7.239      4.201      8.297
REMARK INTER + INTRA:          -9.732
REMARK INTER:                  -9.230
REMARK INTRA:                  -0.502
REMARK UNBOUND:                -0.800
REMARK  Name = 
REMARK  4 active torsions:
REMARK  status: ('A' for Active; 'I' for Inactive)
REMARK    1  A    between atoms: C_2  and  C_4
REMARK    2  A    between atoms: N_8  and  C_9
REMARK    3  A    between atoms: C_9  and  C_10
REMARK    4  A    between atoms: C_14  and  N_15
REMARK                            x       y       z     vdW  Elec       q    Type
REMARK                         _______ _______ _______ _____ _____    ______ ____
ROOT
ATOM      1  C   UNL     1      48.821   4.513  18.278  0.00  0.00    +0.000 A 
ATOM      2  C   UNL     1      49.001   5.450  17.268  0.00  0.00    +0.000 A 
ATOM      3  C   UNL     1      48.174   5.404  16.142  0.00  0.00    +0.000 A 
ATOM      4  C   UNL     1      47.189   4.427  16.043  0.00  0.00    +0.000 A 
ATOM      5  N   UNL     1      46.283   4.357  15.011  0.00  0.00    +0.000 N 
ATOM      6  N   UNL     1      47.015   3.506  17.014  0.00  0.00    +0.000 NA
ATOM      7  C   UNL     1      47.835   3.557  18.098  0.00  0.00    +0.000 A 
ATOM      8  H   UNL     1      45.699   3.535  15.116  0.00  0.00    +0.000 HD
ENDROOT
BRANCH   1  10
ATOM      9  N   UNL     1      49.033   4.045  20.652  0.00  0.00    +0.000 N 
ATOM     10  C   UNL     1      49.635   4.493  19.509  0.00  0.00    +0.000 C 
ATOM     11  O   UNL     1      50.813   4.827  19.502  0.00  0.00    +0.000 OA
ATOM     12  H   UNL     1      49.630   3.936  21.461  0.00  0.00    +0.000 HD
ATOM     13  H   UNL     1      48.166   3.522  20.640  0.00  0.00    +0.000 HD
ENDBRANCH   1  10
BRANCH   5  14
ATOM     14  C   UNL     1      46.572   4.771  13.653  0.00  0.00    +0.000 C 
BRANCH  14  15
ATOM     15  C   UNL     1      45.472   4.539  12.651  0.00  0.00    +0.000 A 
ATOM     16  C   UNL     1      44.175   4.901  13.010  0.00  0.00    +0.000 A 
ATOM     17  N   UNL     1      43.096   4.767  12.215  0.00  0.00    +0.000 NA
ATOM     18  C   UNL     1      43.323   4.236  10.988  0.00  0.00    +0.000 A 
ATOM     19  C   UNL     1      44.561   3.822  10.491  0.00  0.00    +0.000 A 
ATOM     20  C   UNL     1      45.640   3.990  11.373  0.00  0.00    +0.000 A 
BRANCH  19  21
ATOM     21  N   UNL     1      44.728   3.290   9.227  0.00  0.00    +0.000 N 
ATOM     22  C   UNL     1      44.713   1.847   8.982  0.00  0.00    +0.000 C 
ATOM     23  C   UNL     1      46.047   1.410   8.382  0.00  0.00    +0.000 C 
ATOM     24  C   UNL     1      46.392   2.238   7.146  0.00  0.00    +0.000 C 
ATOM     25  C   UNL     1      46.338   3.735   7.450  0.00  0.00    +0.000 C 
ATOM     26  C   UNL     1      44.998   4.139   8.065  0.00  0.00    +0.000 C 
ENDBRANCH  19  21
ENDBRANCH  14  15
ENDBRANCH   5  14
TORSDOF 4
ENDMDL
MODEL 7
REMARK VINA RESULT:    -6.825      3.152      7.041
REMARK INTER + INTRA:          -9.221
REMARK INTER:                  -8.532
REMARK INTRA:                  -0.689
REMARK UNBOUND:                -0.800
REMARK  Name = 
REMARK  4 active torsions:
REMARK  status: ('A' for Active; 'I' for Inactive)
REMARK    1  A    between atoms: C_2  and  C_4
REMARK    2  A    between atoms: N_8  and  C_9
REMARK    3  A    between atoms: C_9  and  C_10
REMARK    4  A    between atoms: C_14  and  N_15
REMARK                            x       y       z     vdW  Elec       q    Type
REMARK                         _______ _______ _______ _____ _____    ______ ____
ROOT
ATOM      1  C   UNL     1      49.587   8.228  13.519  0.00  0.00    +0.000 A 
ATOM      2  C   UNL     1      48.998   7.064  13.997  0.00  0.00    +0.000 A 
ATOM      3  C   UNL     1      47.714   6.723  13.563  0.00  0.00    +0.000 A 
ATOM      4  C   UNL     1      47.041   7.547  12.668  0.00  0.00    +0.000 A 
ATOM      5  N   UNL     1      45.811   7.250  12.131  0.00  0.00    +0.000 N 
ATOM      6  N   UNL     1      47.600   8.686  12.208  0.00  0.00    +0.000 NA
ATOM      7  C   UNL     1      48.846   9.010  12.647  0.00  0.00    +0.000 A 
ATOM      8  H   UNL     1      45.489   8.017  11.551  0.00  0.00    +0.000 HD
ENDROOT
BRANCH   1  10
ATOM      9  N   UNL     1      51.810   7.696  14.338  0.00  0.00    +0.000 N 
ATOM     10  C   UNL     1      50.943   8.661  13.907  0.00  0.00    +0.000 C 
ATOM     11  O   UNL     1      51.293   9.831  13.811  0.00  0.00    +0.000 OA
ATOM     12  H   UNL     1      52.765   7.989  14.499  0.00  0.00    +0.000 HD
ATOM     13  H   UNL     1      51.648   6.710  14.179  0.00  0.00    +0.000 HD
ENDBRANCH   1  10
BRANCH   5  14
ATOM     14  C   UNL     1      44.787   6.497  12.827  0.00  0.00    +0.000 C 
BRANCH  14  15
ATOM     15  C   UNL     1      44.464   5.144  12.249  0.00  0.00    +0.000 A 
ATOM     16  C   UNL     1      43.829   4.216  13.071  0.00  0.00    +0.000 A 
ATOM     17  N   UNL     1      43.468   2.977  12.688  0.00  0.00    +0.000 NA
ATOM     18  C   UNL     1      43.760   2.640  11.407  0.00  0.00    +0.000 A 
ATOM     19  C   UNL     1      44.397   3.458  10.470  0.00  0.00    +0.000 A 
ATOM     20  C   UNL     1      44.746   4.734  10.938  0.00  0.00    +0.000 A 
BRANCH  19  21
ATOM     21  N   UNL     1      44.665   3.056   9.176  0.00  0.00    +0.000 N 
ATOM     22  C   UNL     1      44.856   1.648   8.822  0.00  0.00    +0.000 C 
ATOM     23  C   UNL     1      46.251   1.446   8.237  0.00  0.00    +0.000 C 
ATOM     24  C   UNL     1      46.508   2.409   7.080  0.00  0.00    +0.000 C 
ATOM     25  C   UNL     1      46.241   3.856   7.494  0.00  0.00    +0.000 C 
ATOM     26  C   UNL     1      44.843   4.024   8.092  0.00  0.00    +0.000 C 
ENDBRANCH  19  21
ENDBRANCH  14  15
ENDBRANCH   5  14
TORSDOF 4
ENDMDL
MODEL 8
REMARK VINA RESULT:    -6.784      1.684      2.291
REMARK INTER + INTRA:          -9.171
REMARK INTER:                  -8.545
REMARK INTRA:                  -0.626
REMARK UNBOUND:                -0.800
REMARK  Name = 
REMARK  4 active torsions:
REMARK  status: ('A' for Active; 'I' for Inactive)
REMARK    1  A    between atoms: C_2  and  C_4
REMARK    2  A    between atoms: N_8  and  C_9
REMARK    3  A    between atoms: C_9  and  C_10
REMARK    4  A    between atoms: C_14  and  N_15
REMARK                            x       y       z     vdW  Elec       q    Type
REMARK                         _______ _______ _______ _____ _____    ______ ____
ROOT
ATOM      1  C   UNL     1      46.316   2.017   7.925  0.00  0.00    +0.000 A 
ATOM      2  C   UNL     1      45.626   1.841   9.118  0.00  0.00    +0.000 A 
ATOM      3  C   UNL     1      44.956   2.930   9.684  0.00  0.00    +0.000 A 
ATOM      4  C   UNL     1      44.989   4.169   9.054  0.00  0.00    +0.000 A 
ATOM      5  N   UNL     1      44.296   5.271   9.497  0.00  0.00    +0.000 N 
ATOM      6  N   UNL     1      45.666   4.352   7.901  0.00  0.00    +0.000 NA
ATOM      7  C   UNL     1      46.322   3.286   7.369  0.00  0.00    +0.000 A 
ATOM      8  H   UNL     1      44.513   6.075   8.919  0.00  0.00    +0.000 HD
ENDROOT
BRANCH   1  10
ATOM      9  N   UNL     1      46.727  -0.355   7.610  0.00  0.00    +0.000 N 
ATOM     10  C   UNL     1      47.039   0.925   7.246  0.00  0.00    +0.000 C 
ATOM     11  O   UNL     1      47.859   1.151   6.365  0.00  0.00    +0.000 OA
ATOM     12  H   UNL     1      47.151  -1.094   7.064  0.00  0.00    +0.000 HD
ATOM     13  H   UNL     1      45.887  -0.584   8.126  0.00  0.00    +0.000 HD
ENDBRANCH   1  10
BRANCH   5  14
ATOM     14  C   UNL     1      44.015   5.540  10.893  0.00  0.00    +0.000 C 
BRANCH  14  15
ATOM     15  C   UNL     1      44.541   6.847  11.425  0.00  0.00    +0.000 A 
ATOM     16  C   UNL     1      43.793   7.998  11.187  0.00  0.00    +0.000 A 
ATOM     17  N   UNL     1      44.130   9.230  11.612  0.00  0.00    +0.000 NA
ATOM     18  C   UNL     1      45.285   9.323  12.316  0.00  0.00    +0.000 A 
ATOM     19  C   UNL     1      46.141   8.263  12.627  0.00  0.00    +0.000 A 
ATOM     20  C   UNL     1      45.728   7.009  12.152  0.00  0.00    +0.000 A 
BRANCH  19  21
ATOM     21  N   UNL     1      47.306   8.421  13.352  0.00  0.00    +0.000 N 
ATOM     22  C   UNL     1      48.091   9.656  13.303  0.00  0.00    +0.000 C 
ATOM     23  C   UNL     1      49.495   9.358  12.784  0.00  0.00    +0.000 C 
ATOM     24  C   UNL     1      50.155   8.243  13.594  0.00  0.00    +0.000 C 
ATOM     25  C   UNL     1      49.267   7.002  13.654  0.00  0.00    +0.000 C 
ATOM     26  C   UNL     1      47.863   7.335  14.160  0.00  0.00    +0.000 C 
ENDBRANCH  19  21
ENDBRANCH  14  15
ENDBRANCH   5  14
TORSDOF 4
ENDMDL
MODEL 9
REMARK VINA RESULT:    -6.746      3.106      7.190
REMARK INTER + INTRA:          -9.124
REMARK INTER:                  -8.660
REMARK INTRA:                  -0.464
REMARK UNBOUND:                -0.800
REMARK  Name = 
REMARK  4 active torsions:
REMARK  status: ('A' for Active; 'I' for Inactive)
REMARK    1  A    between atoms: C_2  and  C_4
REMARK    2  A    between atoms: N_8  and  C_9
REMARK    3  A    between atoms: C_9  and  C_10
REMARK    4  A    between atoms: C_14  and  N_15
REMARK                            x       y       z     vdW  Elec       q    Type
REMARK                         _______ _______ _______ _____ _____    ______ ____
ROOT
ATOM      1  C   UNL     1      48.100   5.165  15.759  0.00  0.00    +0.000 A 
ATOM      2  C   UNL     1      47.046   4.439  15.219  0.00  0.00    +0.000 A 
ATOM      3  C   UNL     1      46.455   4.878  14.031  0.00  0.00    +0.000 A 
ATOM      4  C   UNL     1      46.923   6.029  13.406  0.00  0.00    +0.000 A 
ATOM      5  N   UNL     1      46.454   6.487  12.198  0.00  0.00    +0.000 N 
ATOM      6  N   UNL     1      47.939   6.747  13.929  0.00  0.00    +0.000 NA
ATOM      7  C   UNL     1      48.496   6.313  15.092  0.00  0.00    +0.000 A 
ATOM      8  H   UNL     1      46.897   7.369  11.964  0.00  0.00    +0.000 HD
ENDROOT
BRANCH   1  10
ATOM      9  N   UNL     1      48.467   5.445  18.143  0.00  0.00    +0.000 N 
ATOM     10  C   UNL     1      48.795   4.772  17.000  0.00  0.00    +0.000 C 
ATOM     11  O   UNL     1      49.606   3.854  17.015  0.00  0.00    +0.000 OA
ATOM     12  H   UNL     1      48.871   5.095  19.003  0.00  0.00    +0.000 HD
ATOM     13  H   UNL     1      47.631   6.010  18.220  0.00  0.00    +0.000 HD
ENDBRANCH   1  10
BRANCH   5  14
ATOM     14  C   UNL     1      45.090   6.312  11.742  0.00  0.00    +0.000 C 
BRANCH  14  15
ATOM     15  C   UNL     1      44.764   4.961  11.160  0.00  0.00    +0.000 A 
ATOM     16  C   UNL     1      43.877   4.146  11.859  0.00  0.00    +0.000 A 
ATOM     17  N   UNL     1      43.483   2.923  11.456  0.00  0.00    +0.000 NA
ATOM     18  C   UNL     1      44.007   2.484  10.284  0.00  0.00    +0.000 A 
ATOM     19  C   UNL     1      44.910   3.183   9.478  0.00  0.00    +0.000 A 
ATOM     20  C   UNL     1      45.277   4.449   9.961  0.00  0.00    +0.000 A 
BRANCH  19  21
ATOM     21  N   UNL     1      45.407   2.682   8.292  0.00  0.00    +0.000 N 
ATOM     22  C   UNL     1      45.708   1.260   8.113  0.00  0.00    +0.000 C 
ATOM     23  C   UNL     1      47.189   1.081   7.788  0.00  0.00    +0.000 C 
ATOM     24  C   UNL     1      47.600   1.949   6.599  0.00  0.00    +0.000 C 
ATOM     25  C   UNL     1      47.212   3.410   6.821  0.00  0.00    +0.000 C 
ATOM     26  C   UNL     1      45.728   3.556   7.162  0.00  0.00    +0.000 C 
ENDBRANCH  19  21
ENDBRANCH  14  15
ENDBRANCH   5  14
TORSDOF 4
ENDMDL
