MODEL 1
REMARK VINA RESULT:    -9.153      0.000      0.000
REMARK INTER + INTRA:         -10.873
REMARK INTER:                 -11.294
REMARK INTRA:                   0.421
REMARK UNBOUND:                 0.421
REMARK  Name = 
REMARK  5 active torsions:
REMARK  status: ('A' for Active; 'I' for Inactive)
REMARK    1  A    between atoms: C_1  and  O_2
REMARK    2  A    between atoms: O_2  and  C_3
REMARK    3  A    between atoms: C_5  and  C_6
REMARK    4  A    between atoms: C_6  and  N_7
REMARK    5  A    between atoms: C_11  and  C_12
REMARK                            x       y       z     vdW  Elec       q    Type
REMARK                         _______ _______ _______ _____ _____    ______ ____
ROOT
ATOM      1  N   UNL     1      44.322   5.127   9.854  0.00  0.00    +0.000 N 
ATOM      2  C   UNL     1      45.018   4.176   9.109  0.00  0.00    +0.000 A 
ATOM      3  N   UNL     1      45.044   2.891   9.493  0.00  0.00    +0.000 NA
ATOM      4  C   UNL     1      45.774   2.035   8.748  0.00  0.00    +0.000 A 
ATOM      5  C   UNL     1      46.482   2.413   7.633  0.00  0.00    +0.000 A 
ATOM      6  C   UNL     1      46.396   3.747   7.316  0.00  0.00    +0.000 A 
ATOM      7  N   UNL     1      45.669   4.641   8.028  0.00  0.00    +0.000 NA
ATOM      8  H   UNL     1      44.612   6.034   9.515  0.00  0.00    +0.000 HD
ENDROOT
BRANCH   5   9
ATOM      9  C   UNL     1      47.304   1.433   6.913  0.00  0.00    +0.000 C 
ATOM     10  N   UNL     1      48.318   1.893   6.122  0.00  0.00    +0.000 N 
ATOM     11  O   UNL     1      47.074   0.235   7.006  0.00  0.00    +0.000 OA
ATOM     12  H   UNL     1      48.408   2.853   5.819  0.00  0.00    +0.000 HD
ATOM     13  H   UNL     1      48.802   1.189   5.575  0.00  0.00    +0.000 HD
ENDBRANCH   5   9
BRANCH   1  14
ATOM     14  C   UNL     1      44.084   4.937  11.293  0.00  0.00    +0.000 C 
ATOM     15  C   UNL     1      42.758   5.292  11.944  0.00  0.00    +0.000 C 
ATOM     16  C   UNL     1      43.059   3.862  11.646  0.00  0.00    +0.000 C 
BRANCH  14  19
ATOM     17  C   UNL     1      46.943   4.199  13.725  0.00  0.00    +0.000 A 
ATOM     18  C   UNL     1      45.800   4.025  12.962  0.00  0.00    +0.000 A 
ATOM     19  C   UNL     1      45.334   5.076  12.157  0.00  0.00    +0.000 A 
ATOM     20  C   UNL     1      46.070   6.268  12.188  0.00  0.00    +0.000 A 
ATOM     21  C   UNL     1      47.211   6.345  12.972  0.00  0.00    +0.000 A 
ATOM     22  N   UNL     1      47.668   5.337  13.737  0.00  0.00    +0.000 NA
BRANCH  17  24
ATOM     23  C   UNL     1      47.593   3.512  15.863  0.00  0.00    +0.000 C 
ATOM     24  O   UNL     1      47.331   3.133  14.514  0.00  0.00    +0.000 OA
ENDBRANCH  17  24
ENDBRANCH  14  19
ENDBRANCH   1  14
TORSDOF 4
ENDMDL
MODEL 2
REMARK VINA RESULT:    -8.651      1.093      1.704
REMARK INTER + INTRA:         -10.253
REMARK INTER:                 -10.634
REMARK INTRA:                   0.381
REMARK UNBOUND:                 0.421
REMARK  Name = 
REMARK  5 active torsions:
REMARK  status: ('A' for Active; 'I' for Inactive)
REMARK    1  A    between atoms: C_1  and  O_2
REMARK    2  A    between atoms: O_2  and  C_3
REMARK    3  A    between atoms: C_5  and  C_6
REMARK    4  A    between atoms: C_6  and  N_7
REMARK    5  A    between atoms: C_11  and  C_12
REMARK                            x       y       z     vdW  Elec       q    Type
REMARK                         _______ _______ _______ _____ _____    ______ ____
ROOT
ATOM      1  N   UNL     1      44.347   5.134   9.875  0.00  0.00    +0.000 N 
ATOM      2  C   UNL     1      45.055   4.205   9.113  0.00  0.00    +0.000 A 
ATOM      3  N   UNL     1      45.048   2.904   9.440  0.00  0.00    +0.000 NA
ATOM      4  C   UNL     1      45.791   2.068   8.684  0.00  0.00    +0.000 A 
ATOM      5  C   UNL     1      46.545   2.484   7.614  0.00  0.00    +0.000 A 
ATOM      6  C   UNL     1      46.491   3.831   7.354  0.00  0.00    +0.000 A 
ATOM      7  N   UNL     1      45.753   4.706   8.079  0.00  0.00    +0.000 NA
ATOM      8  H   UNL     1      44.664   6.050   9.587  0.00  0.00    +0.000 HD
ENDROOT
BRANCH   5   9
ATOM      9  C   UNL     1      47.378   1.522   6.881  0.00  0.00    +0.000 C 
ATOM     10  N   UNL     1      48.459   1.993   6.192  0.00  0.00    +0.000 N 
ATOM     11  O   UNL     1      47.098   0.331   6.874  0.00  0.00    +0.000 OA
ATOM     12  H   UNL     1      48.604   2.967   5.965  0.00  0.00    +0.000 HD
ATOM     13  H   UNL     1      48.953   1.308   5.629  0.00  0.00    +0.000 HD
ENDBRANCH   5   9
BRANCH   1  14
ATOM     14  C   UNL     1      44.053   4.885  11.294  0.00  0.00    +0.000 C 
ATOM     15  C   UNL     1      42.718   5.255  11.918  0.00  0.00    +0.000 C 
ATOM     16  C   UNL     1      42.982   3.831  11.561  0.00  0.00    +0.000 C 
BRANCH  14  19
ATOM     17  C   UNL     1      47.089   6.129  13.262  0.00  0.00    +0.000 A 
ATOM     18  C   UNL     1      45.988   6.130  12.422  0.00  0.00    +0.000 A 
ATOM     19  C   UNL     1      45.277   4.939  12.205  0.00  0.00    +0.000 A 
ATOM     20  C   UNL     1      45.748   3.795  12.862  0.00  0.00    +0.000 A 
ATOM     21  C   UNL     1      46.851   3.893  13.697  0.00  0.00    +0.000 A 
ATOM     22  N   UNL     1      47.529   5.035  13.916  0.00  0.00    +0.000 NA
BRANCH  17  24
ATOM     23  C   UNL     1      49.097   7.161  13.867  0.00  0.00    +0.000 C 
ATOM     24  O   UNL     1      47.757   7.329  13.410  0.00  0.00    +0.000 OA
ENDBRANCH  17  24
ENDBRANCH  14  19
ENDBRANCH   1  14
TORSDOF 4
ENDMDL
MODEL 3
REMARK VINA RESULT:    -7.508      2.200      6.513
REMARK INTER + INTRA:          -8.843
REMARK INTER:                  -8.588
REMARK INTRA:                  -0.254
REMARK UNBOUND:                 0.421
REMARK  Name = 
REMARK  5 active torsions:
REMARK  status: ('A' for Active; 'I' for Inactive)
REMARK    1  A    between atoms: C_1  and  O_2
REMARK    2  A    between atoms: O_2  and  C_3
REMARK    3  A    between atoms: C_5  and  C_6
REMARK    4  A    between atoms: C_6  and  N_7
REMARK    5  A    between atoms: C_11  and  C_12
REMARK                            x       y       z     vdW  Elec       q    Type
REMARK                         _______ _______ _______ _____ _____    ______ ____
ROOT
ATOM      1  N   UNL     1      44.788   6.560  11.396  0.00  0.00    +0.000 N 
ATOM      2  C   UNL     1      45.859   6.655  12.283  0.00  0.00    +0.000 A 
ATOM      3  N   UNL     1      46.504   5.554  12.698  0.00  0.00    +0.000 NA
ATOM      4  C   UNL     1      47.503   5.718  13.591  0.00  0.00    +0.000 A 
ATOM      5  C   UNL     1      47.882   6.941  14.087  0.00  0.00    +0.000 A 
ATOM      6  C   UNL     1      47.167   8.010  13.606  0.00  0.00    +0.000 A 
ATOM      7  N   UNL     1      46.163   7.896  12.704  0.00  0.00    +0.000 NA
ATOM      8  H   UNL     1      44.328   7.461  11.394  0.00  0.00    +0.000 HD
ENDROOT
BRANCH   5   9
ATOM      9  C   UNL     1      48.937   7.029  15.105  0.00  0.00    +0.000 C 
ATOM     10  N   UNL     1      48.567   7.185  16.410  0.00  0.00    +0.000 N 
ATOM     11  O   UNL     1      50.118   6.981  14.788  0.00  0.00    +0.000 OA
ATOM     12  H   UNL     1      47.642   7.465  16.707  0.00  0.00    +0.000 HD
ATOM     13  H   UNL     1      49.327   7.330  17.067  0.00  0.00    +0.000 HD
ENDBRANCH   5   9
BRANCH   1  14
ATOM     14  C   UNL     1      43.975   5.337  11.316  0.00  0.00    +0.000 C 
ATOM     15  C   UNL     1      43.253   4.769  12.525  0.00  0.00    +0.000 C 
ATOM     16  C   UNL     1      42.476   5.539  11.512  0.00  0.00    +0.000 C 
BRANCH  14  19
ATOM     17  C   UNL     1      45.628   3.785   8.234  0.00  0.00    +0.000 A 
ATOM     18  C   UNL     1      45.213   4.733   9.156  0.00  0.00    +0.000 A 
ATOM     19  C   UNL     1      44.454   4.336  10.268  0.00  0.00    +0.000 A 
ATOM     20  C   UNL     1      44.149   2.972  10.369  0.00  0.00    +0.000 A 
ATOM     21  C   UNL     1      44.621   2.094   9.405  0.00  0.00    +0.000 A 
ATOM     22  N   UNL     1      45.358   2.468   8.343  0.00  0.00    +0.000 NA
BRANCH  17  24
ATOM     23  C   UNL     1      46.724   3.206   6.252  0.00  0.00    +0.000 C 
ATOM     24  O   UNL     1      46.350   4.248   7.151  0.00  0.00    +0.000 OA
ENDBRANCH  17  24
ENDBRANCH  14  19
ENDBRANCH   1  14
TORSDOF 4
ENDMDL
MODEL 4
REMARK VINA RESULT:    -7.503      1.897      6.543
REMARK INTER + INTRA:          -8.837
REMARK INTER:                  -8.525
REMARK INTRA:                  -0.313
REMARK UNBOUND:                 0.421
REMARK  Name = 
REMARK  5 active torsions:
REMARK  status: ('A' for Active; 'I' for Inactive)
REMARK    1  A    between atoms: C_1  and  O_2
REMARK    2  A    between atoms: O_2  and  C_3
REMARK    3  A    between atoms: C_5  and  C_6
REMARK    4  A    between atoms: C_6  and  N_7
REMARK    5  A    between atoms: C_11  and  C_12
REMARK                            x       y       z     vdW  Elec       q    Type
REMARK                         _______ _______ _______ _____ _____    ______ ____
ROOT
ATOM      1  N   UNL     1      45.679   5.858  11.766  0.00  0.00    +0.000 N 
ATOM      2  C   UNL     1      46.270   5.304  12.901  0.00  0.00    +0.000 A 
ATOM      3  N   UNL     1      46.133   3.998  13.175  0.00  0.00    +0.000 NA
ATOM      4  C   UNL     1      46.695   3.539  14.313  0.00  0.00    +0.000 A 
ATOM      5  C   UNL     1      47.388   4.336  15.191  0.00  0.00    +0.000 A 
ATOM      6  C   UNL     1      47.477   5.658  14.828  0.00  0.00    +0.000 A 
ATOM      7  N   UNL     1      46.938   6.162  13.692  0.00  0.00    +0.000 NA
ATOM      8  H   UNL     1      45.725   6.863  11.874  0.00  0.00    +0.000 HD
ENDROOT
BRANCH   5   9
ATOM      9  C   UNL     1      47.915   3.773  16.440  0.00  0.00    +0.000 C 
ATOM     10  N   UNL     1      47.059   3.089  17.255  0.00  0.00    +0.000 N 
ATOM     11  O   UNL     1      49.088   3.929  16.750  0.00  0.00    +0.000 OA
ATOM     12  H   UNL     1      46.052   3.128  17.178  0.00  0.00    +0.000 HD
ATOM     13  H   UNL     1      47.443   2.795  18.146  0.00  0.00    +0.000 HD
ENDBRANCH   5   9
BRANCH   1  14
ATOM     14  C   UNL     1      44.484   5.252  11.160  0.00  0.00    +0.000 C 
ATOM     15  C   UNL     1      43.200   5.045  11.944  0.00  0.00    +0.000 C 
ATOM     16  C   UNL     1      43.293   6.190  10.993  0.00  0.00    +0.000 C 
BRANCH  14  19
ATOM     17  C   UNL     1      45.721   3.652   7.912  0.00  0.00    +0.000 A 
ATOM     18  C   UNL     1      45.465   4.607   8.882  0.00  0.00    +0.000 A 
ATOM     19  C   UNL     1      44.788   4.242  10.057  0.00  0.00    +0.000 A 
ATOM     20  C   UNL     1      44.396   2.902  10.167  0.00  0.00    +0.000 A 
ATOM     21  C   UNL     1      44.709   2.012   9.151  0.00  0.00    +0.000 A 
ATOM     22  N   UNL     1      45.368   2.355   8.028  0.00  0.00    +0.000 NA
BRANCH  17  24
ATOM     23  C   UNL     1      46.771   3.011   5.924  0.00  0.00    +0.000 C 
ATOM     24  O   UNL     1      46.368   4.085   6.771  0.00  0.00    +0.000 OA
ENDBRANCH  17  24
ENDBRANCH  14  19
ENDBRANCH   1  14
TORSDOF 4
ENDMDL
MODEL 5
REMARK VINA RESULT:    -6.710      3.087      7.809
REMARK INTER + INTRA:          -7.859
REMARK INTER:                  -8.278
REMARK INTRA:                   0.419
REMARK UNBOUND:                 0.421
REMARK  Name = 
REMARK  5 active torsions:
REMARK  status: ('A' for Active; 'I' for Inactive)
REMARK    1  A    between atoms: C_1  and  O_2
REMARK    2  A    between atoms: O_2  and  C_3
REMARK    3  A    between atoms: C_5  and  C_6
REMARK    4  A    between atoms: C_6  and  N_7
REMARK    5  A    between atoms: C_11  and  C_12
REMARK                            x       y       z     vdW  Elec       q    Type
REMARK                         _______ _______ _______ _____ _____    ______ ____
ROOT
ATOM      1  N   UNL     1      47.043   3.547  14.171  0.00  0.00    +0.000 N 
ATOM      2  C   UNL     1      47.515   3.659  15.478  0.00  0.00    +0.000 A 
ATOM      3  N   UNL     1      47.077   4.639  16.282  0.00  0.00    +0.000 NA
ATOM      4  C   UNL     1      47.609   4.713  17.520  0.00  0.00    +0.000 A 
ATOM      5  C   UNL     1      48.566   3.845  17.986  0.00  0.00    +0.000 A 
ATOM      6  C   UNL     1      48.954   2.875  17.094  0.00  0.00    +0.000 A 
ATOM      7  N   UNL     1      48.441   2.756  15.846  0.00  0.00    +0.000 NA
ATOM      8  H   UNL     1      47.653   2.895  13.695  0.00  0.00    +0.000 HD
ENDROOT
BRANCH   5   9
ATOM      9  C   UNL     1      49.143   4.032  19.324  0.00  0.00    +0.000 C 
ATOM     10  N   UNL     1      48.403   3.651  20.407  0.00  0.00    +0.000 N 
ATOM     11  O   UNL     1      50.250   4.532  19.463  0.00  0.00    +0.000 OA
ATOM     12  H   UNL     1      47.411   3.458  20.376  0.00  0.00    +0.000 HD
ATOM     13  H   UNL     1      48.801   3.879  21.312  0.00  0.00    +0.000 HD
ENDBRANCH   5   9
BRANCH   1  14
ATOM     14  C   UNL     1      46.534   4.720  13.445  0.00  0.00    +0.000 C 
ATOM     15  C   UNL     1      46.803   6.139  13.916  0.00  0.00    +0.000 C 
ATOM     16  C   UNL     1      47.600   5.588  12.783  0.00  0.00    +0.000 C 
BRANCH  14  19
ATOM     17  C   UNL     1      43.853   3.248  11.146  0.00  0.00    +0.000 A 
ATOM     18  C   UNL     1      45.069   3.431  11.785  0.00  0.00    +0.000 A 
ATOM     19  C   UNL     1      45.219   4.477  12.709  0.00  0.00    +0.000 A 
ATOM     20  C   UNL     1      44.103   5.296  12.921  0.00  0.00    +0.000 A 
ATOM     21  C   UNL     1      42.922   5.028  12.246  0.00  0.00    +0.000 A 
ATOM     22  N   UNL     1      42.769   4.020  11.368  0.00  0.00    +0.000 NA
BRANCH  17  24
ATOM     23  C   UNL     1      44.708   2.367   9.158  0.00  0.00    +0.000 C 
ATOM     24  O   UNL     1      43.782   2.216  10.231  0.00  0.00    +0.000 OA
ENDBRANCH  17  24
ENDBRANCH  14  19
ENDBRANCH   1  14
TORSDOF 4
ENDMDL
MODEL 6
REMARK VINA RESULT:    -6.625      2.127      6.432
REMARK INTER + INTRA:          -7.754
REMARK INTER:                  -8.243
REMARK INTRA:                   0.489
REMARK UNBOUND:                 0.421
REMARK  Name = 
REMARK  5 active torsions:
REMARK  status: ('A' for Active; 'I' for Inactive)
REMARK    1  A    between atoms: C_1  and  O_2
REMARK    2  A    between atoms: O_2  and  C_3
REMARK    3  A    between atoms: C_5  and  C_6
REMARK    4  A    between atoms: C_6  and  N_7
REMARK    5  A    between atoms: C_11  and  C_12
REMARK                            x       y       z     vdW  Elec       q    Type
REMARK                         _______ _______ _______ _____ _____    ______ ____
ROOT
ATOM      1  N   UNL     1      45.498   3.510  12.612  0.00  0.00    +0.000 N 
ATOM      2  C   UNL     1      45.991   4.772  12.940  0.00  0.00    +0.000 A 
ATOM      3  N   UNL     1      45.278   5.876  12.672  0.00  0.00    +0.000 NA
ATOM      4  C   UNL     1      45.836   7.066  12.977  0.00  0.00    +0.000 A 
ATOM      5  C   UNL     1      47.083   7.196  13.537  0.00  0.00    +0.000 A 
ATOM      6  C   UNL     1      47.739   6.013  13.776  0.00  0.00    +0.000 A 
ATOM      7  N   UNL     1      47.215   4.796  13.495  0.00  0.00    +0.000 NA
ATOM      8  H   UNL     1      46.270   2.862  12.698  0.00  0.00    +0.000 HD
ENDROOT
BRANCH   5   9
ATOM      9  C   UNL     1      47.647   8.530  13.780  0.00  0.00    +0.000 C 
ATOM     10  N   UNL     1      47.533   9.065  15.032  0.00  0.00    +0.000 N 
ATOM     11  O   UNL     1      48.191   9.153  12.878  0.00  0.00    +0.000 OA
ATOM     12  H   UNL     1      46.903   8.716  15.740  0.00  0.00    +0.000 HD
ATOM     13  H   UNL     1      47.857  10.021  15.131  0.00  0.00    +0.000 HD
ENDBRANCH   5   9
BRANCH   1  14
ATOM     14  C   UNL     1      44.528   3.334  11.520  0.00  0.00    +0.000 C 
ATOM     15  C   UNL     1      43.317   2.426  11.656  0.00  0.00    +0.000 C 
ATOM     16  C   UNL     1      43.137   3.900  11.790  0.00  0.00    +0.000 C 
BRANCH  14  19
ATOM     17  C   UNL     1      46.065   2.551   8.105  0.00  0.00    +0.000 A 
ATOM     18  C   UNL     1      45.533   2.367   9.371  0.00  0.00    +0.000 A 
ATOM     19  C   UNL     1      45.125   3.480  10.124  0.00  0.00    +0.000 A 
ATOM     20  C   UNL     1      45.298   4.738   9.532  0.00  0.00    +0.000 A 
ATOM     21  C   UNL     1      45.826   4.824   8.253  0.00  0.00    +0.000 A 
ATOM     22  N   UNL     1      46.208   3.760   7.524  0.00  0.00    +0.000 NA
BRANCH  17  24
ATOM     23  C   UNL     1      47.408   1.694   6.396  0.00  0.00    +0.000 C 
ATOM     24  O   UNL     1      46.469   1.415   7.431  0.00  0.00    +0.000 OA
ENDBRANCH  17  24
ENDBRANCH  14  19
ENDBRANCH   1  14
TORSDOF 4
ENDMDL
MODEL 7
REMARK VINA RESULT:    -6.618      3.937      6.578
REMARK INTER + INTRA:          -7.745
REMARK INTER:                  -7.706
REMARK INTRA:                  -0.040
REMARK UNBOUND:                 0.421
REMARK  Name = 
REMARK  5 active torsions:
REMARK  status: ('A' for Active; 'I' for Inactive)
REMARK    1  A    between atoms: C_1  and  O_2
REMARK    2  A    between atoms: O_2  and  C_3
REMARK    3  A    between atoms: C_5  and  C_6
REMARK    4  A    between atoms: C_6  and  N_7
REMARK    5  A    between atoms: C_11  and  C_12
REMARK                            x       y       z     vdW  Elec       q    Type
REMARK                         _______ _______ _______ _____ _____    ______ ____
ROOT
ATOM      1  N   UNL     1      47.619   2.874  15.348  0.00  0.00    +0.000 N 
ATOM      2  C   UNL     1      47.185   3.779  14.380  0.00  0.00    +0.000 A 
ATOM      3  N   UNL     1      47.523   5.075  14.455  0.00  0.00    +0.000 NA
ATOM      4  C   UNL     1      47.031   5.902  13.508  0.00  0.00    +0.000 A 
ATOM      5  C   UNL     1      46.211   5.483  12.488  0.00  0.00    +0.000 A 
ATOM      6  C   UNL     1      45.920   4.141  12.492  0.00  0.00    +0.000 A 
ATOM      7  N   UNL     1      46.397   3.272  13.416  0.00  0.00    +0.000 NA
ATOM      8  H   UNL     1      47.081   2.028  15.219  0.00  0.00    +0.000 HD
ENDROOT
BRANCH   5   9
ATOM      9  C   UNL     1      45.666   6.456  11.534  0.00  0.00    +0.000 C 
ATOM     10  N   UNL     1      45.253   6.005  10.312  0.00  0.00    +0.000 N 
ATOM     11  O   UNL     1      45.599   7.643  11.820  0.00  0.00    +0.000 OA
ATOM     12  H   UNL     1      45.496   5.100   9.932  0.00  0.00    +0.000 HD
ATOM     13  H   UNL     1      44.967   6.721   9.654  0.00  0.00    +0.000 HD
ENDBRANCH   5   9
BRANCH   1  14
ATOM     14  C   UNL     1      47.946   3.320  16.711  0.00  0.00    +0.000 C 
ATOM     15  C   UNL     1      47.167   4.423  17.407  0.00  0.00    +0.000 C 
ATOM     16  C   UNL     1      46.893   3.003  17.769  0.00  0.00    +0.000 C 
BRANCH  14  19
ATOM     17  C   UNL     1      51.422   1.874  17.392  0.00  0.00    +0.000 A 
ATOM     18  C   UNL     1      50.079   1.944  17.057  0.00  0.00    +0.000 A 
ATOM     19  C   UNL     1      49.422   3.184  17.076  0.00  0.00    +0.000 A 
ATOM     20  C   UNL     1      50.185   4.297  17.452  0.00  0.00    +0.000 A 
ATOM     21  C   UNL     1      51.528   4.132  17.755  0.00  0.00    +0.000 A 
ATOM     22  N   UNL     1      52.165   2.947  17.729  0.00  0.00    +0.000 NA
BRANCH  17  24
ATOM     23  C   UNL     1      53.424   0.667  17.394  0.00  0.00    +0.000 C 
ATOM     24  O   UNL     1      51.999   0.619  17.378  0.00  0.00    +0.000 OA
ENDBRANCH  17  24
ENDBRANCH  14  19
ENDBRANCH   1  14
TORSDOF 4
ENDMDL
MODEL 8
REMARK VINA RESULT:    -6.397      2.424      6.582
REMARK INTER + INTRA:          -7.472
REMARK INTER:                  -7.227
REMARK INTRA:                  -0.245
REMARK UNBOUND:                 0.421
REMARK  Name = 
REMARK  5 active torsions:
REMARK  status: ('A' for Active; 'I' for Inactive)
REMARK    1  A    between atoms: C_1  and  O_2
REMARK    2  A    between atoms: O_2  and  C_3
REMARK    3  A    between atoms: C_5  and  C_6
REMARK    4  A    between atoms: C_6  and  N_7
REMARK    5  A    between atoms: C_11  and  C_12
REMARK                            x       y       z     vdW  Elec       q    Type
REMARK                         _______ _______ _______ _____ _____    ______ ____
ROOT
ATOM      1  N   UNL     1      47.083   6.560  12.266  0.00  0.00    +0.000 N 
ATOM      2  C   UNL     1      47.327   5.927  13.484  0.00  0.00    +0.000 A 
ATOM      3  N   UNL     1      46.537   4.927  13.905  0.00  0.00    +0.000 NA
ATOM      4  C   UNL     1      46.806   4.390  15.114  0.00  0.00    +0.000 A 
ATOM      5  C   UNL     1      47.833   4.814  15.920  0.00  0.00    +0.000 A 
ATOM      6  C   UNL     1      48.588   5.841  15.407  0.00  0.00    +0.000 A 
ATOM      7  N   UNL     1      48.362   6.405  14.197  0.00  0.00    +0.000 NA
ATOM      8  H   UNL     1      47.647   7.400  12.255  0.00  0.00    +0.000 HD
ENDROOT
BRANCH   5   9
ATOM      9  C   UNL     1      48.021   4.221  17.250  0.00  0.00    +0.000 C 
ATOM     10  N   UNL     1      47.110   3.299  17.683  0.00  0.00    +0.000 N 
ATOM     11  O   UNL     1      48.960   4.557  17.958  0.00  0.00    +0.000 OA
ATOM     12  H   UNL     1      46.203   3.158  17.259  0.00  0.00    +0.000 HD
ATOM     13  H   UNL     1      47.228   2.982  18.639  0.00  0.00    +0.000 HD
ENDBRANCH   5   9
BRANCH   1  14
ATOM     14  C   UNL     1      45.733   6.591  11.684  0.00  0.00    +0.000 C 
ATOM     15  C   UNL     1      44.534   7.116  12.455  0.00  0.00    +0.000 C 
ATOM     16  C   UNL     1      45.170   7.985  11.422  0.00  0.00    +0.000 C 
BRANCH  14  19
ATOM     17  C   UNL     1      44.446   3.399  10.011  0.00  0.00    +0.000 A 
ATOM     18  C   UNL     1      44.663   4.375  10.971  0.00  0.00    +0.000 A 
ATOM     19  C   UNL     1      45.466   5.485  10.666  0.00  0.00    +0.000 A 
ATOM     20  C   UNL     1      46.019   5.528   9.380  0.00  0.00    +0.000 A 
ATOM     21  C   UNL     1      45.734   4.513   8.480  0.00  0.00    +0.000 A 
ATOM     22  N   UNL     1      44.956   3.452   8.764  0.00  0.00    +0.000 NA
BRANCH  17  24
ATOM     23  C   UNL     1      43.288   2.369  11.760  0.00  0.00    +0.000 C 
ATOM     24  O   UNL     1      43.667   2.322  10.387  0.00  0.00    +0.000 OA
ENDBRANCH  17  24
ENDBRANCH  14  19
ENDBRANCH   1  14
TORSDOF 4
ENDMDL
MODEL 9
REMARK VINA RESULT:    -6.229      3.649      5.207
REMARK INTER + INTRA:          -7.265
REMARK INTER:                  -6.953
REMARK INTRA:                  -0.313
REMARK UNBOUND:                 0.421
REMARK  Name = 
REMARK  5 active torsions:
REMARK  status: ('A' for Active; 'I' for Inactive)
REMARK    1  A    between atoms: C_1  and  O_2
REMARK    2  A    between atoms: O_2  and  C_3
REMARK    3  A    between atoms: C_5  and  C_6
REMARK    4  A    between atoms: C_6  and  N_7
REMARK    5  A    between atoms: C_11  and  C_12
REMARK                            x       y       z     vdW  Elec       q    Type
REMARK                         _______ _______ _______ _____ _____    ______ ____
ROOT
ATOM      1  N   UNL     1      46.426   8.122  12.607  0.00  0.00    +0.000 N 
ATOM      2  C   UNL     1      45.795   6.898  12.387  0.00  0.00    +0.000 A 
ATOM      3  N   UNL     1      46.362   5.753  12.798  0.00  0.00    +0.000 NA
ATOM      4  C   UNL     1      45.717   4.602  12.513  0.00  0.00    +0.000 A 
ATOM      5  C   UNL     1      44.526   4.551  11.830  0.00  0.00    +0.000 A 
ATOM      6  C   UNL     1      44.022   5.770  11.450  0.00  0.00    +0.000 A 
ATOM      7  N   UNL     1      44.628   6.950  11.721  0.00  0.00    +0.000 NA
ATOM      8  H   UNL     1      45.944   8.805  12.038  0.00  0.00    +0.000 HD
ENDROOT
BRANCH   5   9
ATOM      9  C   UNL     1      43.919   3.254  11.503  0.00  0.00    +0.000 C 
ATOM     10  N   UNL     1      43.669   2.380  12.522  0.00  0.00    +0.000 N 
ATOM     11  O   UNL     1      43.660   2.960  10.344  0.00  0.00    +0.000 OA
ATOM     12  H   UNL     1      44.068   2.460  13.447  0.00  0.00    +0.000 HD
ATOM     13  H   UNL     1      43.333   1.465  12.242  0.00  0.00    +0.000 HD
ENDBRANCH   5   9
BRANCH   1  14
ATOM     14  C   UNL     1      47.886   8.207  12.754  0.00  0.00    +0.000 C 
ATOM     15  C   UNL     1      48.835   7.736  11.665  0.00  0.00    +0.000 C 
ATOM     16  C   UNL     1      48.577   9.196  11.819  0.00  0.00    +0.000 C 
BRANCH  14  19
ATOM     17  C   UNL     1      49.616   6.963  15.932  0.00  0.00    +0.000 A 
ATOM     18  C   UNL     1      49.190   7.023  14.614  0.00  0.00    +0.000 A 
ATOM     19  C   UNL     1      48.378   8.088  14.194  0.00  0.00    +0.000 A 
ATOM     20  C   UNL     1      48.033   9.039  15.163  0.00  0.00    +0.000 A 
ATOM     21  C   UNL     1      48.518   8.904  16.455  0.00  0.00    +0.000 A 
ATOM     22  N   UNL     1      49.306   7.890  16.860  0.00  0.00    +0.000 NA
BRANCH  17  24
ATOM     23  C   UNL     1      50.021   5.318  17.542  0.00  0.00    +0.000 C 
ATOM     24  O   UNL     1      50.391   5.875  16.283  0.00  0.00    +0.000 OA
ENDBRANCH  17  24
ENDBRANCH  14  19
ENDBRANCH   1  14
TORSDOF 4
ENDMDL
