MODEL 1
REMARK VINA RESULT:    -9.342      0.000      0.000
REMARK INTER + INTRA:         -12.201
REMARK INTER:                 -11.527
REMARK INTRA:                  -0.675
REMARK UNBOUND:                -0.675
REMARK  Name = 
REMARK  6 active torsions:
REMARK  status: ('A' for Active; 'I' for Inactive)
REMARK    1  A    between atoms: C_1  and  C_2
REMARK    2  A    between atoms: C_9  and  C_10
REMARK    3  A    between atoms: C_10  and  N_11
REMARK    4  A    between atoms: N_11  and  C_12
REMARK    5  A    between atoms: C_15  and  C_16
REMARK    6  A    between atoms: C_25  and  C_26
REMARK                            x       y       z     vdW  Elec       q    Type
REMARK                         _______ _______ _______ _____ _____    ______ ____
ROOT
ATOM      1  C   UNL     1      43.918   5.008  11.321  0.00  0.00    +0.000 C 
ATOM      2  C   UNL     1      43.372   6.402  11.114  0.00  0.00    +0.000 C 
ATOM      3  C   UNL     1      42.558   5.437  11.903  0.00  0.00    +0.000 C 
ENDROOT
BRANCH   1  12
ATOM      4  C   UNL     1      49.492   7.170  11.682  0.00  0.00    +0.000 C 
ATOM      5  C   UNL     1      49.309   8.125  12.866  0.00  0.00    +0.000 C 
ATOM      6  C   UNL     1      48.600   7.459  14.078  0.00  0.00    +0.000 C 
ATOM      7  N   UNL     1      47.158   7.330  13.871  0.00  0.00    +0.000 N 
ATOM      8  C   UNL     1      46.683   6.092  13.486  0.00  0.00    +0.000 A 
ATOM      9  N   UNL     1      47.348   4.971  13.798  0.00  0.00    +0.000 NA
ATOM     10  C   UNL     1      46.834   3.802  13.371  0.00  0.00    +0.000 A 
ATOM     11  C   UNL     1      45.699   3.708  12.605  0.00  0.00    +0.000 A 
ATOM     12  C   UNL     1      45.080   4.901  12.305  0.00  0.00    +0.000 A 
ATOM     13  N   UNL     1      45.541   6.065  12.801  0.00  0.00    +0.000 NA
ATOM     14  C   UNL     1      46.473   8.526  13.348  0.00  0.00    +0.000 C 
ATOM     15  C   UNL     1      47.224   9.162  12.147  0.00  0.00    +0.000 C 
ATOM     16  C   UNL     1      46.595  10.509  11.781  0.00  0.00    +0.000 C 
ATOM     17  N   UNL     1      48.663   9.388  12.430  0.00  0.00    +0.000 NA
ATOM     18  H   UNL     1      48.724  10.047  13.209  0.00  0.00    +0.000 HD
ENDBRANCH   1  12
BRANCH   1  19
ATOM     19  N   UNL     1      43.749   3.842  10.447  0.00  0.00    +0.000 N 
ATOM     20  H   UNL     1      43.313   3.060  10.931  0.00  0.00    +0.000 HD
BRANCH  19  21
ATOM     21  C   UNL     1      44.624   3.394   9.450  0.00  0.00    +0.000 A 
ATOM     22  C   UNL     1      45.014   2.065   9.262  0.00  0.00    +0.000 A 
ATOM     23  C   UNL     1      45.973   1.735   8.298  0.00  0.00    +0.000 A 
ATOM     24  C   UNL     1      46.579   2.736   7.514  0.00  0.00    +0.000 A 
ATOM     25  C   UNL     1      46.233   4.068   7.731  0.00  0.00    +0.000 A 
ATOM     26  C   UNL     1      45.271   4.384   8.691  0.00  0.00    +0.000 A 
BRANCH  24  27
ATOM     27  C   UNL     1      47.620   2.364   6.524  0.00  0.00    +0.000 C 
ATOM     28  N   UNL     1      47.699   3.121   5.381  0.00  0.00    +0.000 N 
ATOM     29  O   UNL     1      48.368   1.417   6.702  0.00  0.00    +0.000 OA
ATOM     30  H   UNL     1      46.984   3.774   5.097  0.00  0.00    +0.000 HD
ATOM     31  H   UNL     1      48.373   2.825   4.688  0.00  0.00    +0.000 HD
ENDBRANCH  24  27
ENDBRANCH  19  21
ENDBRANCH   1  19
TORSDOF 4
ENDMDL
MODEL 2
REMARK VINA RESULT:    -7.106      3.430      6.092
REMARK INTER + INTRA:          -9.442
REMARK INTER:                  -8.837
REMARK INTRA:                  -0.605
REMARK UNBOUND:                -0.675
REMARK  Name = 
REMARK  6 active torsions:
REMARK  status: ('A' for Active; 'I' for Inactive)
REMARK    1  A    between atoms: C_1  and  C_2
REMARK    2  A    between atoms: C_9  and  C_10
REMARK    3  A    between atoms: C_10  and  N_11
REMARK    4  A    between atoms: N_11  and  C_12
REMARK    5  A    between atoms: C_15  and  C_16
REMARK    6  A    between atoms: C_25  and  C_26
REMARK                            x       y       z     vdW  Elec       q    Type
REMARK                         _______ _______ _______ _____ _____    ______ ____
ROOT
ATOM      1  C   UNL     1      48.077   7.577  13.476  0.00  0.00    +0.000 C 
ATOM      2  C   UNL     1      49.164   6.996  12.602  0.00  0.00    +0.000 C 
ATOM      3  C   UNL     1      48.674   8.368  12.296  0.00  0.00    +0.000 C 
ENDROOT
BRANCH   1  12
ATOM      4  C   UNL     1      46.839   5.897  19.090  0.00  0.00    +0.000 C 
ATOM      5  C   UNL     1      48.187   5.270  19.462  0.00  0.00    +0.000 C 
ATOM      6  C   UNL     1      49.397   6.184  19.119  0.00  0.00    +0.000 C 
ATOM      7  N   UNL     1      49.708   6.174  17.690  0.00  0.00    +0.000 N 
ATOM      8  C   UNL     1      49.262   7.243  16.939  0.00  0.00    +0.000 A 
ATOM      9  N   UNL     1      49.054   8.443  17.501  0.00  0.00    +0.000 NA
ATOM     10  C   UNL     1      48.599   9.432  16.708  0.00  0.00    +0.000 A 
ATOM     11  C   UNL     1      48.301   9.262  15.379  0.00  0.00    +0.000 A 
ATOM     12  C   UNL     1      48.518   7.999  14.875  0.00  0.00    +0.000 A 
ATOM     13  N   UNL     1      49.054   7.030  15.641  0.00  0.00    +0.000 NA
ATOM     14  C   UNL     1      49.749   4.848  17.049  0.00  0.00    +0.000 C 
ATOM     15  C   UNL     1      48.528   3.967  17.430  0.00  0.00    +0.000 C 
ATOM     16  C   UNL     1      48.723   2.538  16.916  0.00  0.00    +0.000 C 
ATOM     17  N   UNL     1      48.306   3.903  18.895  0.00  0.00    +0.000 NA
ATOM     18  H   UNL     1      49.133   3.471  19.313  0.00  0.00    +0.000 HD
ENDBRANCH   1  12
BRANCH   1  19
ATOM     19  N   UNL     1      46.625   7.440  13.309  0.00  0.00    +0.000 N 
ATOM     20  H   UNL     1      46.108   7.927  14.038  0.00  0.00    +0.000 HD
BRANCH  19  21
ATOM     21  C   UNL     1      45.925   6.313  12.861  0.00  0.00    +0.000 A 
ATOM     22  C   UNL     1      45.849   5.093  13.537  0.00  0.00    +0.000 A 
ATOM     23  C   UNL     1      45.206   3.996  12.955  0.00  0.00    +0.000 A 
ATOM     24  C   UNL     1      44.641   4.092  11.668  0.00  0.00    +0.000 A 
ATOM     25  C   UNL     1      44.758   5.290  10.966  0.00  0.00    +0.000 A 
ATOM     26  C   UNL     1      45.397   6.379  11.560  0.00  0.00    +0.000 A 
BRANCH  24  27
ATOM     27  C   UNL     1      43.997   2.903  11.058  0.00  0.00    +0.000 C 
ATOM     28  N   UNL     1      44.609   2.353   9.958  0.00  0.00    +0.000 N 
ATOM     29  O   UNL     1      42.960   2.436  11.498  0.00  0.00    +0.000 OA
ATOM     30  H   UNL     1      45.341   2.815   9.441  0.00  0.00    +0.000 HD
ATOM     31  H   UNL     1      44.132   1.579   9.515  0.00  0.00    +0.000 HD
ENDBRANCH  24  27
ENDBRANCH  19  21
ENDBRANCH   1  19
TORSDOF 4
ENDMDL
MODEL 3
REMARK VINA RESULT:    -6.707      3.364      6.330
REMARK INTER + INTRA:          -8.949
REMARK INTER:                  -8.475
REMARK INTRA:                  -0.474
REMARK UNBOUND:                -0.675
REMARK  Name = 
REMARK  6 active torsions:
REMARK  status: ('A' for Active; 'I' for Inactive)
REMARK    1  A    between atoms: C_1  and  C_2
REMARK    2  A    between atoms: C_9  and  C_10
REMARK    3  A    between atoms: C_10  and  N_11
REMARK    4  A    between atoms: N_11  and  C_12
REMARK    5  A    between atoms: C_15  and  C_16
REMARK    6  A    between atoms: C_25  and  C_26
REMARK                            x       y       z     vdW  Elec       q    Type
REMARK                         _______ _______ _______ _____ _____    ______ ____
ROOT
ATOM      1  C   UNL     1      48.901   7.600  13.262  0.00  0.00    +0.000 C 
ATOM      2  C   UNL     1      49.725   7.282  12.035  0.00  0.00    +0.000 C 
ATOM      3  C   UNL     1      49.162   8.653  12.167  0.00  0.00    +0.000 C 
ENDROOT
BRANCH   1  12
ATOM      4  C   UNL     1      47.708   7.240  19.119  0.00  0.00    +0.000 C 
ATOM      5  C   UNL     1      48.485   5.962  19.451  0.00  0.00    +0.000 C 
ATOM      6  C   UNL     1      49.940   5.976  18.901  0.00  0.00    +0.000 C 
ATOM      7  N   UNL     1      49.988   5.716  17.463  0.00  0.00    +0.000 N 
ATOM      8  C   UNL     1      50.140   6.805  16.629  0.00  0.00    +0.000 A 
ATOM      9  N   UNL     1      50.741   7.924  17.058  0.00  0.00    +0.000 NA
ATOM     10  C   UNL     1      50.834   8.953  16.193  0.00  0.00    +0.000 A 
ATOM     11  C   UNL     1      50.313   8.925  14.924  0.00  0.00    +0.000 A 
ATOM     12  C   UNL     1      49.693   7.751  14.559  0.00  0.00    +0.000 A 
ATOM     13  N   UNL     1      49.672   6.691  15.388  0.00  0.00    +0.000 NA
ATOM     14  C   UNL     1      49.170   4.587  16.985  0.00  0.00    +0.000 C 
ATOM     15  C   UNL     1      47.732   4.609  17.569  0.00  0.00    +0.000 C 
ATOM     16  C   UNL     1      46.996   3.313  17.215  0.00  0.00    +0.000 C 
ATOM     17  N   UNL     1      47.717   4.758  19.044  0.00  0.00    +0.000 NA
ATOM     18  H   UNL     1      48.193   3.945  19.440  0.00  0.00    +0.000 HD
ENDBRANCH   1  12
BRANCH   1  19
ATOM     19  N   UNL     1      47.458   7.409  13.446  0.00  0.00    +0.000 N 
ATOM     20  H   UNL     1      47.159   7.631  14.393  0.00  0.00    +0.000 HD
BRANCH  19  21
ATOM     21  C   UNL     1      46.657   6.407  12.885  0.00  0.00    +0.000 A 
ATOM     22  C   UNL     1      45.855   6.560  11.750  0.00  0.00    +0.000 A 
ATOM     23  C   UNL     1      45.015   5.525  11.329  0.00  0.00    +0.000 A 
ATOM     24  C   UNL     1      44.943   4.317  12.050  0.00  0.00    +0.000 A 
ATOM     25  C   UNL     1      45.700   4.176  13.211  0.00  0.00    +0.000 A 
ATOM     26  C   UNL     1      46.539   5.214  13.618  0.00  0.00    +0.000 A 
BRANCH  24  27
ATOM     27  C   UNL     1      44.015   3.249  11.603  0.00  0.00    +0.000 C 
ATOM     28  N   UNL     1      43.750   2.235  12.491  0.00  0.00    +0.000 N 
ATOM     29  O   UNL     1      43.516   3.254  10.489  0.00  0.00    +0.000 OA
ATOM     30  H   UNL     1      44.285   2.080  13.331  0.00  0.00    +0.000 HD
ATOM     31  H   UNL     1      43.162   1.483  12.157  0.00  0.00    +0.000 HD
ENDBRANCH  24  27
ENDBRANCH  19  21
ENDBRANCH   1  19
TORSDOF 4
ENDMDL
