MODEL 1
REMARK VINA RESULT:    -9.068      0.000      0.000
REMARK INTER + INTRA:         -11.856
REMARK INTER:                 -11.189
REMARK INTRA:                  -0.667
REMARK UNBOUND:                -0.667
REMARK  Name = 
REMARK  4 active torsions:
REMARK  status: ('A' for Active; 'I' for Inactive)
REMARK    1  A    between atoms: C_2  and  C_4
REMARK    2  A    between atoms: N_8  and  C_9
REMARK    3  A    between atoms: C_9  and  C_10
REMARK    4  A    between atoms: C_14  and  C_15
REMARK                            x       y       z     vdW  Elec       q    Type
REMARK                         _______ _______ _______ _____ _____    ______ ____
ROOT
ATOM      1  C   UNL     1      46.412   2.267   7.632  0.00  0.00    +0.000 A 
ATOM      2  C   UNL     1      45.690   1.830   8.737  0.00  0.00    +0.000 A 
ATOM      3  C   UNL     1      44.903   2.746   9.439  0.00  0.00    +0.000 A 
ATOM      4  C   UNL     1      44.861   4.077   9.036  0.00  0.00    +0.000 A 
ATOM      5  N   UNL     1      44.055   5.027   9.615  0.00  0.00    +0.000 N 
ATOM      6  N   UNL     1      45.577   4.512   7.980  0.00  0.00    +0.000 NA
ATOM      7  C   UNL     1      46.336   3.610   7.305  0.00  0.00    +0.000 A 
ATOM      8  H   UNL     1      44.232   5.932   9.189  0.00  0.00    +0.000 HD
ENDROOT
BRANCH   1  10
ATOM      9  N   UNL     1      48.283   1.942   6.116  0.00  0.00    +0.000 N 
ATOM     10  C   UNL     1      47.254   1.371   6.814  0.00  0.00    +0.000 C 
ATOM     11  O   UNL     1      47.063   0.163   6.787  0.00  0.00    +0.000 OA
ATOM     12  H   UNL     1      48.913   1.305   5.643  0.00  0.00    +0.000 HD
ATOM     13  H   UNL     1      48.624   2.873   6.309  0.00  0.00    +0.000 HD
ENDBRANCH   1  10
BRANCH   5  14
ATOM     14  C   UNL     1      43.697   5.041  11.018  0.00  0.00    +0.000 C 
BRANCH  14  15
ATOM     15  C   UNL     1      44.858   5.085  11.978  0.00  0.00    +0.000 A 
ATOM     16  C   UNL     1      44.836   4.226  13.074  0.00  0.00    +0.000 A 
ATOM     17  N   UNL     1      45.794   4.169  14.020  0.00  0.00    +0.000 NA
ATOM     18  C   UNL     1      46.839   5.018  13.875  0.00  0.00    +0.000 A 
ATOM     19  C   UNL     1      46.989   5.940  12.837  0.00  0.00    +0.000 A 
ATOM     20  C   UNL     1      45.958   5.950  11.879  0.00  0.00    +0.000 A 
BRANCH  19  21
ATOM     21  C   UNL     1      48.152   6.848  12.753  0.00  0.00    +0.000 A 
ATOM     22  C   UNL     1      48.469   7.554  11.583  0.00  0.00    +0.000 A 
ATOM     23  C   UNL     1      49.569   8.411  11.539  0.00  0.00    +0.000 A 
ATOM     24  C   UNL     1      50.346   8.542  12.675  0.00  0.00    +0.000 A 
ATOM     25  N   UNL     1      50.095   7.887  13.824  0.00  0.00    +0.000 NA
ATOM     26  C   UNL     1      49.012   7.068  13.835  0.00  0.00    +0.000 A 
ENDBRANCH  19  21
ENDBRANCH  14  15
ENDBRANCH   5  14
TORSDOF 4
ENDMDL
MODEL 2
REMARK VINA RESULT:    -8.603      1.902      2.979
REMARK INTER + INTRA:         -11.282
REMARK INTER:                 -10.580
REMARK INTRA:                  -0.701
REMARK UNBOUND:                -0.667
REMARK  Name = 
REMARK  4 active torsions:
REMARK  status: ('A' for Active; 'I' for Inactive)
REMARK    1  A    between atoms: C_2  and  C_4
REMARK    2  A    between atoms: N_8  and  C_9
REMARK    3  A    between atoms: C_9  and  C_10
REMARK    4  A    between atoms: C_14  and  C_15
REMARK                            x       y       z     vdW  Elec       q    Type
REMARK                         _______ _______ _______ _____ _____    ______ ____
ROOT
ATOM      1  C   UNL     1      46.363   2.238   7.672  0.00  0.00    +0.000 A 
ATOM      2  C   UNL     1      45.690   1.823   8.815  0.00  0.00    +0.000 A 
ATOM      3  C   UNL     1      44.850   2.723   9.475  0.00  0.00    +0.000 A 
ATOM      4  C   UNL     1      44.707   4.020   8.992  0.00  0.00    +0.000 A 
ATOM      5  N   UNL     1      43.844   4.946   9.526  0.00  0.00    +0.000 N 
ATOM      6  N   UNL     1      45.374   4.437   7.897  0.00  0.00    +0.000 NA
ATOM      7  C   UNL     1      46.186   3.549   7.264  0.00  0.00    +0.000 A 
ATOM      8  H   UNL     1      43.949   5.831   9.042  0.00  0.00    +0.000 HD
ENDROOT
BRANCH   1  10
ATOM      9  N   UNL     1      48.305   1.940   6.243  0.00  0.00    +0.000 N 
ATOM     10  C   UNL     1      47.254   1.354   6.894  0.00  0.00    +0.000 C 
ATOM     11  O   UNL     1      47.083   0.144   6.861  0.00  0.00    +0.000 OA
ATOM     12  H   UNL     1      48.965   1.311   5.800  0.00  0.00    +0.000 HD
ATOM     13  H   UNL     1      48.622   2.876   6.449  0.00  0.00    +0.000 HD
ENDBRANCH   1  10
BRANCH   5  14
ATOM     14  C   UNL     1      43.507   5.022  10.932  0.00  0.00    +0.000 C 
BRANCH  14  15
ATOM     15  C   UNL     1      44.583   5.592  11.822  0.00  0.00    +0.000 A 
ATOM     16  C   UNL     1      44.943   6.925  11.644  0.00  0.00    +0.000 A 
ATOM     17  N   UNL     1      45.898   7.559  12.352  0.00  0.00    +0.000 NA
ATOM     18  C   UNL     1      46.539   6.829  13.295  0.00  0.00    +0.000 A 
ATOM     19  C   UNL     1      46.292   5.482  13.575  0.00  0.00    +0.000 A 
ATOM     20  C   UNL     1      45.282   4.876  12.804  0.00  0.00    +0.000 A 
BRANCH  19  21
ATOM     21  C   UNL     1      47.045   4.744  14.611  0.00  0.00    +0.000 A 
ATOM     22  C   UNL     1      47.600   5.381  15.731  0.00  0.00    +0.000 A 
ATOM     23  C   UNL     1      48.298   4.653  16.696  0.00  0.00    +0.000 A 
ATOM     24  C   UNL     1      48.437   3.290  16.518  0.00  0.00    +0.000 A 
ATOM     25  N   UNL     1      47.931   2.625  15.461  0.00  0.00    +0.000 NA
ATOM     26  C   UNL     1      47.251   3.361  14.547  0.00  0.00    +0.000 A 
ENDBRANCH  19  21
ENDBRANCH  14  15
ENDBRANCH   5  14
TORSDOF 4
ENDMDL
MODEL 3
REMARK VINA RESULT:    -8.009      2.935      6.840
REMARK INTER + INTRA:         -10.549
REMARK INTER:                 -10.013
REMARK INTRA:                  -0.536
REMARK UNBOUND:                -0.667
REMARK  Name = 
REMARK  4 active torsions:
REMARK  status: ('A' for Active; 'I' for Inactive)
REMARK    1  A    between atoms: C_2  and  C_4
REMARK    2  A    between atoms: N_8  and  C_9
REMARK    3  A    between atoms: C_9  and  C_10
REMARK    4  A    between atoms: C_14  and  C_15
REMARK                            x       y       z     vdW  Elec       q    Type
REMARK                         _______ _______ _______ _____ _____    ______ ____
ROOT
ATOM      1  C   UNL     1      48.307   7.004  13.609  0.00  0.00    +0.000 A 
ATOM      2  C   UNL     1      47.611   5.813  13.433  0.00  0.00    +0.000 A 
ATOM      3  C   UNL     1      46.476   5.803  12.618  0.00  0.00    +0.000 A 
ATOM      4  C   UNL     1      46.051   6.978  12.006  0.00  0.00    +0.000 A 
ATOM      5  N   UNL     1      44.998   7.045  11.126  0.00  0.00    +0.000 N 
ATOM      6  N   UNL     1      46.707   8.141  12.190  0.00  0.00    +0.000 NA
ATOM      7  C   UNL     1      47.811   8.136  12.984  0.00  0.00    +0.000 A 
ATOM      8  H   UNL     1      44.844   8.010  10.850  0.00  0.00    +0.000 HD
ENDROOT
BRANCH   1  10
ATOM      9  N   UNL     1      50.578   7.812  13.908  0.00  0.00    +0.000 N 
ATOM     10  C   UNL     1      49.528   7.110  14.433  0.00  0.00    +0.000 C 
ATOM     11  O   UNL     1      49.587   6.621  15.552  0.00  0.00    +0.000 OA
ATOM     12  H   UNL     1      51.369   7.964  14.524  0.00  0.00    +0.000 HD
ATOM     13  H   UNL     1      50.481   8.432  13.118  0.00  0.00    +0.000 HD
ENDBRANCH   1  10
BRANCH   5  14
ATOM     14  C   UNL     1      43.819   6.208  11.208  0.00  0.00    +0.000 C 
BRANCH  14  15
ATOM     15  C   UNL     1      43.993   4.801  10.696  0.00  0.00    +0.000 A 
ATOM     16  C   UNL     1      43.306   3.778  11.345  0.00  0.00    +0.000 A 
ATOM     17  N   UNL     1      43.380   2.475  11.008  0.00  0.00    +0.000 NA
ATOM     18  C   UNL     1      44.186   2.163   9.967  0.00  0.00    +0.000 A 
ATOM     19  C   UNL     1      44.942   3.080   9.232  0.00  0.00    +0.000 A 
ATOM     20  C   UNL     1      44.821   4.425   9.629  0.00  0.00    +0.000 A 
BRANCH  19  21
ATOM     21  C   UNL     1      45.816   2.662   8.114  0.00  0.00    +0.000 A 
ATOM     22  C   UNL     1      46.116   3.513   7.041  0.00  0.00    +0.000 A 
ATOM     23  C   UNL     1      46.952   3.092   6.005  0.00  0.00    +0.000 A 
ATOM     24  C   UNL     1      47.470   1.812   6.058  0.00  0.00    +0.000 A 
ATOM     25  N   UNL     1      47.211   0.949   7.059  0.00  0.00    +0.000 NA
ATOM     26  C   UNL     1      46.403   1.394   8.054  0.00  0.00    +0.000 A 
ENDBRANCH  19  21
ENDBRANCH  14  15
ENDBRANCH   5  14
TORSDOF 4
ENDMDL
MODEL 4
REMARK VINA RESULT:    -7.957      1.621      2.162
REMARK INTER + INTRA:         -10.484
REMARK INTER:                 -10.308
REMARK INTRA:                  -0.176
REMARK UNBOUND:                -0.667
REMARK  Name = 
REMARK  4 active torsions:
REMARK  status: ('A' for Active; 'I' for Inactive)
REMARK    1  A    between atoms: C_2  and  C_4
REMARK    2  A    between atoms: N_8  and  C_9
REMARK    3  A    between atoms: C_9  and  C_10
REMARK    4  A    between atoms: C_14  and  C_15
REMARK                            x       y       z     vdW  Elec       q    Type
REMARK                         _______ _______ _______ _____ _____    ______ ____
ROOT
ATOM      1  C   UNL     1      46.683   2.496   7.178  0.00  0.00    +0.000 A 
ATOM      2  C   UNL     1      46.274   3.726   7.682  0.00  0.00    +0.000 A 
ATOM      3  C   UNL     1      45.503   3.762   8.846  0.00  0.00    +0.000 A 
ATOM      4  C   UNL     1      45.143   2.574   9.476  0.00  0.00    +0.000 A 
ATOM      5  N   UNL     1      44.458   2.515  10.665  0.00  0.00    +0.000 N 
ATOM      6  N   UNL     1      45.516   1.377   8.981  0.00  0.00    +0.000 NA
ATOM      7  C   UNL     1      46.269   1.358   7.849  0.00  0.00    +0.000 A 
ATOM      8  H   UNL     1      44.266   1.548  10.903  0.00  0.00    +0.000 HD
ENDROOT
BRANCH   1  10
ATOM      9  N   UNL     1      47.354   3.294   4.984  0.00  0.00    +0.000 N 
ATOM     10  C   UNL     1      47.517   2.358   5.968  0.00  0.00    +0.000 C 
ATOM     11  O   UNL     1      48.344   1.463   5.862  0.00  0.00    +0.000 OA
ATOM     12  H   UNL     1      48.003   3.246   4.207  0.00  0.00    +0.000 HD
ATOM     13  H   UNL     1      46.879   4.171   5.138  0.00  0.00    +0.000 HD
ENDBRANCH   1  10
BRANCH   5  14
ATOM     14  C   UNL     1      43.461   3.483  11.075  0.00  0.00    +0.000 C 
BRANCH  14  15
ATOM     15  C   UNL     1      43.990   4.858  11.391  0.00  0.00    +0.000 A 
ATOM     16  C   UNL     1      43.148   5.948  11.185  0.00  0.00    +0.000 A 
ATOM     17  N   UNL     1      43.493   7.232  11.406  0.00  0.00    +0.000 NA
ATOM     18  C   UNL     1      44.749   7.453  11.858  0.00  0.00    +0.000 A 
ATOM     19  C   UNL     1      45.704   6.461  12.099  0.00  0.00    +0.000 A 
ATOM     20  C   UNL     1      45.284   5.141  11.851  0.00  0.00    +0.000 A 
BRANCH  19  21
ATOM     21  C   UNL     1      47.066   6.780  12.577  0.00  0.00    +0.000 A 
ATOM     22  C   UNL     1      47.938   7.610  11.857  0.00  0.00    +0.000 A 
ATOM     23  C   UNL     1      49.214   7.899  12.340  0.00  0.00    +0.000 A 
ATOM     24  C   UNL     1      49.604   7.341  13.543  0.00  0.00    +0.000 A 
ATOM     25  N   UNL     1      48.813   6.532  14.275  0.00  0.00    +0.000 NA
ATOM     26  C   UNL     1      47.575   6.279  13.780  0.00  0.00    +0.000 A 
ENDBRANCH  19  21
ENDBRANCH  14  15
ENDBRANCH   5  14
TORSDOF 4
ENDMDL
MODEL 5
REMARK VINA RESULT:    -7.859      2.864      6.828
REMARK INTER + INTRA:         -10.364
REMARK INTER:                  -9.637
REMARK INTRA:                  -0.727
REMARK UNBOUND:                -0.667
REMARK  Name = 
REMARK  4 active torsions:
REMARK  status: ('A' for Active; 'I' for Inactive)
REMARK    1  A    between atoms: C_2  and  C_4
REMARK    2  A    between atoms: N_8  and  C_9
REMARK    3  A    between atoms: C_9  and  C_10
REMARK    4  A    between atoms: C_14  and  C_15
REMARK                            x       y       z     vdW  Elec       q    Type
REMARK                         _______ _______ _______ _____ _____    ______ ____
ROOT
ATOM      1  C   UNL     1      48.728   7.353  13.008  0.00  0.00    +0.000 A 
ATOM      2  C   UNL     1      48.089   7.754  11.840  0.00  0.00    +0.000 A 
ATOM      3  C   UNL     1      46.737   7.448  11.665  0.00  0.00    +0.000 A 
ATOM      4  C   UNL     1      46.054   6.739  12.648  0.00  0.00    +0.000 A 
ATOM      5  N   UNL     1      44.708   6.464  12.599  0.00  0.00    +0.000 N 
ATOM      6  N   UNL     1      46.672   6.327  13.773  0.00  0.00    +0.000 NA
ATOM      7  C   UNL     1      47.987   6.634  13.931  0.00  0.00    +0.000 A 
ATOM      8  H   UNL     1      44.445   5.896  13.397  0.00  0.00    +0.000 HD
ENDROOT
BRANCH   1  10
ATOM      9  N   UNL     1      50.985   7.785  12.222  0.00  0.00    +0.000 N 
ATOM     10  C   UNL     1      50.146   7.648  13.293  0.00  0.00    +0.000 C 
ATOM     11  O   UNL     1      50.549   7.798  14.438  0.00  0.00    +0.000 OA
ATOM     12  H   UNL     1      51.930   8.088  12.428  0.00  0.00    +0.000 HD
ATOM     13  H   UNL     1      50.650   7.920  11.279  0.00  0.00    +0.000 HD
ENDBRANCH   1  10
BRANCH   5  14
ATOM     14  C   UNL     1      43.975   6.224  11.374  0.00  0.00    +0.000 C 
BRANCH  14  15
ATOM     15  C   UNL     1      44.099   4.830  10.812  0.00  0.00    +0.000 A 
ATOM     16  C   UNL     1      43.379   3.809  11.428  0.00  0.00    +0.000 A 
ATOM     17  N   UNL     1      43.408   2.517  11.046  0.00  0.00    +0.000 NA
ATOM     18  C   UNL     1      44.200   2.215   9.991  0.00  0.00    +0.000 A 
ATOM     19  C   UNL     1      44.985   3.130   9.286  0.00  0.00    +0.000 A 
ATOM     20  C   UNL     1      44.911   4.464   9.730  0.00  0.00    +0.000 A 
BRANCH  19  21
ATOM     21  C   UNL     1      45.841   2.723   8.151  0.00  0.00    +0.000 A 
ATOM     22  C   UNL     1      46.122   3.582   7.079  0.00  0.00    +0.000 A 
ATOM     23  C   UNL     1      46.941   3.171   6.026  0.00  0.00    +0.000 A 
ATOM     24  C   UNL     1      47.462   1.891   6.061  0.00  0.00    +0.000 A 
ATOM     25  N   UNL     1      47.222   1.020   7.060  0.00  0.00    +0.000 NA
ATOM     26  C   UNL     1      46.429   1.455   8.071  0.00  0.00    +0.000 A 
ENDBRANCH  19  21
ENDBRANCH  14  15
ENDBRANCH   5  14
TORSDOF 4
ENDMDL
MODEL 6
REMARK VINA RESULT:    -7.766      3.031      7.201
REMARK INTER + INTRA:         -10.249
REMARK INTER:                  -9.777
REMARK INTRA:                  -0.472
REMARK UNBOUND:                -0.667
REMARK  Name = 
REMARK  4 active torsions:
REMARK  status: ('A' for Active; 'I' for Inactive)
REMARK    1  A    between atoms: C_2  and  C_4
REMARK    2  A    between atoms: N_8  and  C_9
REMARK    3  A    between atoms: C_9  and  C_10
REMARK    4  A    between atoms: C_14  and  C_15
REMARK                            x       y       z     vdW  Elec       q    Type
REMARK                         _______ _______ _______ _____ _____    ______ ____
ROOT
ATOM      1  C   UNL     1      47.923   5.430  15.418  0.00  0.00    +0.000 A 
ATOM      2  C   UNL     1      46.931   4.659  14.822  0.00  0.00    +0.000 A 
ATOM      3  C   UNL     1      46.346   5.105  13.635  0.00  0.00    +0.000 A 
ATOM      4  C   UNL     1      46.749   6.312  13.073  0.00  0.00    +0.000 A 
ATOM      5  N   UNL     1      46.289   6.789  11.869  0.00  0.00    +0.000 N 
ATOM      6  N   UNL     1      47.694   7.076  13.657  0.00  0.00    +0.000 NA
ATOM      7  C   UNL     1      48.257   6.629  14.811  0.00  0.00    +0.000 A 
ATOM      8  H   UNL     1      46.685   7.706  11.690  0.00  0.00    +0.000 HD
ENDROOT
BRANCH   1  10
ATOM      9  N   UNL     1      48.119   5.522  17.838  0.00  0.00    +0.000 N 
ATOM     10  C   UNL     1      48.615   5.033  16.661  0.00  0.00    +0.000 C 
ATOM     11  O   UNL     1      49.572   4.271  16.643  0.00  0.00    +0.000 OA
ATOM     12  H   UNL     1      48.539   5.161  18.686  0.00  0.00    +0.000 HD
ATOM     13  H   UNL     1      47.202   5.936  17.914  0.00  0.00    +0.000 HD
ENDBRANCH   1  10
BRANCH   5  14
ATOM     14  C   UNL     1      44.950   6.562  11.366  0.00  0.00    +0.000 C 
BRANCH  14  15
ATOM     15  C   UNL     1      44.719   5.210  10.740  0.00  0.00    +0.000 A 
ATOM     16  C   UNL     1      43.706   4.410  11.263  0.00  0.00    +0.000 A 
ATOM     17  N   UNL     1      43.400   3.176  10.816  0.00  0.00    +0.000 NA
ATOM     18  C   UNL     1      44.143   2.702   9.790  0.00  0.00    +0.000 A 
ATOM     19  C   UNL     1      45.196   3.385   9.175  0.00  0.00    +0.000 A 
ATOM     20  C   UNL     1      45.466   4.669   9.684  0.00  0.00    +0.000 A 
BRANCH  19  21
ATOM     21  C   UNL     1      45.976   2.794   8.067  0.00  0.00    +0.000 A 
ATOM     22  C   UNL     1      46.332   3.530   6.927  0.00  0.00    +0.000 A 
ATOM     23  C   UNL     1      47.078   2.946   5.902  0.00  0.00    +0.000 A 
ATOM     24  C   UNL     1      47.450   1.622   6.032  0.00  0.00    +0.000 A 
ATOM     25  N   UNL     1      47.133   0.864   7.100  0.00  0.00    +0.000 NA
ATOM     26  C   UNL     1      46.415   1.466   8.082  0.00  0.00    +0.000 A 
ENDBRANCH  19  21
ENDBRANCH  14  15
ENDBRANCH   5  14
TORSDOF 4
ENDMDL
MODEL 7
REMARK VINA RESULT:    -7.605      2.736      6.734
REMARK INTER + INTRA:         -10.050
REMARK INTER:                  -9.376
REMARK INTRA:                  -0.674
REMARK UNBOUND:                -0.667
REMARK  Name = 
REMARK  4 active torsions:
REMARK  status: ('A' for Active; 'I' for Inactive)
REMARK    1  A    between atoms: C_2  and  C_4
REMARK    2  A    between atoms: N_8  and  C_9
REMARK    3  A    between atoms: C_9  and  C_10
REMARK    4  A    between atoms: C_14  and  C_15
REMARK                            x       y       z     vdW  Elec       q    Type
REMARK                         _______ _______ _______ _____ _____    ______ ____
ROOT
ATOM      1  C   UNL     1      49.273   8.008  12.188  0.00  0.00    +0.000 A 
ATOM      2  C   UNL     1      48.021   8.521  11.869  0.00  0.00    +0.000 A 
ATOM      3  C   UNL     1      46.879   7.838  12.293  0.00  0.00    +0.000 A 
ATOM      4  C   UNL     1      47.005   6.655  13.014  0.00  0.00    +0.000 A 
ATOM      5  N   UNL     1      45.943   5.961  13.540  0.00  0.00    +0.000 N 
ATOM      6  N   UNL     1      48.216   6.139  13.307  0.00  0.00    +0.000 NA
ATOM      7  C   UNL     1      49.319   6.815  12.890  0.00  0.00    +0.000 A 
ATOM      8  H   UNL     1      46.274   5.108  13.979  0.00  0.00    +0.000 HD
ENDROOT
BRANCH   1  10
ATOM      9  N   UNL     1      51.703   8.047  12.162  0.00  0.00    +0.000 N 
ATOM     10  C   UNL     1      50.537   8.667  11.803  0.00  0.00    +0.000 C 
ATOM     11  O   UNL     1      50.544   9.708  11.160  0.00  0.00    +0.000 OA
ATOM     12  H   UNL     1      52.557   8.456  11.804  0.00  0.00    +0.000 HD
ATOM     13  H   UNL     1      51.739   7.084  12.461  0.00  0.00    +0.000 HD
ENDBRANCH   1  10
BRANCH   5  14
ATOM     14  C   UNL     1      44.633   5.896  12.926  0.00  0.00    +0.000 C 
BRANCH  14  15
ATOM     15  C   UNL     1      44.410   4.722  12.007  0.00  0.00    +0.000 A 
ATOM     16  C   UNL     1      43.446   3.783  12.366  0.00  0.00    +0.000 A 
ATOM     17  N   UNL     1      43.154   2.678  11.653  0.00  0.00    +0.000 NA
ATOM     18  C   UNL     1      43.861   2.488  10.514  0.00  0.00    +0.000 A 
ATOM     19  C   UNL     1      44.863   3.336  10.037  0.00  0.00    +0.000 A 
ATOM     20  C   UNL     1      45.120   4.475  10.824  0.00  0.00    +0.000 A 
BRANCH  19  21
ATOM     21  C   UNL     1      45.606   3.054   8.790  0.00  0.00    +0.000 A 
ATOM     22  C   UNL     1      46.014   1.759   8.439  0.00  0.00    +0.000 A 
ATOM     23  C   UNL     1      46.706   1.525   7.250  0.00  0.00    +0.000 A 
ATOM     24  C   UNL     1      46.987   2.601   6.430  0.00  0.00    +0.000 A 
ATOM     25  N   UNL     1      46.626   3.866   6.718  0.00  0.00    +0.000 NA
ATOM     26  C   UNL     1      45.948   4.058   7.877  0.00  0.00    +0.000 A 
ENDBRANCH  19  21
ENDBRANCH  14  15
ENDBRANCH   5  14
TORSDOF 4
ENDMDL
MODEL 8
REMARK VINA RESULT:    -7.275      2.856      3.653
REMARK INTER + INTRA:          -9.643
REMARK INTER:                  -9.171
REMARK INTRA:                  -0.472
REMARK UNBOUND:                -0.667
REMARK  Name = 
REMARK  4 active torsions:
REMARK  status: ('A' for Active; 'I' for Inactive)
REMARK    1  A    between atoms: C_2  and  C_4
REMARK    2  A    between atoms: N_8  and  C_9
REMARK    3  A    between atoms: C_9  and  C_10
REMARK    4  A    between atoms: C_14  and  C_15
REMARK                            x       y       z     vdW  Elec       q    Type
REMARK                         _______ _______ _______ _____ _____    ______ ____
ROOT
ATOM      1  C   UNL     1      46.599   2.780   7.091  0.00  0.00    +0.000 A 
ATOM      2  C   UNL     1      46.336   4.019   7.664  0.00  0.00    +0.000 A 
ATOM      3  C   UNL     1      45.632   4.074   8.869  0.00  0.00    +0.000 A 
ATOM      4  C   UNL     1      45.194   2.899   9.472  0.00  0.00    +0.000 A 
ATOM      5  N   UNL     1      44.568   2.851  10.694  0.00  0.00    +0.000 N 
ATOM      6  N   UNL     1      45.426   1.695   8.910  0.00  0.00    +0.000 NA
ATOM      7  C   UNL     1      46.114   1.656   7.738  0.00  0.00    +0.000 A 
ATOM      8  H   UNL     1      44.298   1.896  10.904  0.00  0.00    +0.000 HD
ENDROOT
BRANCH   1  10
ATOM      9  N   UNL     1      48.634   2.147   5.924  0.00  0.00    +0.000 N 
ATOM     10  C   UNL     1      47.353   2.618   5.831  0.00  0.00    +0.000 C 
ATOM     11  O   UNL     1      46.843   2.861   4.747  0.00  0.00    +0.000 OA
ATOM     12  H   UNL     1      49.102   1.944   5.048  0.00  0.00    +0.000 HD
ATOM     13  H   UNL     1      48.994   1.703   6.756  0.00  0.00    +0.000 HD
ENDBRANCH   1  10
BRANCH   5  14
ATOM     14  C   UNL     1      43.690   3.888  11.195  0.00  0.00    +0.000 C 
BRANCH  14  15
ATOM     15  C   UNL     1      44.382   5.123  11.713  0.00  0.00    +0.000 A 
ATOM     16  C   UNL     1      45.367   4.964  12.684  0.00  0.00    +0.000 A 
ATOM     17  N   UNL     1      46.053   5.977  13.249  0.00  0.00    +0.000 NA
ATOM     18  C   UNL     1      45.745   7.226  12.828  0.00  0.00    +0.000 A 
ATOM     19  C   UNL     1      44.774   7.537  11.872  0.00  0.00    +0.000 A 
ATOM     20  C   UNL     1      44.094   6.437  11.318  0.00  0.00    +0.000 A 
BRANCH  19  21
ATOM     21  C   UNL     1      44.480   8.930  11.474  0.00  0.00    +0.000 A 
ATOM     22  C   UNL     1      45.182  10.024  12.002  0.00  0.00    +0.000 A 
ATOM     23  C   UNL     1      44.886  11.327  11.599  0.00  0.00    +0.000 A 
ATOM     24  C   UNL     1      43.878  11.515  10.672  0.00  0.00    +0.000 A 
ATOM     25  N   UNL     1      43.166  10.505  10.136  0.00  0.00    +0.000 NA
ATOM     26  C   UNL     1      43.486   9.251  10.543  0.00  0.00    +0.000 A 
ENDBRANCH  19  21
ENDBRANCH  14  15
ENDBRANCH   5  14
TORSDOF 4
ENDMDL
MODEL 9
REMARK VINA RESULT:    -6.765      3.999      7.919
REMARK INTER + INTRA:          -9.013
REMARK INTER:                  -8.607
REMARK INTRA:                  -0.407
REMARK UNBOUND:                -0.667
REMARK  Name = 
REMARK  4 active torsions:
REMARK  status: ('A' for Active; 'I' for Inactive)
REMARK    1  A    between atoms: C_2  and  C_4
REMARK    2  A    between atoms: N_8  and  C_9
REMARK    3  A    between atoms: C_9  and  C_10
REMARK    4  A    between atoms: C_14  and  C_15
REMARK                            x       y       z     vdW  Elec       q    Type
REMARK                         _______ _______ _______ _____ _____    ______ ____
ROOT
ATOM      1  C   UNL     1      49.586   4.010  17.434  0.00  0.00    +0.000 A 
ATOM      2  C   UNL     1      49.106   5.258  17.053  0.00  0.00    +0.000 A 
ATOM      3  C   UNL     1      48.013   5.330  16.186  0.00  0.00    +0.000 A 
ATOM      4  C   UNL     1      47.430   4.161  15.706  0.00  0.00    +0.000 A 
ATOM      5  N   UNL     1      46.306   4.134  14.917  0.00  0.00    +0.000 N 
ATOM      6  N   UNL     1      47.905   2.948  16.053  0.00  0.00    +0.000 NA
ATOM      7  C   UNL     1      48.967   2.893  16.899  0.00  0.00    +0.000 A 
ATOM      8  H   UNL     1      46.096   3.177  14.652  0.00  0.00    +0.000 HD
ENDROOT
BRANCH   1  10
ATOM      9  N   UNL     1      51.557   2.773  18.133  0.00  0.00    +0.000 N 
ATOM     10  C   UNL     1      50.721   3.831  18.362  0.00  0.00    +0.000 C 
ATOM     11  O   UNL     1      50.927   4.616  19.277  0.00  0.00    +0.000 OA
ATOM     12  H   UNL     1      52.387   2.722  18.713  0.00  0.00    +0.000 HD
ATOM     13  H   UNL     1      51.570   2.266  17.260  0.00  0.00    +0.000 HD
ENDBRANCH   1  10
BRANCH   5  14
ATOM     14  C   UNL     1      45.974   5.154  13.944  0.00  0.00    +0.000 C 
BRANCH  14  15
ATOM     15  C   UNL     1      45.197   4.672  12.746  0.00  0.00    +0.000 A 
ATOM     16  C   UNL     1      43.815   4.554  12.865  0.00  0.00    +0.000 A 
ATOM     17  N   UNL     1      42.998   4.120  11.885  0.00  0.00    +0.000 NA
ATOM     18  C   UNL     1      43.585   3.779  10.714  0.00  0.00    +0.000 A 
ATOM     19  C   UNL     1      44.957   3.834  10.455  0.00  0.00    +0.000 A 
ATOM     20  C   UNL     1      45.757   4.298  11.516  0.00  0.00    +0.000 A 
BRANCH  19  21
ATOM     21  C   UNL     1      45.529   3.428   9.154  0.00  0.00    +0.000 A 
ATOM     22  C   UNL     1      45.749   2.084   8.819  0.00  0.00    +0.000 A 
ATOM     23  C   UNL     1      46.282   1.733   7.578  0.00  0.00    +0.000 A 
ATOM     24  C   UNL     1      46.597   2.743   6.688  0.00  0.00    +0.000 A 
ATOM     25  N   UNL     1      46.414   4.050   6.956  0.00  0.00    +0.000 NA
ATOM     26  C   UNL     1      45.885   4.356   8.168  0.00  0.00    +0.000 A 
ENDBRANCH  19  21
ENDBRANCH  14  15
ENDBRANCH   5  14
TORSDOF 4
ENDMDL
