MODEL 1
REMARK VINA RESULT:    -9.282      0.000      0.000
REMARK INTER + INTRA:         -12.121
REMARK INTER:                 -11.452
REMARK INTRA:                  -0.669
REMARK UNBOUND:                -0.669
REMARK  Name = 
REMARK  4 active torsions:
REMARK  status: ('A' for Active; 'I' for Inactive)
REMARK    1  A    between atoms: C_2  and  C_4
REMARK    2  A    between atoms: N_8  and  C_9
REMARK    3  A    between atoms: C_9  and  C_10
REMARK    4  A    between atoms: C_14  and  C_15
REMARK                            x       y       z     vdW  Elec       q    Type
REMARK                         _______ _______ _______ _____ _____    ______ ____
ROOT
ATOM      1  C   UNL     1      43.413   4.831  10.980  0.00  0.00    +0.000 C 
ENDROOT
BRANCH   1   6
ATOM      2  C   UNL     1      46.372   2.259   7.662  0.00  0.00    +0.000 A 
ATOM      3  C   UNL     1      45.636   1.772   8.736  0.00  0.00    +0.000 A 
ATOM      4  C   UNL     1      44.779   2.635   9.420  0.00  0.00    +0.000 A 
ATOM      5  C   UNL     1      44.684   3.966   9.032  0.00  0.00    +0.000 A 
ATOM      6  N   UNL     1      43.785   4.854   9.579  0.00  0.00    +0.000 N 
ATOM      7  N   UNL     1      45.417   4.454   8.013  0.00  0.00    +0.000 NA
ATOM      8  C   UNL     1      46.251   3.603   7.356  0.00  0.00    +0.000 A 
ATOM      9  H   UNL     1      43.977   5.770   9.183  0.00  0.00    +0.000 HD
BRANCH   2  11
ATOM     10  N   UNL     1      48.301   2.008   6.215  0.00  0.00    +0.000 N 
ATOM     11  C   UNL     1      47.252   1.399   6.847  0.00  0.00    +0.000 C 
ATOM     12  O   UNL     1      47.079   0.190   6.773  0.00  0.00    +0.000 OA
ATOM     13  H   UNL     1      48.965   1.400   5.752  0.00  0.00    +0.000 HD
ATOM     14  H   UNL     1      48.620   2.935   6.466  0.00  0.00    +0.000 HD
ENDBRANCH   2  11
ENDBRANCH   1   6
BRANCH   1  15
ATOM     15  C   UNL     1      44.586   5.035  11.896  0.00  0.00    +0.000 A 
ATOM     16  C   UNL     1      44.748   4.267  13.039  0.00  0.00    +0.000 A 
ATOM     17  N   UNL     1      45.733   4.456  13.942  0.00  0.00    +0.000 NA
ATOM     18  C   UNL     1      46.611   5.458  13.684  0.00  0.00    +0.000 A 
ATOM     19  C   UNL     1      46.576   6.293  12.566  0.00  0.00    +0.000 A 
ATOM     20  C   UNL     1      45.522   6.056  11.670  0.00  0.00    +0.000 A 
BRANCH  19  21
ATOM     21  C   UNL     1      47.577   7.356  12.331  0.00  0.00    +0.000 A 
ATOM     22  C   UNL     1      48.950   7.060  12.221  0.00  0.00    +0.000 A 
ATOM     23  C   UNL     1      49.901   8.061  11.980  0.00  0.00    +0.000 A 
ATOM     24  C   UNL     1      49.495   9.383  11.834  0.00  0.00    +0.000 A 
ATOM     25  C   UNL     1      48.146   9.692  11.938  0.00  0.00    +0.000 A 
ATOM     26  F   UNL     1      47.747  10.962  11.792  0.00  0.00    +0.000 F 
ATOM     27  C   UNL     1      47.198   8.703  12.189  0.00  0.00    +0.000 A 
ENDBRANCH  19  21
ENDBRANCH   1  15
TORSDOF 4
ENDMDL
MODEL 2
REMARK VINA RESULT:    -8.608      4.057      7.045
REMARK INTER + INTRA:         -11.289
REMARK INTER:                 -10.784
REMARK INTRA:                  -0.505
REMARK UNBOUND:                -0.669
REMARK  Name = 
REMARK  4 active torsions:
REMARK  status: ('A' for Active; 'I' for Inactive)
REMARK    1  A    between atoms: C_2  and  C_4
REMARK    2  A    between atoms: N_8  and  C_9
REMARK    3  A    between atoms: C_9  and  C_10
REMARK    4  A    between atoms: C_14  and  C_15
REMARK                            x       y       z     vdW  Elec       q    Type
REMARK                         _______ _______ _______ _____ _____    ______ ____
ROOT
ATOM      1  C   UNL     1      43.683   6.540  11.325  0.00  0.00    +0.000 C 
ENDROOT
BRANCH   1   6
ATOM      2  C   UNL     1      48.278   7.068  13.559  0.00  0.00    +0.000 A 
ATOM      3  C   UNL     1      47.457   5.948  13.504  0.00  0.00    +0.000 A 
ATOM      4  C   UNL     1      46.308   5.985  12.712  0.00  0.00    +0.000 A 
ATOM      5  C   UNL     1      45.993   7.139  12.004  0.00  0.00    +0.000 A 
ATOM      6  N   UNL     1      44.944   7.222  11.116  0.00  0.00    +0.000 N 
ATOM      7  N   UNL     1      46.767   8.239  12.076  0.00  0.00    +0.000 NA
ATOM      8  C   UNL     1      47.881   8.191  12.854  0.00  0.00    +0.000 A 
ATOM      9  H   UNL     1      44.883   8.186  10.801  0.00  0.00    +0.000 HD
BRANCH   2  11
ATOM     10  N   UNL     1      50.584   7.787  13.774  0.00  0.00    +0.000 N 
ATOM     11  C   UNL     1      49.542   7.090  14.321  0.00  0.00    +0.000 C 
ATOM     12  O   UNL     1      49.643   6.547  15.413  0.00  0.00    +0.000 OA
ATOM     13  H   UNL     1      51.408   7.894  14.351  0.00  0.00    +0.000 HD
ATOM     14  H   UNL     1      50.454   8.453  13.023  0.00  0.00    +0.000 HD
ENDBRANCH   2  11
ENDBRANCH   1   6
BRANCH   1  15
ATOM     15  C   UNL     1      43.744   5.083  10.963  0.00  0.00    +0.000 A 
ATOM     16  C   UNL     1      43.060   4.129  11.700  0.00  0.00    +0.000 A 
ATOM     17  N   UNL     1      43.140   2.800  11.475  0.00  0.00    +0.000 NA
ATOM     18  C   UNL     1      43.937   2.404  10.451  0.00  0.00    +0.000 A 
ATOM     19  C   UNL     1      44.666   3.256   9.620  0.00  0.00    +0.000 A 
ATOM     20  C   UNL     1      44.551   4.624   9.911  0.00  0.00    +0.000 A 
BRANCH  19  21
ATOM     21  C   UNL     1      45.502   2.762   8.504  0.00  0.00    +0.000 A 
ATOM     22  C   UNL     1      45.928   3.619   7.470  0.00  0.00    +0.000 A 
ATOM     23  C   UNL     1      46.735   3.160   6.421  0.00  0.00    +0.000 A 
ATOM     24  C   UNL     1      47.143   1.832   6.389  0.00  0.00    +0.000 A 
ATOM     25  C   UNL     1      46.735   0.974   7.400  0.00  0.00    +0.000 A 
ATOM     26  F   UNL     1      47.129  -0.305   7.380  0.00  0.00    +0.000 F 
ATOM     27  C   UNL     1      45.922   1.422   8.439  0.00  0.00    +0.000 A 
ENDBRANCH  19  21
ENDBRANCH   1  15
TORSDOF 4
ENDMDL
MODEL 3
REMARK VINA RESULT:    -8.524      3.947      7.126
REMARK INTER + INTRA:         -11.186
REMARK INTER:                 -10.410
REMARK INTRA:                  -0.775
REMARK UNBOUND:                -0.669
REMARK  Name = 
REMARK  4 active torsions:
REMARK  status: ('A' for Active; 'I' for Inactive)
REMARK    1  A    between atoms: C_2  and  C_4
REMARK    2  A    between atoms: N_8  and  C_9
REMARK    3  A    between atoms: C_9  and  C_10
REMARK    4  A    between atoms: C_14  and  C_15
REMARK                            x       y       z     vdW  Elec       q    Type
REMARK                         _______ _______ _______ _____ _____    ______ ____
ROOT
ATOM      1  C   UNL     1      43.979   6.564  11.506  0.00  0.00    +0.000 C 
ENDROOT
BRANCH   1   6
ATOM      2  C   UNL     1      48.804   7.494  13.001  0.00  0.00    +0.000 A 
ATOM      3  C   UNL     1      48.129   7.969  11.883  0.00  0.00    +0.000 A 
ATOM      4  C   UNL     1      46.765   7.704  11.748  0.00  0.00    +0.000 A 
ATOM      5  C   UNL     1      46.106   6.960  12.720  0.00  0.00    +0.000 A 
ATOM      6  N   UNL     1      44.746   6.749  12.722  0.00  0.00    +0.000 N 
ATOM      7  N   UNL     1      46.760   6.470  13.791  0.00  0.00    +0.000 NA
ATOM      8  C   UNL     1      48.089   6.732  13.909  0.00  0.00    +0.000 A 
ATOM      9  H   UNL     1      44.534   6.112  13.485  0.00  0.00    +0.000 HD
BRANCH   2  11
ATOM     10  N   UNL     1      50.736   7.407  14.465  0.00  0.00    +0.000 N 
ATOM     11  C   UNL     1      50.230   7.782  13.250  0.00  0.00    +0.000 C 
ATOM     12  O   UNL     1      50.940   8.295  12.396  0.00  0.00    +0.000 OA
ATOM     13  H   UNL     1      51.735   7.503  14.587  0.00  0.00    +0.000 HD
ATOM     14  H   UNL     1      50.255   6.756  15.073  0.00  0.00    +0.000 HD
ENDBRANCH   2  11
ENDBRANCH   1   6
BRANCH   1  15
ATOM     15  C   UNL     1      43.929   5.128  11.064  0.00  0.00    +0.000 A 
ATOM     16  C   UNL     1      43.136   4.201  11.723  0.00  0.00    +0.000 A 
ATOM     17  N   UNL     1      43.110   2.884  11.427  0.00  0.00    +0.000 NA
ATOM     18  C   UNL     1      43.909   2.474  10.411  0.00  0.00    +0.000 A 
ATOM     19  C   UNL     1      44.741   3.300   9.654  0.00  0.00    +0.000 A 
ATOM     20  C   UNL     1      44.734   4.656  10.017  0.00  0.00    +0.000 A 
BRANCH  19  21
ATOM     21  C   UNL     1      45.575   2.794   8.543  0.00  0.00    +0.000 A 
ATOM     22  C   UNL     1      46.052   3.652   7.532  0.00  0.00    +0.000 A 
ATOM     23  C   UNL     1      46.858   3.181   6.487  0.00  0.00    +0.000 A 
ATOM     24  C   UNL     1      47.213   1.838   6.436  0.00  0.00    +0.000 A 
ATOM     25  C   UNL     1      46.754   0.979   7.424  0.00  0.00    +0.000 A 
ATOM     26  F   UNL     1      47.097  -0.315   7.385  0.00  0.00    +0.000 F 
ATOM     27  C   UNL     1      45.943   1.439   8.458  0.00  0.00    +0.000 A 
ENDBRANCH  19  21
ENDBRANCH   1  15
TORSDOF 4
ENDMDL
MODEL 4
REMARK VINA RESULT:    -8.486      2.356      3.491
REMARK INTER + INTRA:         -11.139
REMARK INTER:                 -10.384
REMARK INTRA:                  -0.755
REMARK UNBOUND:                -0.669
REMARK  Name = 
REMARK  4 active torsions:
REMARK  status: ('A' for Active; 'I' for Inactive)
REMARK    1  A    between atoms: C_2  and  C_4
REMARK    2  A    between atoms: N_8  and  C_9
REMARK    3  A    between atoms: C_9  and  C_10
REMARK    4  A    between atoms: C_14  and  C_15
REMARK                            x       y       z     vdW  Elec       q    Type
REMARK                         _______ _______ _______ _____ _____    ______ ____
ROOT
ATOM      1  C   UNL     1      43.656   4.734  11.202  0.00  0.00    +0.000 C 
ENDROOT
BRANCH   1   6
ATOM      2  C   UNL     1      46.417   2.315   7.609  0.00  0.00    +0.000 A 
ATOM      3  C   UNL     1      45.835   1.797   8.760  0.00  0.00    +0.000 A 
ATOM      4  C   UNL     1      44.998   2.611   9.525  0.00  0.00    +0.000 A 
ATOM      5  C   UNL     1      44.770   3.926   9.137  0.00  0.00    +0.000 A 
ATOM      6  N   UNL     1      43.874   4.759   9.770  0.00  0.00    +0.000 N 
ATOM      7  N   UNL     1      45.354   4.445   8.040  0.00  0.00    +0.000 NA
ATOM      8  C   UNL     1      46.170   3.643   7.306  0.00  0.00    +0.000 A 
ATOM      9  H   UNL     1      43.958   5.679   9.347  0.00  0.00    +0.000 HD
BRANCH   2  11
ATOM     10  N   UNL     1      48.334   2.130   6.137  0.00  0.00    +0.000 N 
ATOM     11  C   UNL     1      47.263   1.504   6.711  0.00  0.00    +0.000 C 
ATOM     12  O   UNL     1      47.043   0.316   6.523  0.00  0.00    +0.000 OA
ATOM     13  H   UNL     1      48.974   1.544   5.615  0.00  0.00    +0.000 HD
ATOM     14  H   UNL     1      48.689   3.016   6.475  0.00  0.00    +0.000 HD
ENDBRANCH   2  11
ENDBRANCH   1   6
BRANCH   1  15
ATOM     15  C   UNL     1      44.702   5.500  11.962  0.00  0.00    +0.000 A 
ATOM     16  C   UNL     1      45.055   6.790  11.597  0.00  0.00    +0.000 A 
ATOM     17  N   UNL     1      46.041   7.499  12.186  0.00  0.00    +0.000 NA
ATOM     18  C   UNL     1      46.702   6.890  13.204  0.00  0.00    +0.000 A 
ATOM     19  C   UNL     1      46.437   5.607  13.684  0.00  0.00    +0.000 A 
ATOM     20  C   UNL     1      45.410   4.916  13.023  0.00  0.00    +0.000 A 
BRANCH  19  21
ATOM     21  C   UNL     1      47.181   5.007  14.813  0.00  0.00    +0.000 A 
ATOM     22  C   UNL     1      47.130   3.623  15.073  0.00  0.00    +0.000 A 
ATOM     23  C   UNL     1      47.847   3.046  16.130  0.00  0.00    +0.000 A 
ATOM     24  C   UNL     1      48.641   3.844  16.946  0.00  0.00    +0.000 A 
ATOM     25  C   UNL     1      48.704   5.208  16.703  0.00  0.00    +0.000 A 
ATOM     26  F   UNL     1      49.472   5.982  17.481  0.00  0.00    +0.000 F 
ATOM     27  C   UNL     1      47.984   5.788  15.662  0.00  0.00    +0.000 A 
ENDBRANCH  19  21
ENDBRANCH   1  15
TORSDOF 4
ENDMDL
MODEL 5
REMARK VINA RESULT:    -8.416      4.148      7.329
REMARK INTER + INTRA:         -11.053
REMARK INTER:                 -10.694
REMARK INTRA:                  -0.359
REMARK UNBOUND:                -0.669
REMARK  Name = 
REMARK  4 active torsions:
REMARK  status: ('A' for Active; 'I' for Inactive)
REMARK    1  A    between atoms: C_2  and  C_4
REMARK    2  A    between atoms: N_8  and  C_9
REMARK    3  A    between atoms: C_9  and  C_10
REMARK    4  A    between atoms: C_14  and  C_15
REMARK                            x       y       z     vdW  Elec       q    Type
REMARK                         _______ _______ _______ _____ _____    ______ ____
ROOT
ATOM      1  C   UNL     1      45.396   7.088  11.502  0.00  0.00    +0.000 C 
ENDROOT
BRANCH   1   6
ATOM      2  C   UNL     1      47.642   4.837  15.536  0.00  0.00    +0.000 A 
ATOM      3  C   UNL     1      46.542   4.414  14.799  0.00  0.00    +0.000 A 
ATOM      4  C   UNL     1      46.188   5.111  13.642  0.00  0.00    +0.000 A 
ATOM      5  C   UNL     1      46.927   6.222  13.252  0.00  0.00    +0.000 A 
ATOM      6  N   UNL     1      46.715   6.897  12.071  0.00  0.00    +0.000 N 
ATOM      7  N   UNL     1      47.975   6.657  13.977  0.00  0.00    +0.000 NA
ATOM      8  C   UNL     1      48.307   5.972  15.103  0.00  0.00    +0.000 A 
ATOM      9  H   UNL     1      47.326   7.709  12.067  0.00  0.00    +0.000 HD
BRANCH   2  11
ATOM     10  N   UNL     1      47.238   3.992  17.772  0.00  0.00    +0.000 N 
ATOM     11  C   UNL     1      48.120   4.120  16.734  0.00  0.00    +0.000 C 
ATOM     12  O   UNL     1      49.237   3.624  16.783  0.00  0.00    +0.000 OA
ATOM     13  H   UNL     1      47.530   3.405  18.542  0.00  0.00    +0.000 HD
ATOM     14  H   UNL     1      46.245   4.152  17.661  0.00  0.00    +0.000 HD
ENDBRANCH   2  11
ENDBRANCH   1   6
BRANCH   1  15
ATOM     15  C   UNL     1      44.834   5.830  10.904  0.00  0.00    +0.000 A 
ATOM     16  C   UNL     1      43.626   5.306  11.339  0.00  0.00    +0.000 A 
ATOM     17  N   UNL     1      43.108   4.138  10.901  0.00  0.00    +0.000 NA
ATOM     18  C   UNL     1      43.830   3.464   9.971  0.00  0.00    +0.000 A 
ATOM     19  C   UNL     1      45.048   3.885   9.434  0.00  0.00    +0.000 A 
ATOM     20  C   UNL     1      45.540   5.099   9.938  0.00  0.00    +0.000 A 
BRANCH  19  21
ATOM     21  C   UNL     1      45.777   3.113   8.405  0.00  0.00    +0.000 A 
ATOM     22  C   UNL     1      46.330   3.740   7.271  0.00  0.00    +0.000 A 
ATOM     23  C   UNL     1      47.037   3.017   6.302  0.00  0.00    +0.000 A 
ATOM     24  C   UNL     1      47.216   1.646   6.452  0.00  0.00    +0.000 A 
ATOM     25  C   UNL     1      46.681   1.013   7.564  0.00  0.00    +0.000 A 
ATOM     26  F   UNL     1      46.855  -0.306   7.719  0.00  0.00    +0.000 F 
ATOM     27  C   UNL     1      45.966   1.725   8.524  0.00  0.00    +0.000 A 
ENDBRANCH  19  21
ENDBRANCH   1  15
TORSDOF 4
ENDMDL
MODEL 6
REMARK VINA RESULT:    -8.040      2.016      2.512
REMARK INTER + INTRA:         -10.588
REMARK INTER:                 -10.384
REMARK INTRA:                  -0.204
REMARK UNBOUND:                -0.669
REMARK  Name = 
REMARK  4 active torsions:
REMARK  status: ('A' for Active; 'I' for Inactive)
REMARK    1  A    between atoms: C_2  and  C_4
REMARK    2  A    between atoms: N_8  and  C_9
REMARK    3  A    between atoms: C_9  and  C_10
REMARK    4  A    between atoms: C_14  and  C_15
REMARK                            x       y       z     vdW  Elec       q    Type
REMARK                         _______ _______ _______ _____ _____    ______ ____
ROOT
ATOM      1  C   UNL     1      43.440   3.453  11.084  0.00  0.00    +0.000 C 
ENDROOT
BRANCH   1   6
ATOM      2  C   UNL     1      46.658   2.502   7.195  0.00  0.00    +0.000 A 
ATOM      3  C   UNL     1      46.130   3.718   7.616  0.00  0.00    +0.000 A 
ATOM      4  C   UNL     1      45.385   3.764   8.795  0.00  0.00    +0.000 A 
ATOM      5  C   UNL     1      45.169   2.600   9.523  0.00  0.00    +0.000 A 
ATOM      6  N   UNL     1      44.544   2.576  10.749  0.00  0.00    +0.000 N 
ATOM      7  N   UNL     1      45.651   1.413   9.106  0.00  0.00    +0.000 NA
ATOM      8  C   UNL     1      46.371   1.380   7.953  0.00  0.00    +0.000 A 
ATOM      9  H   UNL     1      44.441   1.603  11.023  0.00  0.00    +0.000 HD
BRANCH   2  11
ATOM     10  N   UNL     1      47.363   3.338   5.031  0.00  0.00    +0.000 N 
ATOM     11  C   UNL     1      47.507   2.378   5.994  0.00  0.00    +0.000 C 
ATOM     12  O   UNL     1      48.334   1.483   5.883  0.00  0.00    +0.000 OA
ATOM     13  H   UNL     1      48.024   3.313   4.265  0.00  0.00    +0.000 HD
ATOM     14  H   UNL     1      46.893   4.217   5.208  0.00  0.00    +0.000 HD
ENDBRANCH   2  11
ENDBRANCH   1   6
BRANCH   1  15
ATOM     15  C   UNL     1      43.883   4.859  11.374  0.00  0.00    +0.000 A 
ATOM     16  C   UNL     1      43.027   5.934  11.191  0.00  0.00    +0.000 A 
ATOM     17  N   UNL     1      43.389   7.224  11.355  0.00  0.00    +0.000 NA
ATOM     18  C   UNL     1      44.672   7.452  11.733  0.00  0.00    +0.000 A 
ATOM     19  C   UNL     1      45.631   6.465  11.968  0.00  0.00    +0.000 A 
ATOM     20  C   UNL     1      45.198   5.145  11.770  0.00  0.00    +0.000 A 
BRANCH  19  21
ATOM     21  C   UNL     1      47.011   6.778  12.399  0.00  0.00    +0.000 A 
ATOM     22  C   UNL     1      47.935   7.383  11.524  0.00  0.00    +0.000 A 
ATOM     23  C   UNL     1      49.237   7.698  11.933  0.00  0.00    +0.000 A 
ATOM     24  C   UNL     1      49.642   7.423  13.234  0.00  0.00    +0.000 A 
ATOM     25  C   UNL     1      48.744   6.830  14.110  0.00  0.00    +0.000 A 
ATOM     26  F   UNL     1      49.125   6.568  15.367  0.00  0.00    +0.000 F 
ATOM     27  C   UNL     1      47.452   6.503  13.706  0.00  0.00    +0.000 A 
ENDBRANCH  19  21
ENDBRANCH   1  15
TORSDOF 4
ENDMDL
MODEL 7
REMARK VINA RESULT:    -7.902      2.926      3.672
REMARK INTER + INTRA:         -10.419
REMARK INTER:                  -9.834
REMARK INTRA:                  -0.585
REMARK UNBOUND:                -0.669
REMARK  Name = 
REMARK  4 active torsions:
REMARK  status: ('A' for Active; 'I' for Inactive)
REMARK    1  A    between atoms: C_2  and  C_4
REMARK    2  A    between atoms: N_8  and  C_9
REMARK    3  A    between atoms: C_9  and  C_10
REMARK    4  A    between atoms: C_14  and  C_15
REMARK                            x       y       z     vdW  Elec       q    Type
REMARK                         _______ _______ _______ _____ _____    ______ ____
ROOT
ATOM      1  C   UNL     1      43.637   3.782  11.114  0.00  0.00    +0.000 C 
ENDROOT
BRANCH   1   6
ATOM      2  C   UNL     1      46.732   2.516   7.215  0.00  0.00    +0.000 A 
ATOM      3  C   UNL     1      46.491   3.769   7.768  0.00  0.00    +0.000 A 
ATOM      4  C   UNL     1      45.718   3.863   8.927  0.00  0.00    +0.000 A 
ATOM      5  C   UNL     1      45.190   2.713   9.501  0.00  0.00    +0.000 A 
ATOM      6  N   UNL     1      44.513   2.705  10.700  0.00  0.00    +0.000 N 
ATOM      7  N   UNL     1      45.393   1.498   8.954  0.00  0.00    +0.000 NA
ATOM      8  C   UNL     1      46.144   1.421   7.823  0.00  0.00    +0.000 A 
ATOM      9  H   UNL     1      44.165   1.762  10.851  0.00  0.00    +0.000 HD
BRANCH   2  11
ATOM     10  N   UNL     1      47.420   3.201   4.993  0.00  0.00    +0.000 N 
ATOM     11  C   UNL     1      47.589   2.324   6.028  0.00  0.00    +0.000 C 
ATOM     12  O   UNL     1      48.442   1.447   5.988  0.00  0.00    +0.000 OA
ATOM     13  H   UNL     1      48.084   3.136   4.232  0.00  0.00    +0.000 HD
ATOM     14  H   UNL     1      46.925   4.077   5.101  0.00  0.00    +0.000 HD
ENDBRANCH   2  11
ENDBRANCH   1   6
BRANCH   1  15
ATOM     15  C   UNL     1      44.372   4.897  11.802  0.00  0.00    +0.000 A 
ATOM     16  C   UNL     1      44.217   6.215  11.401  0.00  0.00    +0.000 A 
ATOM     17  N   UNL     1      44.909   7.249  11.924  0.00  0.00    +0.000 NA
ATOM     18  C   UNL     1      45.794   6.953  12.908  0.00  0.00    +0.000 A 
ATOM     19  C   UNL     1      46.036   5.676  13.419  0.00  0.00    +0.000 A 
ATOM     20  C   UNL     1      45.295   4.641  12.827  0.00  0.00    +0.000 A 
BRANCH  19  21
ATOM     21  C   UNL     1      47.001   5.420  14.509  0.00  0.00    +0.000 A 
ATOM     22  C   UNL     1      47.995   6.361  14.846  0.00  0.00    +0.000 A 
ATOM     23  C   UNL     1      48.901   6.132  15.890  0.00  0.00    +0.000 A 
ATOM     24  C   UNL     1      48.825   4.957  16.629  0.00  0.00    +0.000 A 
ATOM     25  C   UNL     1      47.852   4.020  16.312  0.00  0.00    +0.000 A 
ATOM     26  F   UNL     1      47.769   2.889  17.024  0.00  0.00    +0.000 F 
ATOM     27  C   UNL     1      46.957   4.237  15.268  0.00  0.00    +0.000 A 
ENDBRANCH  19  21
ENDBRANCH   1  15
TORSDOF 4
ENDMDL
MODEL 8
REMARK VINA RESULT:    -7.899      2.665      3.284
REMARK INTER + INTRA:         -10.415
REMARK INTER:                  -9.854
REMARK INTRA:                  -0.561
REMARK UNBOUND:                -0.669
REMARK  Name = 
REMARK  4 active torsions:
REMARK  status: ('A' for Active; 'I' for Inactive)
REMARK    1  A    between atoms: C_2  and  C_4
REMARK    2  A    between atoms: N_8  and  C_9
REMARK    3  A    between atoms: C_9  and  C_10
REMARK    4  A    between atoms: C_14  and  C_15
REMARK                            x       y       z     vdW  Elec       q    Type
REMARK                         _______ _______ _______ _____ _____    ______ ____
ROOT
ATOM      1  C   UNL     1      43.570   3.845  11.086  0.00  0.00    +0.000 C 
ENDROOT
BRANCH   1   6
ATOM      2  C   UNL     1      46.665   2.539   7.200  0.00  0.00    +0.000 A 
ATOM      3  C   UNL     1      46.378   3.804   7.702  0.00  0.00    +0.000 A 
ATOM      4  C   UNL     1      45.617   3.916   8.867  0.00  0.00    +0.000 A 
ATOM      5  C   UNL     1      45.146   2.772   9.498  0.00  0.00    +0.000 A 
ATOM      6  N   UNL     1      44.486   2.788  10.707  0.00  0.00    +0.000 N 
ATOM      7  N   UNL     1      45.393   1.544   9.001  0.00  0.00    +0.000 NA
ATOM      8  C   UNL     1      46.132   1.448   7.864  0.00  0.00    +0.000 A 
ATOM      9  H   UNL     1      44.180   1.840  10.903  0.00  0.00    +0.000 HD
BRANCH   2  11
ATOM     10  N   UNL     1      47.371   3.222   4.983  0.00  0.00    +0.000 N 
ATOM     11  C   UNL     1      47.514   2.330   6.010  0.00  0.00    +0.000 C 
ATOM     12  O   UNL     1      48.338   1.428   5.960  0.00  0.00    +0.000 OA
ATOM     13  H   UNL     1      48.032   3.143   4.221  0.00  0.00    +0.000 HD
ATOM     14  H   UNL     1      46.905   4.113   5.100  0.00  0.00    +0.000 HD
ENDBRANCH   2  11
ENDBRANCH   1   6
BRANCH   1  15
ATOM     15  C   UNL     1      44.271   5.039  11.671  0.00  0.00    +0.000 A 
ATOM     16  C   UNL     1      45.171   4.902  12.716  0.00  0.00    +0.000 A 
ATOM     17  N   UNL     1      45.770   5.940  13.337  0.00  0.00    +0.000 NA
ATOM     18  C   UNL     1      45.462   7.181  12.882  0.00  0.00    +0.000 A 
ATOM     19  C   UNL     1      44.588   7.460  11.829  0.00  0.00    +0.000 A 
ATOM     20  C   UNL     1      43.988   6.341  11.232  0.00  0.00    +0.000 A 
BRANCH  19  21
ATOM     21  C   UNL     1      44.309   8.836  11.366  0.00  0.00    +0.000 A 
ATOM     22  C   UNL     1      45.171   9.906  11.679  0.00  0.00    +0.000 A 
ATOM     23  C   UNL     1      44.921  11.208  11.228  0.00  0.00    +0.000 A 
ATOM     24  C   UNL     1      43.804  11.468  10.441  0.00  0.00    +0.000 A 
ATOM     25  C   UNL     1      42.946  10.426  10.122  0.00  0.00    +0.000 A 
ATOM     26  F   UNL     1      41.871  10.667   9.359  0.00  0.00    +0.000 F 
ATOM     27  C   UNL     1      43.183   9.132  10.578  0.00  0.00    +0.000 A 
ENDBRANCH  19  21
ENDBRANCH   1  15
TORSDOF 4
ENDMDL
MODEL 9
REMARK VINA RESULT:    -7.802      4.795      8.105
REMARK INTER + INTRA:         -10.295
REMARK INTER:                  -9.801
REMARK INTRA:                  -0.494
REMARK UNBOUND:                -0.669
REMARK  Name = 
REMARK  4 active torsions:
REMARK  status: ('A' for Active; 'I' for Inactive)
REMARK    1  A    between atoms: C_2  and  C_4
REMARK    2  A    between atoms: N_8  and  C_9
REMARK    3  A    between atoms: C_9  and  C_10
REMARK    4  A    between atoms: C_14  and  C_15
REMARK                            x       y       z     vdW  Elec       q    Type
REMARK                         _______ _______ _______ _____ _____    ______ ____
ROOT
ATOM      1  C   UNL     1      45.322   4.453  13.595  0.00  0.00    +0.000 C 
ENDROOT
BRANCH   1   6
ATOM      2  C   UNL     1      48.938   5.108  17.184  0.00  0.00    +0.000 A 
ATOM      3  C   UNL     1      47.958   4.125  17.100  0.00  0.00    +0.000 A 
ATOM      4  C   UNL     1      47.166   4.051  15.952  0.00  0.00    +0.000 A 
ATOM      5  C   UNL     1      47.356   4.962  14.921  0.00  0.00    +0.000 A 
ATOM      6  N   UNL     1      46.698   4.891  13.713  0.00  0.00    +0.000 N 
ATOM      7  N   UNL     1      48.283   5.936  15.007  0.00  0.00    +0.000 NA
ATOM      8  C   UNL     1      49.045   6.001  16.132  0.00  0.00    +0.000 A 
ATOM      9  H   UNL     1      46.953   5.713  13.175  0.00  0.00    +0.000 HD
BRANCH   2  11
ATOM     10  N   UNL     1      49.951   4.129  19.157  0.00  0.00    +0.000 N 
ATOM     11  C   UNL     1      49.858   5.216  18.333  0.00  0.00    +0.000 C 
ATOM     12  O   UNL     1      50.539   6.216  18.518  0.00  0.00    +0.000 OA
ATOM     13  H   UNL     1      50.663   4.165  19.875  0.00  0.00    +0.000 HD
ATOM     14  H   UNL     1      49.613   3.214  18.887  0.00  0.00    +0.000 HD
ENDBRANCH   2  11
ENDBRANCH   1   6
BRANCH   1  15
ATOM     15  C   UNL     1      44.816   4.504  12.181  0.00  0.00    +0.000 A 
ATOM     16  C   UNL     1      43.640   5.166  11.862  0.00  0.00    +0.000 A 
ATOM     17  N   UNL     1      43.092   5.179  10.629  0.00  0.00    +0.000 NA
ATOM     18  C   UNL     1      43.760   4.505   9.660  0.00  0.00    +0.000 A 
ATOM     19  C   UNL     1      44.959   3.813   9.838  0.00  0.00    +0.000 A 
ATOM     20  C   UNL     1      45.473   3.826  11.144  0.00  0.00    +0.000 A 
BRANCH  19  21
ATOM     21  C   UNL     1      45.650   3.114   8.733  0.00  0.00    +0.000 A 
ATOM     22  C   UNL     1      46.186   3.820   7.638  0.00  0.00    +0.000 A 
ATOM     23  C   UNL     1      46.857   3.165   6.598  0.00  0.00    +0.000 A 
ATOM     24  C   UNL     1      47.017   1.784   6.636  0.00  0.00    +0.000 A 
ATOM     25  C   UNL     1      46.498   1.073   7.709  0.00  0.00    +0.000 A 
ATOM     26  F   UNL     1      46.654  -0.256   7.756  0.00  0.00    +0.000 F 
ATOM     27  C   UNL     1      45.819   1.718   8.739  0.00  0.00    +0.000 A 
ENDBRANCH  19  21
ENDBRANCH   1  15
TORSDOF 4
ENDMDL
