MODEL 1
REMARK VINA RESULT:    -9.541      0.000      0.000
REMARK INTER + INTRA:         -15.740
REMARK INTER:                 -14.282
REMARK INTRA:                  -1.458
REMARK UNBOUND:                -1.458
REMARK  Name = 
REMARK  10 active torsions:
REMARK  status: ('A' for Active; 'I' for Inactive)
REMARK    1  A    between atoms: C_1  and  C_2
REMARK    2  A    between atoms: C_2  and  O_3
REMARK    3  A    between atoms: C_5  and  O_6
REMARK    4  A    between atoms: O_6  and  C_7
REMARK    5  A    between atoms: C_9  and  C_10
REMARK    6  A    between atoms: C_15  and  C_16
REMARK    7  A    between atoms: C_16  and  C_19
REMARK    8  A    between atoms: C_19  and  N_20
REMARK    9  A    between atoms: N_20  and  C_21
REMARK   10  A    between atoms: C_24  and  C_25
REMARK                            x       y       z     vdW  Elec       q    Type
REMARK                         _______ _______ _______ _____ _____    ______ ____
ROOT
ATOM      1  C   UNL     1      46.934   4.756  14.020  0.00  0.00    +0.000 A 
ATOM      2  C   UNL     1      47.690   5.817  13.535  0.00  0.00    +0.000 A 
ATOM      3  C   UNL     1      47.103   6.785  12.704  0.00  0.00    +0.000 A 
ATOM      4  C   UNL     1      45.739   6.664  12.365  0.00  0.00    +0.000 A 
ATOM      5  C   UNL     1      44.970   5.580  12.824  0.00  0.00    +0.000 A 
ATOM      6  C   UNL     1      45.596   4.638  13.657  0.00  0.00    +0.000 A 
ENDROOT
BRANCH   3   7
ATOM      7  C   UNL     1      47.919   7.933  12.160  0.00  0.00    +0.000 C 
ATOM      8  F   UNL     1      48.817   8.438  13.051  0.00  0.00    +0.000 F 
ATOM      9  F   UNL     1      48.645   7.577  11.063  0.00  0.00    +0.000 F 
ATOM     10  F   UNL     1      47.146   8.984  11.772  0.00  0.00    +0.000 F 
ENDBRANCH   3   7
BRANCH   5  11
ATOM     11  C   UNL     1      43.511   5.445  12.389  0.00  0.00    +0.000 C 
ATOM     12  F   UNL     1      42.704   5.173  13.457  0.00  0.00    +0.000 F 
ATOM     13  F   UNL     1      43.042   6.625  11.877  0.00  0.00    +0.000 F 
BRANCH  11  14
ATOM     14  C   UNL     1      43.299   4.347  11.311  0.00  0.00    +0.000 C 
BRANCH  14  15
ATOM     15  N   UNL     1      43.688   4.702   9.937  0.00  0.00    +0.000 N 
ATOM     16  H   UNL     1      43.846   5.699   9.800  0.00  0.00    +0.000 HD
BRANCH  15  17
ATOM     17  C   UNL     1      44.638   3.897   9.294  0.00  0.00    +0.000 A 
ATOM     18  C   UNL     1      44.671   2.497   9.396  0.00  0.00    +0.000 A 
ATOM     19  C   UNL     1      45.580   1.731   8.657  0.00  0.00    +0.000 A 
ATOM     20  C   UNL     1      46.453   2.350   7.760  0.00  0.00    +0.000 A 
ATOM     21  C   UNL     1      46.426   3.740   7.632  0.00  0.00    +0.000 A 
ATOM     22  C   UNL     1      45.520   4.500   8.387  0.00  0.00    +0.000 A 
BRANCH  20  23
ATOM     23  C   UNL     1      47.374   1.491   6.972  0.00  0.00    +0.000 C 
ATOM     24  N   UNL     1      48.535   2.056   6.529  0.00  0.00    +0.000 N 
ATOM     25  O   UNL     1      47.086   0.332   6.687  0.00  0.00    +0.000 OA
ATOM     26  H   UNL     1      48.682   3.054   6.520  0.00  0.00    +0.000 HD
ATOM     27  H   UNL     1      49.088   1.497   5.893  0.00  0.00    +0.000 HD
ENDBRANCH  20  23
ENDBRANCH  15  17
ENDBRANCH  14  15
ENDBRANCH  11  14
ENDBRANCH   5  11
BRANCH   1  28
ATOM     28  O   UNL     1      47.577   3.843  14.818  0.00  0.00    +0.000 OA
BRANCH  28  32
ATOM     29  C   UNL     1      49.198   4.220  19.004  0.00  0.00    +0.000 C 
ATOM     30  C   UNL     1      48.844   4.132  17.529  0.00  0.00    +0.000 C 
ATOM     31  C   UNL     1      47.590   4.947  17.120  0.00  0.00    +0.000 C 
ATOM     32  C   UNL     1      47.181   3.760  16.213  0.00  0.00    +0.000 C 
ATOM     33  C   UNL     1      48.062   2.860  17.109  0.00  0.00    +0.000 C 
BRANCH  30  34
ATOM     34  O   UNL     1      50.031   4.382  16.746  0.00  0.00    +0.000 OA
ATOM     35  H   UNL     1      50.725   3.825  17.135  0.00  0.00    +0.000 HD
ENDBRANCH  30  34
ENDBRANCH  28  32
ENDBRANCH   1  28
TORSDOF 9
ENDMDL
MODEL 2
REMARK VINA RESULT:    -8.686      2.495      4.218
REMARK INTER + INTRA:         -14.460
REMARK INTER:                 -12.980
REMARK INTRA:                  -1.480
REMARK UNBOUND:                -1.458
REMARK  Name = 
REMARK  10 active torsions:
REMARK  status: ('A' for Active; 'I' for Inactive)
REMARK    1  A    between atoms: C_1  and  C_2
REMARK    2  A    between atoms: C_2  and  O_3
REMARK    3  A    between atoms: C_5  and  O_6
REMARK    4  A    between atoms: O_6  and  C_7
REMARK    5  A    between atoms: C_9  and  C_10
REMARK    6  A    between atoms: C_15  and  C_16
REMARK    7  A    between atoms: C_16  and  C_19
REMARK    8  A    between atoms: C_19  and  N_20
REMARK    9  A    between atoms: N_20  and  C_21
REMARK   10  A    between atoms: C_24  and  C_25
REMARK                            x       y       z     vdW  Elec       q    Type
REMARK                         _______ _______ _______ _____ _____    ______ ____
ROOT
ATOM      1  C   UNL     1      47.432   6.904  13.670  0.00  0.00    +0.000 A 
ATOM      2  C   UNL     1      47.892   6.041  14.659  0.00  0.00    +0.000 A 
ATOM      3  C   UNL     1      47.203   4.849  14.937  0.00  0.00    +0.000 A 
ATOM      4  C   UNL     1      46.038   4.541  14.203  0.00  0.00    +0.000 A 
ATOM      5  C   UNL     1      45.545   5.419  13.222  0.00  0.00    +0.000 A 
ATOM      6  C   UNL     1      46.268   6.598  12.972  0.00  0.00    +0.000 A 
ENDROOT
BRANCH   3   7
ATOM      7  C   UNL     1      47.687   3.913  16.019  0.00  0.00    +0.000 C 
ATOM      8  F   UNL     1      47.958   2.655  15.574  0.00  0.00    +0.000 F 
ATOM      9  F   UNL     1      48.833   4.354  16.609  0.00  0.00    +0.000 F 
ATOM     10  F   UNL     1      46.780   3.767  17.024  0.00  0.00    +0.000 F 
ENDBRANCH   3   7
BRANCH   5  11
ATOM     11  C   UNL     1      44.247   5.086  12.487  0.00  0.00    +0.000 C 
ATOM     12  F   UNL     1      44.032   3.737  12.457  0.00  0.00    +0.000 F 
ATOM     13  F   UNL     1      43.165   5.606  13.146  0.00  0.00    +0.000 F 
BRANCH  11  14
ATOM     14  C   UNL     1      44.216   5.629  11.033  0.00  0.00    +0.000 C 
BRANCH  14  15
ATOM     15  N   UNL     1      43.726   4.702  10.001  0.00  0.00    +0.000 N 
ATOM     16  H   UNL     1      43.033   5.113   9.377  0.00  0.00    +0.000 HD
BRANCH  15  17
ATOM     17  C   UNL     1      44.665   3.902   9.336  0.00  0.00    +0.000 A 
ATOM     18  C   UNL     1      44.660   2.498   9.374  0.00  0.00    +0.000 A 
ATOM     19  C   UNL     1      45.560   1.742   8.615  0.00  0.00    +0.000 A 
ATOM     20  C   UNL     1      46.464   2.377   7.761  0.00  0.00    +0.000 A 
ATOM     21  C   UNL     1      46.476   3.773   7.697  0.00  0.00    +0.000 A 
ATOM     22  C   UNL     1      45.578   4.521   8.472  0.00  0.00    +0.000 A 
BRANCH  20  23
ATOM     23  C   UNL     1      47.374   1.530   6.948  0.00  0.00    +0.000 C 
ATOM     24  N   UNL     1      48.506   2.116   6.458  0.00  0.00    +0.000 N 
ATOM     25  O   UNL     1      47.102   0.363   6.685  0.00  0.00    +0.000 OA
ATOM     26  H   UNL     1      48.630   3.117   6.434  0.00  0.00    +0.000 HD
ATOM     27  H   UNL     1      49.048   1.562   5.808  0.00  0.00    +0.000 HD
ENDBRANCH  20  23
ENDBRANCH  15  17
ENDBRANCH  14  15
ENDBRANCH  11  14
ENDBRANCH   5  11
BRANCH   1  28
ATOM     28  O   UNL     1      48.149   8.055  13.460  0.00  0.00    +0.000 OA
BRANCH  28  32
ATOM     29  C   UNL     1      51.740   8.329  10.754  0.00  0.00    +0.000 C 
ATOM     30  C   UNL     1      50.663   8.182  11.815  0.00  0.00    +0.000 C 
ATOM     31  C   UNL     1      49.435   7.345  11.372  0.00  0.00    +0.000 C 
ATOM     32  C   UNL     1      48.537   8.377  12.098  0.00  0.00    +0.000 C 
ATOM     33  C   UNL     1      49.697   9.388  11.951  0.00  0.00    +0.000 C 
BRANCH  30  34
ATOM     34  O   UNL     1      51.278   7.774  13.056  0.00  0.00    +0.000 OA
ATOM     35  H   UNL     1      52.225   7.681  12.861  0.00  0.00    +0.000 HD
ENDBRANCH  30  34
ENDBRANCH  28  32
ENDBRANCH   1  28
TORSDOF 9
ENDMDL
MODEL 3
REMARK VINA RESULT:    -8.581      1.764      2.219
REMARK INTER + INTRA:         -14.303
REMARK INTER:                 -13.356
REMARK INTRA:                  -0.947
REMARK UNBOUND:                -1.458
REMARK  Name = 
REMARK  10 active torsions:
REMARK  status: ('A' for Active; 'I' for Inactive)
REMARK    1  A    between atoms: C_1  and  C_2
REMARK    2  A    between atoms: C_2  and  O_3
REMARK    3  A    between atoms: C_5  and  O_6
REMARK    4  A    between atoms: O_6  and  C_7
REMARK    5  A    between atoms: C_9  and  C_10
REMARK    6  A    between atoms: C_15  and  C_16
REMARK    7  A    between atoms: C_16  and  C_19
REMARK    8  A    between atoms: C_19  and  N_20
REMARK    9  A    between atoms: N_20  and  C_21
REMARK   10  A    between atoms: C_24  and  C_25
REMARK                            x       y       z     vdW  Elec       q    Type
REMARK                         _______ _______ _______ _____ _____    ______ ____
ROOT
ATOM      1  C   UNL     1      47.200   6.141  13.605  0.00  0.00    +0.000 A 
ATOM      2  C   UNL     1      46.854   7.410  13.155  0.00  0.00    +0.000 A 
ATOM      3  C   UNL     1      45.611   7.632  12.542  0.00  0.00    +0.000 A 
ATOM      4  C   UNL     1      44.720   6.550  12.384  0.00  0.00    +0.000 A 
ATOM      5  C   UNL     1      45.068   5.255  12.806  0.00  0.00    +0.000 A 
ATOM      6  C   UNL     1      46.320   5.079  13.419  0.00  0.00    +0.000 A 
ENDROOT
BRANCH   3   7
ATOM      7  C   UNL     1      45.233   9.005  12.037  0.00  0.00    +0.000 C 
ATOM      8  F   UNL     1      44.354   9.662  12.844  0.00  0.00    +0.000 F 
ATOM      9  F   UNL     1      46.313   9.826  11.917  0.00  0.00    +0.000 F 
ATOM     10  F   UNL     1      44.653   8.965  10.806  0.00  0.00    +0.000 F 
ENDBRANCH   3   7
BRANCH   5  11
ATOM     11  C   UNL     1      44.106   4.092  12.565  0.00  0.00    +0.000 C 
ATOM     12  F   UNL     1      44.775   2.902  12.525  0.00  0.00    +0.000 F 
ATOM     13  F   UNL     1      43.218   3.970  13.601  0.00  0.00    +0.000 F 
BRANCH  11  14
ATOM     14  C   UNL     1      43.282   4.247  11.257  0.00  0.00    +0.000 C 
BRANCH  14  15
ATOM     15  N   UNL     1      43.984   4.851  10.114  0.00  0.00    +0.000 N 
ATOM     16  H   UNL     1      44.345   5.785  10.302  0.00  0.00    +0.000 HD
BRANCH  15  17
ATOM     17  C   UNL     1      44.876   4.048   9.391  0.00  0.00    +0.000 A 
ATOM     18  C   UNL     1      44.867   2.644   9.427  0.00  0.00    +0.000 A 
ATOM     19  C   UNL     1      45.715   1.886   8.612  0.00  0.00    +0.000 A 
ATOM     20  C   UNL     1      46.566   2.518   7.705  0.00  0.00    +0.000 A 
ATOM     21  C   UNL     1      46.581   3.913   7.642  0.00  0.00    +0.000 A 
ATOM     22  C   UNL     1      45.737   4.664   8.472  0.00  0.00    +0.000 A 
BRANCH  20  23
ATOM     23  C   UNL     1      47.421   1.668   6.835  0.00  0.00    +0.000 C 
ATOM     24  N   UNL     1      48.461   2.275   6.191  0.00  0.00    +0.000 N 
ATOM     25  O   UNL     1      47.178   0.478   6.662  0.00  0.00    +0.000 OA
ATOM     26  H   UNL     1      48.533   3.278   6.105  0.00  0.00    +0.000 HD
ATOM     27  H   UNL     1      48.953   1.711   5.511  0.00  0.00    +0.000 HD
ENDBRANCH  20  23
ENDBRANCH  15  17
ENDBRANCH  14  15
ENDBRANCH  11  14
ENDBRANCH   5  11
BRANCH   1  28
ATOM     28  O   UNL     1      48.435   5.996  14.185  0.00  0.00    +0.000 OA
BRANCH  28  32
ATOM     29  C   UNL     1      50.763   6.773  17.963  0.00  0.00    +0.000 C 
ATOM     30  C   UNL     1      50.008   6.310  16.729  0.00  0.00    +0.000 C 
ATOM     31  C   UNL     1      50.419   7.029  15.417  0.00  0.00    +0.000 C 
ATOM     32  C   UNL     1      48.919   7.071  15.034  0.00  0.00    +0.000 C 
ATOM     33  C   UNL     1      48.600   6.933  16.540  0.00  0.00    +0.000 C 
BRANCH  30  34
ATOM     34  O   UNL     1      50.028   4.867  16.679  0.00  0.00    +0.000 OA
ATOM     35  H   UNL     1      49.297   4.575  17.249  0.00  0.00    +0.000 HD
ENDBRANCH  30  34
ENDBRANCH  28  32
ENDBRANCH   1  28
TORSDOF 9
ENDMDL
MODEL 4
REMARK VINA RESULT:    -8.194      3.229      4.145
REMARK INTER + INTRA:         -13.724
REMARK INTER:                 -12.335
REMARK INTRA:                  -1.388
REMARK UNBOUND:                -1.458
REMARK  Name = 
REMARK  10 active torsions:
REMARK  status: ('A' for Active; 'I' for Inactive)
REMARK    1  A    between atoms: C_1  and  C_2
REMARK    2  A    between atoms: C_2  and  O_3
REMARK    3  A    between atoms: C_5  and  O_6
REMARK    4  A    between atoms: O_6  and  C_7
REMARK    5  A    between atoms: C_9  and  C_10
REMARK    6  A    between atoms: C_15  and  C_16
REMARK    7  A    between atoms: C_16  and  C_19
REMARK    8  A    between atoms: C_19  and  N_20
REMARK    9  A    between atoms: N_20  and  C_21
REMARK   10  A    between atoms: C_24  and  C_25
REMARK                            x       y       z     vdW  Elec       q    Type
REMARK                         _______ _______ _______ _____ _____    ______ ____
ROOT
ATOM      1  C   UNL     1      46.451   8.344  12.927  0.00  0.00    +0.000 A 
ATOM      2  C   UNL     1      45.685   9.270  12.228  0.00  0.00    +0.000 A 
ATOM      3  C   UNL     1      44.540   8.860  11.527  0.00  0.00    +0.000 A 
ATOM      4  C   UNL     1      44.181   7.495  11.537  0.00  0.00    +0.000 A 
ATOM      5  C   UNL     1      44.963   6.543  12.213  0.00  0.00    +0.000 A 
ATOM      6  C   UNL     1      46.097   6.999  12.906  0.00  0.00    +0.000 A 
ENDROOT
BRANCH   3   7
ATOM      7  C   UNL     1      43.710   9.856  10.753  0.00  0.00    +0.000 C 
ATOM      8  F   UNL     1      44.237  10.185   9.542  0.00  0.00    +0.000 F 
ATOM      9  F   UNL     1      42.454   9.395  10.499  0.00  0.00    +0.000 F 
ATOM     10  F   UNL     1      43.549  11.031  11.423  0.00  0.00    +0.000 F 
ENDBRANCH   3   7
BRANCH   5  11
ATOM     11  C   UNL     1      44.580   5.064  12.154  0.00  0.00    +0.000 C 
ATOM     12  F   UNL     1      45.692   4.270  12.150  0.00  0.00    +0.000 F 
ATOM     13  F   UNL     1      43.881   4.695  13.272  0.00  0.00    +0.000 F 
BRANCH  11  14
ATOM     14  C   UNL     1      43.710   4.712  10.917  0.00  0.00    +0.000 C 
BRANCH  14  15
ATOM     15  N   UNL     1      43.837   3.341  10.400  0.00  0.00    +0.000 N 
ATOM     16  H   UNL     1      42.944   2.899  10.186  0.00  0.00    +0.000 HD
BRANCH  15  17
ATOM     17  C   UNL     1      44.825   3.090   9.439  0.00  0.00    +0.000 A 
ATOM     18  C   UNL     1      45.263   1.802   9.088  0.00  0.00    +0.000 A 
ATOM     19  C   UNL     1      46.183   1.599   8.053  0.00  0.00    +0.000 A 
ATOM     20  C   UNL     1      46.656   2.683   7.312  0.00  0.00    +0.000 A 
ATOM     21  C   UNL     1      46.223   3.971   7.635  0.00  0.00    +0.000 A 
ATOM     22  C   UNL     1      45.310   4.165   8.682  0.00  0.00    +0.000 A 
BRANCH  20  23
ATOM     23  C   UNL     1      47.603   2.412   6.200  0.00  0.00    +0.000 C 
ATOM     24  N   UNL     1      47.481   3.173   5.072  0.00  0.00    +0.000 N 
ATOM     25  O   UNL     1      48.434   1.512   6.268  0.00  0.00    +0.000 OA
ATOM     26  H   UNL     1      46.663   3.732   4.883  0.00  0.00    +0.000 HD
ATOM     27  H   UNL     1      48.049   2.893   4.283  0.00  0.00    +0.000 HD
ENDBRANCH  20  23
ENDBRANCH  15  17
ENDBRANCH  14  15
ENDBRANCH  11  14
ENDBRANCH   5  11
BRANCH   1  28
ATOM     28  O   UNL     1      47.562   8.816  13.581  0.00  0.00    +0.000 OA
BRANCH  28  32
ATOM     29  C   UNL     1      51.387   7.921  11.376  0.00  0.00    +0.000 C 
ATOM     30  C   UNL     1      50.096   8.021  12.169  0.00  0.00    +0.000 C 
ATOM     31  C   UNL     1      48.950   8.768  11.438  0.00  0.00    +0.000 C 
ATOM     32  C   UNL     1      48.603   9.445  12.787  0.00  0.00    +0.000 C 
ATOM     33  C   UNL     1      50.055   9.153  13.229  0.00  0.00    +0.000 C 
BRANCH  30  34
ATOM     34  O   UNL     1      49.757   6.715  12.685  0.00  0.00    +0.000 OA
ATOM     35  H   UNL     1      50.486   6.131  12.417  0.00  0.00    +0.000 HD
ENDBRANCH  30  34
ENDBRANCH  28  32
ENDBRANCH   1  28
TORSDOF 9
ENDMDL
MODEL 5
REMARK VINA RESULT:    -8.167      3.305      5.450
REMARK INTER + INTRA:         -13.683
REMARK INTER:                 -12.426
REMARK INTRA:                  -1.258
REMARK UNBOUND:                -1.458
REMARK  Name = 
REMARK  10 active torsions:
REMARK  status: ('A' for Active; 'I' for Inactive)
REMARK    1  A    between atoms: C_1  and  C_2
REMARK    2  A    between atoms: C_2  and  O_3
REMARK    3  A    between atoms: C_5  and  O_6
REMARK    4  A    between atoms: O_6  and  C_7
REMARK    5  A    between atoms: C_9  and  C_10
REMARK    6  A    between atoms: C_15  and  C_16
REMARK    7  A    between atoms: C_16  and  C_19
REMARK    8  A    between atoms: C_19  and  N_20
REMARK    9  A    between atoms: N_20  and  C_21
REMARK   10  A    between atoms: C_24  and  C_25
REMARK                            x       y       z     vdW  Elec       q    Type
REMARK                         _______ _______ _______ _____ _____    ______ ____
ROOT
ATOM      1  C   UNL     1      45.279   8.517  12.023  0.00  0.00    +0.000 A 
ATOM      2  C   UNL     1      46.650   8.527  12.250  0.00  0.00    +0.000 A 
ATOM      3  C   UNL     1      47.345   7.324  12.458  0.00  0.00    +0.000 A 
ATOM      4  C   UNL     1      46.632   6.107  12.437  0.00  0.00    +0.000 A 
ATOM      5  C   UNL     1      45.240   6.084  12.240  0.00  0.00    +0.000 A 
ATOM      6  C   UNL     1      44.586   7.310  12.031  0.00  0.00    +0.000 A 
ENDROOT
BRANCH   3   7
ATOM      7  C   UNL     1      48.832   7.327  12.719  0.00  0.00    +0.000 C 
ATOM      8  F   UNL     1      49.560   6.717  11.743  0.00  0.00    +0.000 F 
ATOM      9  F   UNL     1      49.335   8.588  12.826  0.00  0.00    +0.000 F 
ATOM     10  F   UNL     1      49.158   6.694  13.880  0.00  0.00    +0.000 F 
ENDBRANCH   3   7
BRANCH   5  11
ATOM     11  C   UNL     1      44.488   4.754  12.285  0.00  0.00    +0.000 C 
ATOM     12  F   UNL     1      45.343   3.714  12.515  0.00  0.00    +0.000 F 
ATOM     13  F   UNL     1      43.603   4.728  13.330  0.00  0.00    +0.000 F 
BRANCH  11  14
ATOM     14  C   UNL     1      43.688   4.466  10.985  0.00  0.00    +0.000 C 
BRANCH  14  15
ATOM     15  N   UNL     1      43.832   3.117  10.417  0.00  0.00    +0.000 N 
ATOM     16  H   UNL     1      42.945   2.674  10.183  0.00  0.00    +0.000 HD
BRANCH  15  17
ATOM     17  C   UNL     1      44.826   2.912   9.451  0.00  0.00    +0.000 A 
ATOM     18  C   UNL     1      45.284   1.644   9.058  0.00  0.00    +0.000 A 
ATOM     19  C   UNL     1      46.209   1.490   8.020  0.00  0.00    +0.000 A 
ATOM     20  C   UNL     1      46.669   2.605   7.317  0.00  0.00    +0.000 A 
ATOM     21  C   UNL     1      46.216   3.875   7.683  0.00  0.00    +0.000 A 
ATOM     22  C   UNL     1      45.298   4.020   8.733  0.00  0.00    +0.000 A 
BRANCH  20  23
ATOM     23  C   UNL     1      47.622   2.386   6.199  0.00  0.00    +0.000 C 
ATOM     24  N   UNL     1      47.533   3.223   5.124  0.00  0.00    +0.000 N 
ATOM     25  O   UNL     1      48.430   1.462   6.216  0.00  0.00    +0.000 OA
ATOM     26  H   UNL     1      46.731   3.814   4.965  0.00  0.00    +0.000 HD
ATOM     27  H   UNL     1      48.103   2.983   4.325  0.00  0.00    +0.000 HD
ENDBRANCH  20  23
ENDBRANCH  15  17
ENDBRANCH  14  15
ENDBRANCH  11  14
ENDBRANCH   5  11
BRANCH   1  28
ATOM     28  O   UNL     1      44.665   9.731  11.839  0.00  0.00    +0.000 OA
BRANCH  28  32
ATOM     29  C   UNL     1      40.802  11.481  10.321  0.00  0.00    +0.000 C 
ATOM     30  C   UNL     1      42.042  10.952  11.021  0.00  0.00    +0.000 C 
ATOM     31  C   UNL     1      43.380  11.362  10.353  0.00  0.00    +0.000 C 
ATOM     32  C   UNL     1      43.893   9.926  10.624  0.00  0.00    +0.000 C 
ATOM     33  C   UNL     1      42.414   9.483  10.689  0.00  0.00    +0.000 C 
BRANCH  30  34
ATOM     34  O   UNL     1      41.940  11.232  12.433  0.00  0.00    +0.000 OA
ATOM     35  H   UNL     1      42.853  11.230  12.768  0.00  0.00    +0.000 HD
ENDBRANCH  30  34
ENDBRANCH  28  32
ENDBRANCH   1  28
TORSDOF 9
ENDMDL
MODEL 6
REMARK VINA RESULT:    -7.764      1.429      2.089
REMARK INTER + INTRA:         -13.079
REMARK INTER:                 -11.856
REMARK INTRA:                  -1.224
REMARK UNBOUND:                -1.458
REMARK  Name = 
REMARK  10 active torsions:
REMARK  status: ('A' for Active; 'I' for Inactive)
REMARK    1  A    between atoms: C_1  and  C_2
REMARK    2  A    between atoms: C_2  and  O_3
REMARK    3  A    between atoms: C_5  and  O_6
REMARK    4  A    between atoms: O_6  and  C_7
REMARK    5  A    between atoms: C_9  and  C_10
REMARK    6  A    between atoms: C_15  and  C_16
REMARK    7  A    between atoms: C_16  and  C_19
REMARK    8  A    between atoms: C_19  and  N_20
REMARK    9  A    between atoms: N_20  and  C_21
REMARK   10  A    between atoms: C_24  and  C_25
REMARK                            x       y       z     vdW  Elec       q    Type
REMARK                         _______ _______ _______ _____ _____    ______ ____
ROOT
ATOM      1  C   UNL     1      48.208   6.072  14.230  0.00  0.00    +0.000 A 
ATOM      2  C   UNL     1      49.133   6.864  13.560  0.00  0.00    +0.000 A 
ATOM      3  C   UNL     1      48.767   7.547  12.389  0.00  0.00    +0.000 A 
ATOM      4  C   UNL     1      47.449   7.416  11.901  0.00  0.00    +0.000 A 
ATOM      5  C   UNL     1      46.512   6.595  12.551  0.00  0.00    +0.000 A 
ATOM      6  C   UNL     1      46.920   5.933  13.722  0.00  0.00    +0.000 A 
ENDROOT
BRANCH   3   7
ATOM      7  C   UNL     1      49.769   8.398  11.646  0.00  0.00    +0.000 C 
ATOM      8  F   UNL     1      49.223   9.497  11.054  0.00  0.00    +0.000 F 
ATOM      9  F   UNL     1      50.754   8.866  12.461  0.00  0.00    +0.000 F 
ATOM     10  F   UNL     1      50.399   7.713  10.652  0.00  0.00    +0.000 F 
ENDBRANCH   3   7
BRANCH   5  11
ATOM     11  C   UNL     1      45.112   6.425  11.963  0.00  0.00    +0.000 C 
ATOM     12  F   UNL     1      44.167   6.988  12.774  0.00  0.00    +0.000 F 
ATOM     13  F   UNL     1      44.999   7.087  10.769  0.00  0.00    +0.000 F 
BRANCH  11  14
ATOM     14  C   UNL     1      44.735   4.939  11.713  0.00  0.00    +0.000 C 
BRANCH  14  15
ATOM     15  N   UNL     1      44.092   4.639  10.424  0.00  0.00    +0.000 N 
ATOM     16  H   UNL     1      43.565   5.420  10.037  0.00  0.00    +0.000 HD
BRANCH  15  17
ATOM     17  C   UNL     1      44.838   3.943   9.463  0.00  0.00    +0.000 A 
ATOM     18  C   UNL     1      45.688   4.566   8.535  0.00  0.00    +0.000 A 
ATOM     19  C   UNL     1      46.485   3.821   7.659  0.00  0.00    +0.000 A 
ATOM     20  C   UNL     1      46.483   2.427   7.721  0.00  0.00    +0.000 A 
ATOM     21  C   UNL     1      45.655   1.787   8.647  0.00  0.00    +0.000 A 
ATOM     22  C   UNL     1      44.850   2.543   9.512  0.00  0.00    +0.000 A 
BRANCH  20  23
ATOM     23  C   UNL     1      47.374   1.681   6.794  0.00  0.00    +0.000 C 
ATOM     24  N   UNL     1      48.401   2.373   6.219  0.00  0.00    +0.000 N 
ATOM     25  O   UNL     1      47.171   0.503   6.518  0.00  0.00    +0.000 OA
ATOM     26  H   UNL     1      48.441   3.381   6.219  0.00  0.00    +0.000 HD
ATOM     27  H   UNL     1      48.919   1.885   5.501  0.00  0.00    +0.000 HD
ENDBRANCH  20  23
ENDBRANCH  15  17
ENDBRANCH  14  15
ENDBRANCH  11  14
ENDBRANCH   5  11
BRANCH   1  28
ATOM     28  O   UNL     1      48.640   5.426  15.362  0.00  0.00    +0.000 OA
BRANCH  28  32
ATOM     29  C   UNL     1      51.169   5.762  19.074  0.00  0.00    +0.000 C 
ATOM     30  C   UNL     1      50.434   5.486  17.773  0.00  0.00    +0.000 C 
ATOM     31  C   UNL     1      50.223   6.735  16.878  0.00  0.00    +0.000 C 
ATOM     32  C   UNL     1      48.798   6.208  16.574  0.00  0.00    +0.000 C 
ATOM     33  C   UNL     1      48.890   5.401  17.888  0.00  0.00    +0.000 C 
BRANCH  30  34
ATOM     34  O   UNL     1      51.043   4.350  17.122  0.00  0.00    +0.000 OA
ATOM     35  H   UNL     1      50.526   4.204  16.312  0.00  0.00    +0.000 HD
ENDBRANCH  30  34
ENDBRANCH  28  32
ENDBRANCH   1  28
TORSDOF 9
ENDMDL
MODEL 7
REMARK VINA RESULT:    -7.489      3.070      3.911
REMARK INTER + INTRA:         -12.669
REMARK INTER:                 -11.274
REMARK INTRA:                  -1.395
REMARK UNBOUND:                -1.458
REMARK  Name = 
REMARK  10 active torsions:
REMARK  status: ('A' for Active; 'I' for Inactive)
REMARK    1  A    between atoms: C_1  and  C_2
REMARK    2  A    between atoms: C_2  and  O_3
REMARK    3  A    between atoms: C_5  and  O_6
REMARK    4  A    between atoms: O_6  and  C_7
REMARK    5  A    between atoms: C_9  and  C_10
REMARK    6  A    between atoms: C_15  and  C_16
REMARK    7  A    between atoms: C_16  and  C_19
REMARK    8  A    between atoms: C_19  and  N_20
REMARK    9  A    between atoms: N_20  and  C_21
REMARK   10  A    between atoms: C_24  and  C_25
REMARK                            x       y       z     vdW  Elec       q    Type
REMARK                         _______ _______ _______ _____ _____    ______ ____
ROOT
ATOM      1  C   UNL     1      47.125   7.651  12.275  0.00  0.00    +0.000 A 
ATOM      2  C   UNL     1      46.271   8.611  11.743  0.00  0.00    +0.000 A 
ATOM      3  C   UNL     1      44.893   8.359  11.647  0.00  0.00    +0.000 A 
ATOM      4  C   UNL     1      44.388   7.119  12.092  0.00  0.00    +0.000 A 
ATOM      5  C   UNL     1      45.244   6.128  12.603  0.00  0.00    +0.000 A 
ATOM      6  C   UNL     1      46.615   6.424  12.686  0.00  0.00    +0.000 A 
ENDROOT
BRANCH   3   7
ATOM      7  C   UNL     1      43.959   9.390  11.058  0.00  0.00    +0.000 C 
ATOM      8  F   UNL     1      42.762   8.879  10.658  0.00  0.00    +0.000 F 
ATOM      9  F   UNL     1      43.664  10.384  11.941  0.00  0.00    +0.000 F 
ATOM     10  F   UNL     1      44.487  10.006   9.964  0.00  0.00    +0.000 F 
ENDBRANCH   3   7
BRANCH   5  11
ATOM     11  C   UNL     1      44.674   4.772  13.019  0.00  0.00    +0.000 C 
ATOM     12  F   UNL     1      45.215   4.355  14.202  0.00  0.00    +0.000 F 
ATOM     13  F   UNL     1      43.327   4.859  13.252  0.00  0.00    +0.000 F 
BRANCH  11  14
ATOM     14  C   UNL     1      44.896   3.667  11.951  0.00  0.00    +0.000 C 
BRANCH  14  15
ATOM     15  N   UNL     1      44.265   3.893  10.641  0.00  0.00    +0.000 N 
ATOM     16  H   UNL     1      43.794   4.793  10.563  0.00  0.00    +0.000 HD
BRANCH  15  17
ATOM     17  C   UNL     1      44.991   3.546   9.493  0.00  0.00    +0.000 A 
ATOM     18  C   UNL     1      45.608   4.483   8.648  0.00  0.00    +0.000 A 
ATOM     19  C   UNL     1      46.402   4.081   7.568  0.00  0.00    +0.000 A 
ATOM     20  C   UNL     1      46.634   2.725   7.333  0.00  0.00    +0.000 A 
ATOM     21  C   UNL     1      46.042   1.777   8.171  0.00  0.00    +0.000 A 
ATOM     22  C   UNL     1      45.237   2.189   9.243  0.00  0.00    +0.000 A 
BRANCH  20  23
ATOM     23  C   UNL     1      47.514   2.350   6.196  0.00  0.00    +0.000 C 
ATOM     24  N   UNL     1      47.369   3.049   5.032  0.00  0.00    +0.000 N 
ATOM     25  O   UNL     1      48.310   1.420   6.280  0.00  0.00    +0.000 OA
ATOM     26  H   UNL     1      46.565   3.631   4.848  0.00  0.00    +0.000 HD
ATOM     27  H   UNL     1      47.885   2.700   4.236  0.00  0.00    +0.000 HD
ENDBRANCH  20  23
ENDBRANCH  15  17
ENDBRANCH  14  15
ENDBRANCH  11  14
ENDBRANCH   5  11
BRANCH   1  28
ATOM     28  O   UNL     1      48.461   7.962  12.328  0.00  0.00    +0.000 OA
BRANCH  28  32
ATOM     29  C   UNL     1      49.353  10.698  15.794  0.00  0.00    +0.000 C 
ATOM     30  C   UNL     1      48.962   9.940  14.537  0.00  0.00    +0.000 C 
ATOM     31  C   UNL     1      48.269   8.577  14.799  0.00  0.00    +0.000 C 
ATOM     32  C   UNL     1      49.102   7.991  13.631  0.00  0.00    +0.000 C 
ATOM     33  C   UNL     1      50.107   9.142  13.860  0.00  0.00    +0.000 C 
BRANCH  30  34
ATOM     34  O   UNL     1      48.258  10.834  13.648  0.00  0.00    +0.000 OA
ATOM     35  H   UNL     1      47.330  10.810  13.933  0.00  0.00    +0.000 HD
ENDBRANCH  30  34
ENDBRANCH  28  32
ENDBRANCH   1  28
TORSDOF 9
ENDMDL
MODEL 8
REMARK VINA RESULT:    -7.462      3.171      4.840
REMARK INTER + INTRA:         -12.629
REMARK INTER:                 -11.514
REMARK INTRA:                  -1.114
REMARK UNBOUND:                -1.458
REMARK  Name = 
REMARK  10 active torsions:
REMARK  status: ('A' for Active; 'I' for Inactive)
REMARK    1  A    between atoms: C_1  and  C_2
REMARK    2  A    between atoms: C_2  and  O_3
REMARK    3  A    between atoms: C_5  and  O_6
REMARK    4  A    between atoms: O_6  and  C_7
REMARK    5  A    between atoms: C_9  and  C_10
REMARK    6  A    between atoms: C_15  and  C_16
REMARK    7  A    between atoms: C_16  and  C_19
REMARK    8  A    between atoms: C_19  and  N_20
REMARK    9  A    between atoms: N_20  and  C_21
REMARK   10  A    between atoms: C_24  and  C_25
REMARK                            x       y       z     vdW  Elec       q    Type
REMARK                         _______ _______ _______ _____ _____    ______ ____
ROOT
ATOM      1  C   UNL     1      48.636   7.421  12.613  0.00  0.00    +0.000 A 
ATOM      2  C   UNL     1      49.026   7.136  13.917  0.00  0.00    +0.000 A 
ATOM      3  C   UNL     1      48.264   6.265  14.711  0.00  0.00    +0.000 A 
ATOM      4  C   UNL     1      47.097   5.686  14.171  0.00  0.00    +0.000 A 
ATOM      5  C   UNL     1      46.674   5.989  12.865  0.00  0.00    +0.000 A 
ATOM      6  C   UNL     1      47.468   6.862  12.103  0.00  0.00    +0.000 A 
ENDROOT
BRANCH   3   7
ATOM      7  C   UNL     1      48.672   5.961  16.133  0.00  0.00    +0.000 C 
ATOM      8  F   UNL     1      48.270   6.902  17.032  0.00  0.00    +0.000 F 
ATOM      9  F   UNL     1      48.159   4.780  16.576  0.00  0.00    +0.000 F 
ATOM     10  F   UNL     1      50.023   5.860  16.277  0.00  0.00    +0.000 F 
ENDBRANCH   3   7
BRANCH   5  11
ATOM     11  C   UNL     1      45.371   5.393  12.331  0.00  0.00    +0.000 C 
ATOM     12  F   UNL     1      45.449   4.032  12.254  0.00  0.00    +0.000 F 
ATOM     13  F   UNL     1      44.331   5.645  13.186  0.00  0.00    +0.000 F 
BRANCH  11  14
ATOM     14  C   UNL     1      44.977   5.951  10.936  0.00  0.00    +0.000 C 
BRANCH  14  15
ATOM     15  N   UNL     1      44.156   5.071  10.090  0.00  0.00    +0.000 N 
ATOM     16  H   UNL     1      43.423   5.561   9.579  0.00  0.00    +0.000 HD
BRANCH  15  17
ATOM     17  C   UNL     1      44.810   4.097   9.324  0.00  0.00    +0.000 A 
ATOM     18  C   UNL     1      45.800   4.389   8.371  0.00  0.00    +0.000 A 
ATOM     19  C   UNL     1      46.492   3.374   7.700  0.00  0.00    +0.000 A 
ATOM     20  C   UNL     1      46.239   2.035   8.002  0.00  0.00    +0.000 A 
ATOM     21  C   UNL     1      45.269   1.723   8.957  0.00  0.00    +0.000 A 
ATOM     22  C   UNL     1      44.572   2.747   9.614  0.00  0.00    +0.000 A 
BRANCH  20  23
ATOM     23  C   UNL     1      47.025   0.995   7.289  0.00  0.00    +0.000 C 
ATOM     24  N   UNL     1      46.788  -0.308   7.620  0.00  0.00    +0.000 N 
ATOM     25  O   UNL     1      47.889   1.292   6.469  0.00  0.00    +0.000 OA
ATOM     26  H   UNL     1      46.285  -0.572   8.454  0.00  0.00    +0.000 HD
ATOM     27  H   UNL     1      47.416  -0.991   7.217  0.00  0.00    +0.000 HD
ENDBRANCH  20  23
ENDBRANCH  15  17
ENDBRANCH  14  15
ENDBRANCH  11  14
ENDBRANCH   5  11
BRANCH   1  28
ATOM     28  O   UNL     1      49.423   8.290  11.899  0.00  0.00    +0.000 OA
BRANCH  28  32
ATOM     29  C   UNL     1      53.290  10.234  10.651  0.00  0.00    +0.000 C 
ATOM     30  C   UNL     1      51.893   9.729  10.965  0.00  0.00    +0.000 C 
ATOM     31  C   UNL     1      51.646   9.412  12.463  0.00  0.00    +0.000 C 
ATOM     32  C   UNL     1      50.864   8.153  12.012  0.00  0.00    +0.000 C 
ATOM     33  C   UNL     1      51.653   8.223  10.685  0.00  0.00    +0.000 C 
BRANCH  30  34
ATOM     34  O   UNL     1      50.926  10.607  10.348  0.00  0.00    +0.000 OA
ATOM     35  H   UNL     1      50.079  10.132  10.385  0.00  0.00    +0.000 HD
ENDBRANCH  30  34
ENDBRANCH  28  32
ENDBRANCH   1  28
TORSDOF 9
ENDMDL
MODEL 9
REMARK VINA RESULT:    -7.244      3.423      6.767
REMARK INTER + INTRA:         -12.302
REMARK INTER:                  -9.931
REMARK INTRA:                  -2.371
REMARK UNBOUND:                -1.458
REMARK  Name = 
REMARK  10 active torsions:
REMARK  status: ('A' for Active; 'I' for Inactive)
REMARK    1  A    between atoms: C_1  and  C_2
REMARK    2  A    between atoms: C_2  and  O_3
REMARK    3  A    between atoms: C_5  and  O_6
REMARK    4  A    between atoms: O_6  and  C_7
REMARK    5  A    between atoms: C_9  and  C_10
REMARK    6  A    between atoms: C_15  and  C_16
REMARK    7  A    between atoms: C_16  and  C_19
REMARK    8  A    between atoms: C_19  and  N_20
REMARK    9  A    between atoms: N_20  and  C_21
REMARK   10  A    between atoms: C_24  and  C_25
REMARK                            x       y       z     vdW  Elec       q    Type
REMARK                         _______ _______ _______ _____ _____    ______ ____
ROOT
ATOM      1  C   UNL     1      46.784   4.149  13.747  0.00  0.00    +0.000 A 
ATOM      2  C   UNL     1      45.927   3.399  12.950  0.00  0.00    +0.000 A 
ATOM      3  C   UNL     1      45.251   3.998  11.875  0.00  0.00    +0.000 A 
ATOM      4  C   UNL     1      45.451   5.371  11.617  0.00  0.00    +0.000 A 
ATOM      5  C   UNL     1      46.291   6.148  12.433  0.00  0.00    +0.000 A 
ATOM      6  C   UNL     1      46.951   5.507  13.495  0.00  0.00    +0.000 A 
ENDROOT
BRANCH   3   7
ATOM      7  C   UNL     1      44.306   3.195  11.013  0.00  0.00    +0.000 C 
ATOM      8  F   UNL     1      43.443   2.418  11.723  0.00  0.00    +0.000 F 
ATOM      9  F   UNL     1      43.530   3.987  10.221  0.00  0.00    +0.000 F 
ATOM     10  F   UNL     1      44.962   2.351  10.169  0.00  0.00    +0.000 F 
ENDBRANCH   3   7
BRANCH   5  11
ATOM     11  C   UNL     1      46.438   7.646  12.165  0.00  0.00    +0.000 C 
ATOM     12  F   UNL     1      47.612   7.916  11.521  0.00  0.00    +0.000 F 
ATOM     13  F   UNL     1      45.456   8.090  11.321  0.00  0.00    +0.000 F 
BRANCH  11  14
ATOM     14  C   UNL     1      46.369   8.503  13.458  0.00  0.00    +0.000 C 
BRANCH  14  15
ATOM     15  N   UNL     1      47.556   9.316  13.764  0.00  0.00    +0.000 N 
ATOM     16  H   UNL     1      47.350  10.305  13.903  0.00  0.00    +0.000 HD
BRANCH  15  17
ATOM     17  C   UNL     1      48.482   8.808  14.685  0.00  0.00    +0.000 A 
ATOM     18  C   UNL     1      48.359   8.952  16.076  0.00  0.00    +0.000 A 
ATOM     19  C   UNL     1      49.259   8.343  16.958  0.00  0.00    +0.000 A 
ATOM     20  C   UNL     1      50.286   7.535  16.465  0.00  0.00    +0.000 A 
ATOM     21  C   UNL     1      50.418   7.367  15.085  0.00  0.00    +0.000 A 
ATOM     22  C   UNL     1      49.518   7.992  14.209  0.00  0.00    +0.000 A 
BRANCH  20  23
ATOM     23  C   UNL     1      51.194   6.881  17.442  0.00  0.00    +0.000 C 
ATOM     24  N   UNL     1      51.858   5.762  17.030  0.00  0.00    +0.000 N 
ATOM     25  O   UNL     1      51.310   7.299  18.590  0.00  0.00    +0.000 OA
ATOM     26  H   UNL     1      51.595   5.251  16.200  0.00  0.00    +0.000 HD
ATOM     27  H   UNL     1      52.373   5.262  17.743  0.00  0.00    +0.000 HD
ENDBRANCH  20  23
ENDBRANCH  15  17
ENDBRANCH  14  15
ENDBRANCH  11  14
ENDBRANCH   5  11
BRANCH   1  28
ATOM     28  O   UNL     1      47.403   3.499  14.786  0.00  0.00    +0.000 OA
BRANCH  28  32
ATOM     29  C   UNL     1      49.171   4.060  18.891  0.00  0.00    +0.000 C 
ATOM     30  C   UNL     1      48.764   3.810  17.449  0.00  0.00    +0.000 C 
ATOM     31  C   UNL     1      47.962   4.967  16.799  0.00  0.00    +0.000 C 
ATOM     32  C   UNL     1      47.057   3.897  16.139  0.00  0.00    +0.000 C 
ATOM     33  C   UNL     1      47.502   2.929  17.259  0.00  0.00    +0.000 C 
BRANCH  30  34
ATOM     34  O   UNL     1      49.918   3.359  16.706  0.00  0.00    +0.000 OA
ATOM     35  H   UNL     1      50.610   4.022  16.869  0.00  0.00    +0.000 HD
ENDBRANCH  30  34
ENDBRANCH  28  32
ENDBRANCH   1  28
TORSDOF 9
ENDMDL
