MODEL 1
REMARK VINA RESULT:    -9.094      0.000      0.000
REMARK INTER + INTRA:         -12.037
REMARK INTER:                 -11.221
REMARK INTRA:                  -0.816
REMARK UNBOUND:                -0.816
REMARK  Name = 
REMARK  4 active torsions:
REMARK  status: ('A' for Active; 'I' for Inactive)
REMARK    1  A    between atoms: C_2  and  C_4
REMARK    2  A    between atoms: N_8  and  C_9
REMARK    3  A    between atoms: C_9  and  C_10
REMARK    4  A    between atoms: C_15  and  C_16
REMARK                            x       y       z     vdW  Elec       q    Type
REMARK                         _______ _______ _______ _____ _____    ______ ____
ROOT
ATOM      1  C   UNL     1      43.447   4.853  11.004  0.00  0.00    +0.000 C 
ENDROOT
BRANCH   1   6
ATOM      2  C   UNL     1      46.398   2.259   7.683  0.00  0.00    +0.000 A 
ATOM      3  C   UNL     1      45.739   1.807   8.823  0.00  0.00    +0.000 A 
ATOM      4  C   UNL     1      44.890   2.677   9.505  0.00  0.00    +0.000 A 
ATOM      5  C   UNL     1      44.725   3.982   9.055  0.00  0.00    +0.000 A 
ATOM      6  N   UNL     1      43.822   4.861   9.605  0.00  0.00    +0.000 N 
ATOM      7  N   UNL     1      45.386   4.438   7.973  0.00  0.00    +0.000 NA
ATOM      8  C   UNL     1      46.212   3.580   7.316  0.00  0.00    +0.000 A 
ATOM      9  H   UNL     1      43.950   5.772   9.176  0.00  0.00    +0.000 HD
BRANCH   2  11
ATOM     10  N   UNL     1      48.326   1.973   6.244  0.00  0.00    +0.000 N 
ATOM     11  C   UNL     1      47.260   1.381   6.871  0.00  0.00    +0.000 C 
ATOM     12  O   UNL     1      47.062   0.177   6.791  0.00  0.00    +0.000 OA
ATOM     13  H   UNL     1      48.978   1.357   5.775  0.00  0.00    +0.000 HD
ATOM     14  H   UNL     1      48.657   2.893   6.500  0.00  0.00    +0.000 HD
ENDBRANCH   2  11
ENDBRANCH   1   6
BRANCH   1  15
ATOM     15  C   UNL     1      44.575   5.293  11.903  0.00  0.00    +0.000 A 
ATOM     16  C   UNL     1      44.950   4.514  13.000  0.00  0.00    +0.000 A 
ATOM     17  C   UNL     1      46.034   4.894  13.777  0.00  0.00    +0.000 A 
ATOM     18  F   UNL     1      46.398   4.131  14.816  0.00  0.00    +0.000 F 
ATOM     19  C   UNL     1      46.761   6.047  13.493  0.00  0.00    +0.000 A 
ATOM     20  C   UNL     1      46.406   6.873  12.415  0.00  0.00    +0.000 A 
ATOM     21  C   UNL     1      45.307   6.464  11.626  0.00  0.00    +0.000 A 
BRANCH  20  22
ATOM     22  C   UNL     1      47.138   8.122  12.110  0.00  0.00    +0.000 A 
ATOM     23  C   UNL     1      48.504   8.147  11.821  0.00  0.00    +0.000 A 
ATOM     24  C   UNL     1      49.137   9.366  11.585  0.00  0.00    +0.000 A 
ATOM     25  C   UNL     1      48.395  10.537  11.639  0.00  0.00    +0.000 A 
ATOM     26  C   UNL     1      47.045  10.437  11.922  0.00  0.00    +0.000 A 
ATOM     27  N   UNL     1      46.408   9.267  12.159  0.00  0.00    +0.000 NA
ENDBRANCH  20  22
ENDBRANCH   1  15
TORSDOF 4
ENDMDL
MODEL 2
REMARK VINA RESULT:    -8.895      2.488      4.144
REMARK INTER + INTRA:         -11.790
REMARK INTER:                 -11.078
REMARK INTRA:                  -0.712
REMARK UNBOUND:                -0.816
REMARK  Name = 
REMARK  4 active torsions:
REMARK  status: ('A' for Active; 'I' for Inactive)
REMARK    1  A    between atoms: C_2  and  C_4
REMARK    2  A    between atoms: N_8  and  C_9
REMARK    3  A    between atoms: C_9  and  C_10
REMARK    4  A    between atoms: C_15  and  C_16
REMARK                            x       y       z     vdW  Elec       q    Type
REMARK                         _______ _______ _______ _____ _____    ______ ____
ROOT
ATOM      1  C   UNL     1      44.104   4.910  11.353  0.00  0.00    +0.000 C 
ENDROOT
BRANCH   1   6
ATOM      2  C   UNL     1      46.486   2.371   7.565  0.00  0.00    +0.000 A 
ATOM      3  C   UNL     1      45.972   1.892   8.766  0.00  0.00    +0.000 A 
ATOM      4  C   UNL     1      45.254   2.756   9.589  0.00  0.00    +0.000 A 
ATOM      5  C   UNL     1      45.075   4.083   9.216  0.00  0.00    +0.000 A 
ATOM      6  N   UNL     1      44.286   4.965   9.917  0.00  0.00    +0.000 N 
ATOM      7  N   UNL     1      45.599   4.565   8.071  0.00  0.00    +0.000 NA
ATOM      8  C   UNL     1      46.298   3.711   7.276  0.00  0.00    +0.000 A 
ATOM      9  H   UNL     1      44.387   5.889   9.509  0.00  0.00    +0.000 HD
BRANCH   2  11
ATOM     10  N   UNL     1      48.194   2.088   5.870  0.00  0.00    +0.000 N 
ATOM     11  C   UNL     1      47.199   1.503   6.610  0.00  0.00    +0.000 C 
ATOM     12  O   UNL     1      46.947   0.311   6.509  0.00  0.00    +0.000 OA
ATOM     13  H   UNL     1      48.755   1.473   5.293  0.00  0.00    +0.000 HD
ATOM     14  H   UNL     1      48.591   2.985   6.115  0.00  0.00    +0.000 HD
ENDBRANCH   2  11
ENDBRANCH   1   6
BRANCH   1  15
ATOM     15  C   UNL     1      45.355   5.289  12.105  0.00  0.00    +0.000 A 
ATOM     16  C   UNL     1      46.140   6.362  11.677  0.00  0.00    +0.000 A 
ATOM     17  C   UNL     1      47.248   6.744  12.417  0.00  0.00    +0.000 A 
ATOM     18  F   UNL     1      47.985   7.785  12.008  0.00  0.00    +0.000 F 
ATOM     19  C   UNL     1      47.606   6.075  13.585  0.00  0.00    +0.000 A 
ATOM     20  C   UNL     1      46.859   4.977  14.041  0.00  0.00    +0.000 A 
ATOM     21  C   UNL     1      45.725   4.609  13.282  0.00  0.00    +0.000 A 
BRANCH  20  22
ATOM     22  C   UNL     1      47.235   4.225  15.259  0.00  0.00    +0.000 A 
ATOM     23  C   UNL     1      46.998   4.707  16.548  0.00  0.00    +0.000 A 
ATOM     24  C   UNL     1      47.419   3.964  17.650  0.00  0.00    +0.000 A 
ATOM     25  C   UNL     1      48.062   2.753  17.446  0.00  0.00    +0.000 A 
ATOM     26  C   UNL     1      48.255   2.333  16.143  0.00  0.00    +0.000 A 
ATOM     27  N   UNL     1      47.862   3.037  15.056  0.00  0.00    +0.000 NA
ENDBRANCH  20  22
ENDBRANCH   1  15
TORSDOF 4
ENDMDL
MODEL 3
REMARK VINA RESULT:    -8.138      1.976      2.488
REMARK INTER + INTRA:         -10.857
REMARK INTER:                 -10.167
REMARK INTRA:                  -0.690
REMARK UNBOUND:                -0.816
REMARK  Name = 
REMARK  4 active torsions:
REMARK  status: ('A' for Active; 'I' for Inactive)
REMARK    1  A    between atoms: C_2  and  C_4
REMARK    2  A    between atoms: N_8  and  C_9
REMARK    3  A    between atoms: C_9  and  C_10
REMARK    4  A    between atoms: C_15  and  C_16
REMARK                            x       y       z     vdW  Elec       q    Type
REMARK                         _______ _______ _______ _____ _____    ______ ____
ROOT
ATOM      1  C   UNL     1      43.486   3.954  11.176  0.00  0.00    +0.000 C 
ENDROOT
BRANCH   1   6
ATOM      2  C   UNL     1      46.580   2.543   7.314  0.00  0.00    +0.000 A 
ATOM      3  C   UNL     1      46.267   3.817   7.779  0.00  0.00    +0.000 A 
ATOM      4  C   UNL     1      45.492   3.948   8.929  0.00  0.00    +0.000 A 
ATOM      5  C   UNL     1      45.025   2.816   9.586  0.00  0.00    +0.000 A 
ATOM      6  N   UNL     1      44.352   2.860  10.784  0.00  0.00    +0.000 N 
ATOM      7  N   UNL     1      45.294   1.578   9.123  0.00  0.00    +0.000 NA
ATOM      8  C   UNL     1      46.051   1.463   8.000  0.00  0.00    +0.000 A 
ATOM      9  H   UNL     1      44.033   1.925  11.015  0.00  0.00    +0.000 HD
BRANCH   2  11
ATOM     10  N   UNL     1      47.275   3.168   5.080  0.00  0.00    +0.000 N 
ATOM     11  C   UNL     1      47.449   2.322   6.145  0.00  0.00    +0.000 C 
ATOM     12  O   UNL     1      48.311   1.455   6.136  0.00  0.00    +0.000 OA
ATOM     13  H   UNL     1      47.941   3.087   4.321  0.00  0.00    +0.000 HD
ATOM     14  H   UNL     1      46.766   4.037   5.160  0.00  0.00    +0.000 HD
ENDBRANCH   2  11
ENDBRANCH   1   6
BRANCH   1  15
ATOM     15  C   UNL     1      44.250   5.100  11.790  0.00  0.00    +0.000 A 
ATOM     16  C   UNL     1      45.236   4.860  12.749  0.00  0.00    +0.000 A 
ATOM     17  C   UNL     1      45.979   5.916  13.254  0.00  0.00    +0.000 A 
ATOM     18  F   UNL     1      46.935   5.674  14.160  0.00  0.00    +0.000 F 
ATOM     19  C   UNL     1      45.761   7.224  12.829  0.00  0.00    +0.000 A 
ATOM     20  C   UNL     1      44.765   7.516  11.884  0.00  0.00    +0.000 A 
ATOM     21  C   UNL     1      44.026   6.426  11.370  0.00  0.00    +0.000 A 
BRANCH  20  22
ATOM     22  C   UNL     1      44.486   8.900  11.440  0.00  0.00    +0.000 A 
ATOM     23  C   UNL     1      45.277   9.988  11.816  0.00  0.00    +0.000 A 
ATOM     24  C   UNL     1      44.930  11.270  11.395  0.00  0.00    +0.000 A 
ATOM     25  C   UNL     1      43.804  11.443  10.604  0.00  0.00    +0.000 A 
ATOM     26  C   UNL     1      43.074  10.320  10.262  0.00  0.00    +0.000 A 
ATOM     27  N   UNL     1      43.386   9.066  10.662  0.00  0.00    +0.000 NA
ENDBRANCH  20  22
ENDBRANCH   1  15
TORSDOF 4
ENDMDL
MODEL 4
REMARK VINA RESULT:    -8.042      2.571      3.467
REMARK INTER + INTRA:         -10.738
REMARK INTER:                 -10.109
REMARK INTRA:                  -0.629
REMARK UNBOUND:                -0.816
REMARK  Name = 
REMARK  4 active torsions:
REMARK  status: ('A' for Active; 'I' for Inactive)
REMARK    1  A    between atoms: C_2  and  C_4
REMARK    2  A    between atoms: N_8  and  C_9
REMARK    3  A    between atoms: C_9  and  C_10
REMARK    4  A    between atoms: C_15  and  C_16
REMARK                            x       y       z     vdW  Elec       q    Type
REMARK                         _______ _______ _______ _____ _____    ______ ____
ROOT
ATOM      1  C   UNL     1      43.514   3.561  11.091  0.00  0.00    +0.000 C 
ENDROOT
BRANCH   1   6
ATOM      2  C   UNL     1      46.686   2.474   7.188  0.00  0.00    +0.000 A 
ATOM      3  C   UNL     1      46.316   3.710   7.711  0.00  0.00    +0.000 A 
ATOM      4  C   UNL     1      45.530   3.751   8.861  0.00  0.00    +0.000 A 
ATOM      5  C   UNL     1      45.110   2.569   9.459  0.00  0.00    +0.000 A 
ATOM      6  N   UNL     1      44.430   2.527  10.654  0.00  0.00    +0.000 N 
ATOM      7  N   UNL     1      45.435   1.368   8.940  0.00  0.00    +0.000 NA
ATOM      8  C   UNL     1      46.202   1.341   7.817  0.00  0.00    +0.000 A 
ATOM      9  H   UNL     1      44.151   1.568  10.837  0.00  0.00    +0.000 HD
BRANCH   2  11
ATOM     10  N   UNL     1      47.462   3.320   5.055  0.00  0.00    +0.000 N 
ATOM     11  C   UNL     1      47.570   2.347   6.016  0.00  0.00    +0.000 C 
ATOM     12  O   UNL     1      48.389   1.445   5.919  0.00  0.00    +0.000 OA
ATOM     13  H   UNL     1      48.140   3.295   4.304  0.00  0.00    +0.000 HD
ATOM     14  H   UNL     1      46.993   4.199   5.229  0.00  0.00    +0.000 HD
ENDBRANCH   2  11
ENDBRANCH   1   6
BRANCH   1  15
ATOM     15  C   UNL     1      44.232   4.762  11.653  0.00  0.00    +0.000 A 
ATOM     16  C   UNL     1      43.918   6.048  11.206  0.00  0.00    +0.000 A 
ATOM     17  C   UNL     1      44.535   7.148  11.781  0.00  0.00    +0.000 A 
ATOM     18  F   UNL     1      44.215   8.377  11.358  0.00  0.00    +0.000 F 
ATOM     19  C   UNL     1      45.475   7.003  12.798  0.00  0.00    +0.000 A 
ATOM     20  C   UNL     1      45.839   5.729  13.263  0.00  0.00    +0.000 A 
ATOM     21  C   UNL     1      45.190   4.619  12.676  0.00  0.00    +0.000 A 
BRANCH  20  22
ATOM     22  C   UNL     1      46.860   5.542  14.319  0.00  0.00    +0.000 A 
ATOM     23  C   UNL     1      46.878   4.429  15.163  0.00  0.00    +0.000 A 
ATOM     24  C   UNL     1      47.845   4.339  16.164  0.00  0.00    +0.000 A 
ATOM     25  C   UNL     1      48.775   5.358  16.301  0.00  0.00    +0.000 A 
ATOM     26  C   UNL     1      48.703   6.425  15.424  0.00  0.00    +0.000 A 
ATOM     27  N   UNL     1      47.773   6.539  14.448  0.00  0.00    +0.000 NA
ENDBRANCH  20  22
ENDBRANCH   1  15
TORSDOF 4
ENDMDL
MODEL 5
REMARK VINA RESULT:    -7.873      2.996      6.866
REMARK INTER + INTRA:         -10.530
REMARK INTER:                 -10.032
REMARK INTRA:                  -0.498
REMARK UNBOUND:                -0.816
REMARK  Name = 
REMARK  4 active torsions:
REMARK  status: ('A' for Active; 'I' for Inactive)
REMARK    1  A    between atoms: C_2  and  C_4
REMARK    2  A    between atoms: N_8  and  C_9
REMARK    3  A    between atoms: C_9  and  C_10
REMARK    4  A    between atoms: C_15  and  C_16
REMARK                            x       y       z     vdW  Elec       q    Type
REMARK                         _______ _______ _______ _____ _____    ______ ____
ROOT
ATOM      1  C   UNL     1      43.686   6.337  11.063  0.00  0.00    +0.000 C 
ENDROOT
BRANCH   1   6
ATOM      2  C   UNL     1      48.084   6.899  13.673  0.00  0.00    +0.000 A 
ATOM      3  C   UNL     1      47.283   5.771  13.519  0.00  0.00    +0.000 A 
ATOM      4  C   UNL     1      46.191   5.828  12.656  0.00  0.00    +0.000 A 
ATOM      5  C   UNL     1      45.901   7.006  11.977  0.00  0.00    +0.000 A 
ATOM      6  N   UNL     1      44.913   7.107  11.027  0.00  0.00    +0.000 N 
ATOM      7  N   UNL     1      46.651   8.113  12.146  0.00  0.00    +0.000 NA
ATOM      8  C   UNL     1      47.715   8.046  12.992  0.00  0.00    +0.000 A 
ATOM      9  H   UNL     1      44.829   8.078  10.744  0.00  0.00    +0.000 HD
BRANCH   2  11
ATOM     10  N   UNL     1      50.357   7.639  14.066  0.00  0.00    +0.000 N 
ATOM     11  C   UNL     1      49.294   6.898  14.514  0.00  0.00    +0.000 C 
ATOM     12  O   UNL     1      49.339   6.300  15.580  0.00  0.00    +0.000 OA
ATOM     13  H   UNL     1      51.148   7.727  14.693  0.00  0.00    +0.000 HD
ATOM     14  H   UNL     1      50.259   8.337  13.341  0.00  0.00    +0.000 HD
ENDBRANCH   2  11
ENDBRANCH   1   6
BRANCH   1  15
ATOM     15  C   UNL     1      43.917   4.876  10.770  0.00  0.00    +0.000 A 
ATOM     16  C   UNL     1      43.296   3.892  11.543  0.00  0.00    +0.000 A 
ATOM     17  C   UNL     1      43.462   2.554  11.220  0.00  0.00    +0.000 A 
ATOM     18  F   UNL     1      42.848   1.619  11.957  0.00  0.00    +0.000 F 
ATOM     19  C   UNL     1      44.244   2.161  10.138  0.00  0.00    +0.000 A 
ATOM     20  C   UNL     1      44.906   3.114   9.346  0.00  0.00    +0.000 A 
ATOM     21  C   UNL     1      44.716   4.474   9.682  0.00  0.00    +0.000 A 
BRANCH  20  22
ATOM     22  C   UNL     1      45.772   2.725   8.211  0.00  0.00    +0.000 A 
ATOM     23  C   UNL     1      46.022   3.569   7.127  0.00  0.00    +0.000 A 
ATOM     24  C   UNL     1      46.814   3.120   6.071  0.00  0.00    +0.000 A 
ATOM     25  C   UNL     1      47.344   1.840   6.119  0.00  0.00    +0.000 A 
ATOM     26  C   UNL     1      47.063   1.062   7.227  0.00  0.00    +0.000 A 
ATOM     27  N   UNL     1      46.294   1.472   8.261  0.00  0.00    +0.000 NA
ENDBRANCH  20  22
ENDBRANCH   1  15
TORSDOF 4
ENDMDL
MODEL 6
REMARK VINA RESULT:    -7.767      3.106      7.014
REMARK INTER + INTRA:         -10.399
REMARK INTER:                  -9.639
REMARK INTRA:                  -0.759
REMARK UNBOUND:                -0.816
REMARK  Name = 
REMARK  4 active torsions:
REMARK  status: ('A' for Active; 'I' for Inactive)
REMARK    1  A    between atoms: C_2  and  C_4
REMARK    2  A    between atoms: N_8  and  C_9
REMARK    3  A    between atoms: C_9  and  C_10
REMARK    4  A    between atoms: C_15  and  C_16
REMARK                            x       y       z     vdW  Elec       q    Type
REMARK                         _______ _______ _______ _____ _____    ______ ____
ROOT
ATOM      1  C   UNL     1      44.650   6.627  11.499  0.00  0.00    +0.000 C 
ENDROOT
BRANCH   1   6
ATOM      2  C   UNL     1      49.432   7.723  13.049  0.00  0.00    +0.000 A 
ATOM      3  C   UNL     1      48.750   8.148  11.913  0.00  0.00    +0.000 A 
ATOM      4  C   UNL     1      47.405   7.815  11.765  0.00  0.00    +0.000 A 
ATOM      5  C   UNL     1      46.768   7.050  12.736  0.00  0.00    +0.000 A 
ATOM      6  N   UNL     1      45.420   6.776  12.717  0.00  0.00    +0.000 N 
ATOM      7  N   UNL     1      47.430   6.604  13.822  0.00  0.00    +0.000 NA
ATOM      8  C   UNL     1      48.742   6.936  13.955  0.00  0.00    +0.000 A 
ATOM      9  H   UNL     1      45.208   6.128  13.468  0.00  0.00    +0.000 HD
BRANCH   2  11
ATOM     10  N   UNL     1      51.370   7.673  14.501  0.00  0.00    +0.000 N 
ATOM     11  C   UNL     1      50.835   8.091  13.310  0.00  0.00    +0.000 C 
ATOM     12  O   UNL     1      51.505   8.703  12.491  0.00  0.00    +0.000 OA
ATOM     13  H   UNL     1      52.362   7.831  14.636  0.00  0.00    +0.000 HD
ATOM     14  H   UNL     1      50.933   6.958  15.067  0.00  0.00    +0.000 HD
ENDBRANCH   2  11
ENDBRANCH   1   6
BRANCH   1  15
ATOM     15  C   UNL     1      44.560   5.190  11.049  0.00  0.00    +0.000 A 
ATOM     16  C   UNL     1      43.753   4.282  11.738  0.00  0.00    +0.000 A 
ATOM     17  C   UNL     1      43.625   2.982  11.273  0.00  0.00    +0.000 A 
ATOM     18  F   UNL     1      42.835   2.123  11.931  0.00  0.00    +0.000 F 
ATOM     19  C   UNL     1      44.291   2.553  10.129  0.00  0.00    +0.000 A 
ATOM     20  C   UNL     1      45.131   3.424   9.417  0.00  0.00    +0.000 A 
ATOM     21  C   UNL     1      45.241   4.749   9.897  0.00  0.00    +0.000 A 
BRANCH  20  22
ATOM     22  C   UNL     1      45.880   2.986   8.217  0.00  0.00    +0.000 A 
ATOM     23  C   UNL     1      46.359   1.684   8.060  0.00  0.00    +0.000 A 
ATOM     24  C   UNL     1      47.094   1.353   6.922  0.00  0.00    +0.000 A 
ATOM     25  C   UNL     1      47.333   2.325   5.963  0.00  0.00    +0.000 A 
ATOM     26  C   UNL     1      46.820   3.591   6.181  0.00  0.00    +0.000 A 
ATOM     27  N   UNL     1      46.109   3.939   7.277  0.00  0.00    +0.000 NA
ENDBRANCH  20  22
ENDBRANCH   1  15
TORSDOF 4
ENDMDL
MODEL 7
REMARK VINA RESULT:    -7.749      3.364      7.264
REMARK INTER + INTRA:         -10.377
REMARK INTER:                  -9.998
REMARK INTRA:                  -0.379
REMARK UNBOUND:                -0.816
REMARK  Name = 
REMARK  4 active torsions:
REMARK  status: ('A' for Active; 'I' for Inactive)
REMARK    1  A    between atoms: C_2  and  C_4
REMARK    2  A    between atoms: N_8  and  C_9
REMARK    3  A    between atoms: C_9  and  C_10
REMARK    4  A    between atoms: C_15  and  C_16
REMARK                            x       y       z     vdW  Elec       q    Type
REMARK                         _______ _______ _______ _____ _____    ______ ____
ROOT
ATOM      1  C   UNL     1      45.005   6.530  11.260  0.00  0.00    +0.000 C 
ENDROOT
BRANCH   1   6
ATOM      2  C   UNL     1      47.891   5.466  15.385  0.00  0.00    +0.000 A 
ATOM      3  C   UNL     1      46.859   4.729  14.812  0.00  0.00    +0.000 A 
ATOM      4  C   UNL     1      46.299   5.165  13.613  0.00  0.00    +0.000 A 
ATOM      5  C   UNL     1      46.759   6.332  13.014  0.00  0.00    +0.000 A 
ATOM      6  N   UNL     1      46.337   6.765  11.779  0.00  0.00    +0.000 N 
ATOM      7  N   UNL     1      47.735   7.070  13.580  0.00  0.00    +0.000 NA
ATOM      8  C   UNL     1      48.273   6.635  14.750  0.00  0.00    +0.000 A 
ATOM      9  H   UNL     1      46.738   7.679  11.599  0.00  0.00    +0.000 HD
BRANCH   2  11
ATOM     10  N   UNL     1      47.783   4.716  17.686  0.00  0.00    +0.000 N 
ATOM     11  C   UNL     1      48.579   5.035  16.615  0.00  0.00    +0.000 C 
ATOM     12  O   UNL     1      49.795   4.926  16.671  0.00  0.00    +0.000 OA
ATOM     13  H   UNL     1      48.246   4.319  18.494  0.00  0.00    +0.000 HD
ATOM     14  H   UNL     1      46.792   4.548  17.588  0.00  0.00    +0.000 HD
ENDBRANCH   2  11
ENDBRANCH   1   6
BRANCH   1  15
ATOM     15  C   UNL     1      44.810   5.106  10.805  0.00  0.00    +0.000 A 
ATOM     16  C   UNL     1      43.908   4.268  11.465  0.00  0.00    +0.000 A 
ATOM     17  C   UNL     1      43.686   2.984  10.993  0.00  0.00    +0.000 A 
ATOM     18  F   UNL     1      42.806   2.195  11.623  0.00  0.00    +0.000 F 
ATOM     19  C   UNL     1      44.351   2.500   9.870  0.00  0.00    +0.000 A 
ATOM     20  C   UNL     1      45.283   3.297   9.188  0.00  0.00    +0.000 A 
ATOM     21  C   UNL     1      45.488   4.608   9.674  0.00  0.00    +0.000 A 
BRANCH  20  22
ATOM     22  C   UNL     1      46.031   2.798   8.012  0.00  0.00    +0.000 A 
ATOM     23  C   UNL     1      46.245   3.571   6.868  0.00  0.00    +0.000 A 
ATOM     24  C   UNL     1      46.921   3.020   5.781  0.00  0.00    +0.000 A 
ATOM     25  C   UNL     1      47.375   1.712   5.856  0.00  0.00    +0.000 A 
ATOM     26  C   UNL     1      47.136   1.009   7.023  0.00  0.00    +0.000 A 
ATOM     27  N   UNL     1      46.478   1.518   8.090  0.00  0.00    +0.000 NA
ENDBRANCH  20  22
ENDBRANCH   1  15
TORSDOF 4
ENDMDL
MODEL 8
REMARK VINA RESULT:    -7.643      4.737      7.790
REMARK INTER + INTRA:         -10.245
REMARK INTER:                  -9.735
REMARK INTRA:                  -0.511
REMARK UNBOUND:                -0.816
REMARK  Name = 
REMARK  4 active torsions:
REMARK  status: ('A' for Active; 'I' for Inactive)
REMARK    1  A    between atoms: C_2  and  C_4
REMARK    2  A    between atoms: N_8  and  C_9
REMARK    3  A    between atoms: C_9  and  C_10
REMARK    4  A    between atoms: C_15  and  C_16
REMARK                            x       y       z     vdW  Elec       q    Type
REMARK                         _______ _______ _______ _____ _____    ______ ____
ROOT
ATOM      1  C   UNL     1      46.042   5.577  13.827  0.00  0.00    +0.000 C 
ENDROOT
BRANCH   1   6
ATOM      2  C   UNL     1      49.434   3.981  17.351  0.00  0.00    +0.000 A 
ATOM      3  C   UNL     1      49.063   5.276  17.002  0.00  0.00    +0.000 A 
ATOM      4  C   UNL     1      48.023   5.461  16.093  0.00  0.00    +0.000 A 
ATOM      5  C   UNL     1      47.384   4.361  15.533  0.00  0.00    +0.000 A 
ATOM      6  N   UNL     1      46.280   4.461  14.720  0.00  0.00    +0.000 N 
ATOM      7  N   UNL     1      47.761   3.103  15.840  0.00  0.00    +0.000 NA
ATOM      8  C   UNL     1      48.777   2.935  16.727  0.00  0.00    +0.000 A 
ATOM      9  H   UNL     1      46.054   3.539  14.362  0.00  0.00    +0.000 HD
BRANCH   2  11
ATOM     10  N   UNL     1      51.188   2.541  18.199  0.00  0.00    +0.000 N 
ATOM     11  C   UNL     1      50.478   3.704  18.354  0.00  0.00    +0.000 C 
ATOM     12  O   UNL     1      50.730   4.488  19.257  0.00  0.00    +0.000 OA
ATOM     13  H   UNL     1      51.975   2.401  18.821  0.00  0.00    +0.000 HD
ATOM     14  H   UNL     1      51.181   2.017  17.335  0.00  0.00    +0.000 HD
ENDBRANCH   2  11
ENDBRANCH   1   6
BRANCH   1  15
ATOM     15  C   UNL     1      45.139   5.209  12.676  0.00  0.00    +0.000 A 
ATOM     16  C   UNL     1      43.781   5.531  12.712  0.00  0.00    +0.000 A 
ATOM     17  C   UNL     1      42.977   5.250  11.618  0.00  0.00    +0.000 A 
ATOM     18  F   UNL     1      41.679   5.578  11.655  0.00  0.00    +0.000 F 
ATOM     19  C   UNL     1      43.492   4.643  10.476  0.00  0.00    +0.000 A 
ATOM     20  C   UNL     1      44.847   4.281  10.404  0.00  0.00    +0.000 A 
ATOM     21  C   UNL     1      45.655   4.586  11.523  0.00  0.00    +0.000 A 
BRANCH  20  22
ATOM     22  C   UNL     1      45.415   3.603   9.218  0.00  0.00    +0.000 A 
ATOM     23  C   UNL     1      45.506   2.213   9.113  0.00  0.00    +0.000 A 
ATOM     24  C   UNL     1      46.094   1.644   7.984  0.00  0.00    +0.000 A 
ATOM     25  C   UNL     1      46.574   2.471   6.981  0.00  0.00    +0.000 A 
ATOM     26  C   UNL     1      46.442   3.837   7.147  0.00  0.00    +0.000 A 
ATOM     27  N   UNL     1      45.882   4.415   8.234  0.00  0.00    +0.000 NA
ENDBRANCH  20  22
ENDBRANCH   1  15
TORSDOF 4
ENDMDL
MODEL 9
REMARK VINA RESULT:    -7.395      2.206      2.823
REMARK INTER + INTRA:          -9.939
REMARK INTER:                  -9.366
REMARK INTRA:                  -0.573
REMARK UNBOUND:                -0.816
REMARK  Name = 
REMARK  4 active torsions:
REMARK  status: ('A' for Active; 'I' for Inactive)
REMARK    1  A    between atoms: C_2  and  C_4
REMARK    2  A    between atoms: N_8  and  C_9
REMARK    3  A    between atoms: C_9  and  C_10
REMARK    4  A    between atoms: C_15  and  C_16
REMARK                            x       y       z     vdW  Elec       q    Type
REMARK                         _______ _______ _______ _____ _____    ______ ____
ROOT
ATOM      1  C   UNL     1      43.364   4.870  10.988  0.00  0.00    +0.000 C 
ENDROOT
BRANCH   1   6
ATOM      2  C   UNL     1      46.415   2.694   7.462  0.00  0.00    +0.000 A 
ATOM      3  C   UNL     1      46.021   4.022   7.594  0.00  0.00    +0.000 A 
ATOM      4  C   UNL     1      45.280   4.402   8.712  0.00  0.00    +0.000 A 
ATOM      5  C   UNL     1      44.929   3.455   9.667  0.00  0.00    +0.000 A 
ATOM      6  N   UNL     1      44.299   3.771  10.848  0.00  0.00    +0.000 N 
ATOM      7  N   UNL     1      45.277   2.160   9.530  0.00  0.00    +0.000 NA
ATOM      8  C   UNL     1      45.999   1.802   8.435  0.00  0.00    +0.000 A 
ATOM      9  H   UNL     1      44.063   2.912  11.333  0.00  0.00    +0.000 HD
BRANCH   2  11
ATOM     10  N   UNL     1      47.283   3.019   5.224  0.00  0.00    +0.000 N 
ATOM     11  C   UNL     1      47.256   2.229   6.344  0.00  0.00    +0.000 C 
ATOM     12  O   UNL     1      47.929   1.211   6.423  0.00  0.00    +0.000 OA
ATOM     13  H   UNL     1      47.941   2.759   4.499  0.00  0.00    +0.000 HD
ATOM     14  H   UNL     1      46.954   3.974   5.231  0.00  0.00    +0.000 HD
ENDBRANCH   2  11
ENDBRANCH   1   6
BRANCH   1  15
ATOM     15  C   UNL     1      44.058   6.188  11.222  0.00  0.00    +0.000 A 
ATOM     16  C   UNL     1      43.400   7.391  10.960  0.00  0.00    +0.000 A 
ATOM     17  C   UNL     1      44.024   8.596  11.246  0.00  0.00    +0.000 A 
ATOM     18  F   UNL     1      43.378   9.744  11.007  0.00  0.00    +0.000 F 
ATOM     19  C   UNL     1      45.306   8.637  11.788  0.00  0.00    +0.000 A 
ATOM     20  C   UNL     1      46.015   7.453  12.047  0.00  0.00    +0.000 A 
ATOM     21  C   UNL     1      45.359   6.234  11.761  0.00  0.00    +0.000 A 
BRANCH  20  22
ATOM     22  C   UNL     1      47.392   7.467  12.590  0.00  0.00    +0.000 A 
ATOM     23  C   UNL     1      48.504   7.812  11.819  0.00  0.00    +0.000 A 
ATOM     24  C   UNL     1      49.777   7.760  12.385  0.00  0.00    +0.000 A 
ATOM     25  C   UNL     1      49.916   7.371  13.708  0.00  0.00    +0.000 A 
ATOM     26  C   UNL     1      48.770   7.053  14.414  0.00  0.00    +0.000 A 
ATOM     27  N   UNL     1      47.525   7.089  13.888  0.00  0.00    +0.000 NA
ENDBRANCH  20  22
ENDBRANCH   1  15
TORSDOF 4
ENDMDL
