MODEL 1
REMARK VINA RESULT:    -9.083      0.000      0.000
REMARK INTER + INTRA:         -14.207
REMARK INTER:                 -13.065
REMARK INTRA:                  -1.142
REMARK UNBOUND:                -1.142
REMARK  Name = 
REMARK  8 active torsions:
REMARK  status: ('A' for Active; 'I' for Inactive)
REMARK    1  A    between atoms: C_2  and  C_5
REMARK    2  A    between atoms: N_3  and  O_4
REMARK    3  A    between atoms: C_8  and  N_9
REMARK    4  A    between atoms: N_9  and  C_10
REMARK    5  A    between atoms: C_10  and  C_11
REMARK    6  A    between atoms: C_11  and  C_14
REMARK    7  A    between atoms: C_18  and  O_19
REMARK    8  A    between atoms: O_19  and  C_20
REMARK                            x       y       z     vdW  Elec       q    Type
REMARK                         _______ _______ _______ _____ _____    ______ ____
ROOT
ATOM      1  C   UNL     1      43.411   5.046  11.188  0.00  0.00    +0.000 C 
ENDROOT
BRANCH   1   2
ATOM      2  C   UNL     1      43.869   4.883  12.662  0.00  0.00    +0.000 C 
ATOM      3  F   UNL     1      43.029   5.588  13.474  0.00  0.00    +0.000 F 
ATOM      4  F   UNL     1      43.699   3.572  13.017  0.00  0.00    +0.000 F 
BRANCH   2   5
ATOM      5  C   UNL     1      45.309   5.337  12.798  0.00  0.00    +0.000 A 
ATOM      6  C   UNL     1      45.873   6.230  11.877  0.00  0.00    +0.000 A 
ATOM      7  C   UNL     1      47.172   6.705  12.061  0.00  0.00    +0.000 A 
ATOM      8  C   UNL     1      47.926   6.290  13.163  0.00  0.00    +0.000 A 
ATOM      9  C   UNL     1      47.381   5.391  14.075  0.00  0.00    +0.000 A 
ATOM     10  C   UNL     1      46.080   4.919  13.893  0.00  0.00    +0.000 A 
BRANCH   9  11
ATOM     11  O   UNL     1      48.009   4.944  15.210  0.00  0.00    +0.000 OA
BRANCH  11  12
ATOM     12  C   UNL     1      47.253   4.171  16.170  0.00  0.00    +0.000 C 
ATOM     13  C   UNL     1      47.246   4.650  17.636  0.00  0.00    +0.000 C 
ATOM     14  N   UNL     1      47.661   3.314  18.091  0.00  0.00    +0.000 NA
ATOM     15  C   UNL     1      47.982   2.925  16.710  0.00  0.00    +0.000 C 
ATOM     16  H   UNL     1      46.912   2.766  18.511  0.00  0.00    +0.000 HD
ENDBRANCH  11  12
ENDBRANCH   9  11
ENDBRANCH   2   5
ENDBRANCH   1   2
BRANCH   1  17
ATOM     17  N   UNL     1      43.383   3.780  10.436  0.00  0.00    +0.000 N 
ATOM     18  H   UNL     1      42.991   2.994  10.955  0.00  0.00    +0.000 HD
BRANCH  17  22
ATOM     19  C   UNL     1      46.363   2.580   7.707  0.00  0.00    +0.000 A 
ATOM     20  C   UNL     1      46.080   3.939   7.857  0.00  0.00    +0.000 A 
ATOM     21  C   UNL     1      45.103   4.353   8.770  0.00  0.00    +0.000 A 
ATOM     22  C   UNL     1      44.427   3.436   9.580  0.00  0.00    +0.000 A 
ATOM     23  C   UNL     1      44.732   2.075   9.423  0.00  0.00    +0.000 A 
ATOM     24  C   UNL     1      45.690   1.645   8.497  0.00  0.00    +0.000 A 
BRANCH  19  26
ATOM     25  O   UNL     1      48.224   1.321   6.961  0.00  0.00    +0.000 OA
ATOM     26  C   UNL     1      47.375   2.170   6.703  0.00  0.00    +0.000 C 
ATOM     27  N   UNL     1      47.335   2.835   5.499  0.00  0.00    +0.000 N 
ATOM     28  H   UNL     1      46.927   3.759   5.415  0.00  0.00    +0.000 HD
BRANCH  27  29
ATOM     29  O   UNL     1      48.424   2.559   4.634  0.00  0.00    +0.000 OA
ATOM     30  H   UNL     1      48.208   3.107   3.847  0.00  0.00    +0.000 HD
ENDBRANCH  27  29
ENDBRANCH  19  26
ENDBRANCH  17  22
ENDBRANCH   1  17
TORSDOF 8
ENDMDL
MODEL 2
REMARK VINA RESULT:    -8.739      0.507      1.071
REMARK INTER + INTRA:         -13.712
REMARK INTER:                 -12.751
REMARK INTRA:                  -0.961
REMARK UNBOUND:                -1.142
REMARK  Name = 
REMARK  8 active torsions:
REMARK  status: ('A' for Active; 'I' for Inactive)
REMARK    1  A    between atoms: C_2  and  C_5
REMARK    2  A    between atoms: N_3  and  O_4
REMARK    3  A    between atoms: C_8  and  N_9
REMARK    4  A    between atoms: N_9  and  C_10
REMARK    5  A    between atoms: C_10  and  C_11
REMARK    6  A    between atoms: C_11  and  C_14
REMARK    7  A    between atoms: C_18  and  O_19
REMARK    8  A    between atoms: O_19  and  C_20
REMARK                            x       y       z     vdW  Elec       q    Type
REMARK                         _______ _______ _______ _____ _____    ______ ____
ROOT
ATOM      1  C   UNL     1      43.561   3.450  11.835  0.00  0.00    +0.000 C 
ENDROOT
BRANCH   1   2
ATOM      2  C   UNL     1      43.642   4.617  12.854  0.00  0.00    +0.000 C 
ATOM      3  F   UNL     1      42.749   5.586  12.498  0.00  0.00    +0.000 F 
ATOM      4  F   UNL     1      43.206   4.153  14.066  0.00  0.00    +0.000 F 
BRANCH   2   5
ATOM      5  C   UNL     1      45.062   5.141  12.912  0.00  0.00    +0.000 A 
ATOM      6  C   UNL     1      45.516   6.099  11.994  0.00  0.00    +0.000 A 
ATOM      7  C   UNL     1      46.799   6.634  12.112  0.00  0.00    +0.000 A 
ATOM      8  C   UNL     1      47.647   6.217  13.143  0.00  0.00    +0.000 A 
ATOM      9  C   UNL     1      47.213   5.255  14.049  0.00  0.00    +0.000 A 
ATOM     10  C   UNL     1      45.927   4.722  13.934  0.00  0.00    +0.000 A 
BRANCH   9  11
ATOM     11  O   UNL     1      47.938   4.798  15.119  0.00  0.00    +0.000 OA
BRANCH  11  12
ATOM     12  C   UNL     1      47.264   4.043  16.152  0.00  0.00    +0.000 C 
ATOM     13  C   UNL     1      47.260   4.620  17.582  0.00  0.00    +0.000 C 
ATOM     14  N   UNL     1      47.781   3.352  18.113  0.00  0.00    +0.000 NA
ATOM     15  C   UNL     1      48.095   2.891  16.752  0.00  0.00    +0.000 C 
ATOM     16  H   UNL     1      47.084   2.783  18.591  0.00  0.00    +0.000 HD
ENDBRANCH  11  12
ENDBRANCH   9  11
ENDBRANCH   2   5
ENDBRANCH   1   2
BRANCH   1  17
ATOM     17  N   UNL     1      43.450   3.894  10.435  0.00  0.00    +0.000 N 
ATOM     18  H   UNL     1      42.490   4.002  10.106  0.00  0.00    +0.000 HD
BRANCH  17  22
ATOM     19  C   UNL     1      46.332   2.645   7.625  0.00  0.00    +0.000 A 
ATOM     20  C   UNL     1      45.673   1.689   8.400  0.00  0.00    +0.000 A 
ATOM     21  C   UNL     1      44.704   2.088   9.328  0.00  0.00    +0.000 A 
ATOM     22  C   UNL     1      44.338   3.430   9.467  0.00  0.00    +0.000 A 
ATOM     23  C   UNL     1      45.003   4.376   8.672  0.00  0.00    +0.000 A 
ATOM     24  C   UNL     1      45.991   3.993   7.757  0.00  0.00    +0.000 A 
BRANCH  19  26
ATOM     25  O   UNL     1      48.224   1.362   7.006  0.00  0.00    +0.000 OA
ATOM     26  C   UNL     1      47.382   2.195   6.679  0.00  0.00    +0.000 C 
ATOM     27  N   UNL     1      47.385   2.805   5.445  0.00  0.00    +0.000 N 
ATOM     28  H   UNL     1      46.978   3.722   5.305  0.00  0.00    +0.000 HD
BRANCH  27  29
ATOM     29  O   UNL     1      48.506   2.495   4.634  0.00  0.00    +0.000 OA
ATOM     30  H   UNL     1      48.485   3.217   3.967  0.00  0.00    +0.000 HD
ENDBRANCH  27  29
ENDBRANCH  19  26
ENDBRANCH  17  22
ENDBRANCH   1  17
TORSDOF 8
ENDMDL
MODEL 3
REMARK VINA RESULT:    -8.393      2.398      3.689
REMARK INTER + INTRA:         -13.215
REMARK INTER:                 -12.289
REMARK INTRA:                  -0.926
REMARK UNBOUND:                -1.142
REMARK  Name = 
REMARK  8 active torsions:
REMARK  status: ('A' for Active; 'I' for Inactive)
REMARK    1  A    between atoms: C_2  and  C_5
REMARK    2  A    between atoms: N_3  and  O_4
REMARK    3  A    between atoms: C_8  and  N_9
REMARK    4  A    between atoms: N_9  and  C_10
REMARK    5  A    between atoms: C_10  and  C_11
REMARK    6  A    between atoms: C_11  and  C_14
REMARK    7  A    between atoms: C_18  and  O_19
REMARK    8  A    between atoms: O_19  and  C_20
REMARK                            x       y       z     vdW  Elec       q    Type
REMARK                         _______ _______ _______ _____ _____    ______ ____
ROOT
ATOM      1  C   UNL     1      43.319   3.524  11.846  0.00  0.00    +0.000 C 
ENDROOT
BRANCH   1   2
ATOM      2  C   UNL     1      43.332   4.647  12.917  0.00  0.00    +0.000 C 
ATOM      3  F   UNL     1      42.409   5.595  12.586  0.00  0.00    +0.000 F 
ATOM      4  F   UNL     1      42.892   4.111  14.098  0.00  0.00    +0.000 F 
BRANCH   2   5
ATOM      5  C   UNL     1      44.729   5.223  13.029  0.00  0.00    +0.000 A 
ATOM      6  C   UNL     1      45.768   4.487  13.615  0.00  0.00    +0.000 A 
ATOM      7  C   UNL     1      47.067   4.996  13.635  0.00  0.00    +0.000 A 
ATOM      8  C   UNL     1      47.345   6.246  13.074  0.00  0.00    +0.000 A 
ATOM      9  C   UNL     1      46.318   6.992  12.503  0.00  0.00    +0.000 A 
ATOM     10  C   UNL     1      45.019   6.482  12.480  0.00  0.00    +0.000 A 
BRANCH   9  11
ATOM     11  O   UNL     1      46.476   8.209  11.892  0.00  0.00    +0.000 OA
BRANCH  11  12
ATOM     12  C   UNL     1      46.016   9.400  12.572  0.00  0.00    +0.000 C 
ATOM     13  C   UNL     1      44.696  10.039  12.095  0.00  0.00    +0.000 C 
ATOM     14  N   UNL     1      45.359  11.344  11.957  0.00  0.00    +0.000 NA
ATOM     15  C   UNL     1      46.678  10.708  12.096  0.00  0.00    +0.000 C 
ATOM     16  H   UNL     1      45.138  12.004  12.701  0.00  0.00    +0.000 HD
ENDBRANCH  11  12
ENDBRANCH   9  11
ENDBRANCH   2   5
ENDBRANCH   1   2
BRANCH   1  17
ATOM     17  N   UNL     1      43.383   4.026  10.464  0.00  0.00    +0.000 N 
ATOM     18  H   UNL     1      42.473   4.138  10.017  0.00  0.00    +0.000 HD
BRANCH  17  22
ATOM     19  C   UNL     1      46.264   2.598   7.738  0.00  0.00    +0.000 A 
ATOM     20  C   UNL     1      45.969   3.963   7.770  0.00  0.00    +0.000 A 
ATOM     21  C   UNL     1      45.024   4.453   8.679  0.00  0.00    +0.000 A 
ATOM     22  C   UNL     1      44.395   3.612   9.601  0.00  0.00    +0.000 A 
ATOM     23  C   UNL     1      44.713   2.245   9.562  0.00  0.00    +0.000 A 
ATOM     24  C   UNL     1      45.638   1.737   8.643  0.00  0.00    +0.000 A 
BRANCH  19  26
ATOM     25  O   UNL     1      47.906   1.091   6.938  0.00  0.00    +0.000 OA
ATOM     26  C   UNL     1      47.240   2.103   6.737  0.00  0.00    +0.000 C 
ATOM     27  N   UNL     1      47.389   2.874   5.607  0.00  0.00    +0.000 N 
ATOM     28  H   UNL     1      47.160   3.861   5.603  0.00  0.00    +0.000 HD
BRANCH  27  29
ATOM     29  O   UNL     1      48.456   2.484   4.760  0.00  0.00    +0.000 OA
ATOM     30  H   UNL     1      48.198   1.569   4.509  0.00  0.00    +0.000 HD
ENDBRANCH  27  29
ENDBRANCH  19  26
ENDBRANCH  17  22
ENDBRANCH   1  17
TORSDOF 8
ENDMDL
MODEL 4
REMARK VINA RESULT:    -8.130      1.788      1.965
REMARK INTER + INTRA:         -12.837
REMARK INTER:                 -11.849
REMARK INTRA:                  -0.988
REMARK UNBOUND:                -1.142
REMARK  Name = 
REMARK  8 active torsions:
REMARK  status: ('A' for Active; 'I' for Inactive)
REMARK    1  A    between atoms: C_2  and  C_5
REMARK    2  A    between atoms: N_3  and  O_4
REMARK    3  A    between atoms: C_8  and  N_9
REMARK    4  A    between atoms: N_9  and  C_10
REMARK    5  A    between atoms: C_10  and  C_11
REMARK    6  A    between atoms: C_11  and  C_14
REMARK    7  A    between atoms: C_18  and  O_19
REMARK    8  A    between atoms: O_19  and  C_20
REMARK                            x       y       z     vdW  Elec       q    Type
REMARK                         _______ _______ _______ _____ _____    ______ ____
ROOT
ATOM      1  C   UNL     1      43.953   5.876  11.179  0.00  0.00    +0.000 C 
ENDROOT
BRANCH   1   2
ATOM      2  C   UNL     1      44.597   5.399  12.508  0.00  0.00    +0.000 C 
ATOM      3  F   UNL     1      43.830   5.818  13.555  0.00  0.00    +0.000 F 
ATOM      4  F   UNL     1      44.538   4.031  12.541  0.00  0.00    +0.000 F 
BRANCH   2   5
ATOM      5  C   UNL     1      46.018   5.918  12.596  0.00  0.00    +0.000 A 
ATOM      6  C   UNL     1      46.583   6.654  11.546  0.00  0.00    +0.000 A 
ATOM      7  C   UNL     1      47.862   7.198  11.676  0.00  0.00    +0.000 A 
ATOM      8  C   UNL     1      48.594   7.009  12.852  0.00  0.00    +0.000 A 
ATOM      9  C   UNL     1      48.049   6.266  13.895  0.00  0.00    +0.000 A 
ATOM     10  C   UNL     1      46.768   5.725  13.767  0.00  0.00    +0.000 A 
BRANCH   9  11
ATOM     11  O   UNL     1      48.655   6.047  15.105  0.00  0.00    +0.000 OA
BRANCH  11  12
ATOM     12  C   UNL     1      49.637   6.995  15.580  0.00  0.00    +0.000 C 
ATOM     13  C   UNL     1      50.738   6.481  16.529  0.00  0.00    +0.000 C 
ATOM     14  N   UNL     1      50.422   7.542  17.497  0.00  0.00    +0.000 NA
ATOM     15  C   UNL     1      49.178   7.853  16.776  0.00  0.00    +0.000 C 
ATOM     16  H   UNL     1      51.094   8.307  17.510  0.00  0.00    +0.000 HD
ENDBRANCH  11  12
ENDBRANCH   9  11
ENDBRANCH   2   5
ENDBRANCH   1   2
BRANCH   1  17
ATOM     17  N   UNL     1      43.528   4.773  10.300  0.00  0.00    +0.000 N 
ATOM     18  H   UNL     1      42.774   4.201  10.681  0.00  0.00    +0.000 HD
BRANCH  17  22
ATOM     19  C   UNL     1      46.137   2.492   7.900  0.00  0.00    +0.000 A 
ATOM     20  C   UNL     1      46.203   3.886   7.848  0.00  0.00    +0.000 A 
ATOM     21  C   UNL     1      45.352   4.657   8.650  0.00  0.00    +0.000 A 
ATOM     22  C   UNL     1      44.461   4.062   9.548  0.00  0.00    +0.000 A 
ATOM     23  C   UNL     1      44.416   2.660   9.594  0.00  0.00    +0.000 A 
ATOM     24  C   UNL     1      45.245   1.877   8.781  0.00  0.00    +0.000 A 
BRANCH  19  26
ATOM     25  O   UNL     1      47.172   0.494   7.162  0.00  0.00    +0.000 OA
ATOM     26  C   UNL     1      47.024   1.704   7.009  0.00  0.00    +0.000 C 
ATOM     27  N   UNL     1      47.703   2.418   6.049  0.00  0.00    +0.000 N 
ATOM     28  H   UNL     1      47.893   3.407   6.157  0.00  0.00    +0.000 HD
BRANCH  27  29
ATOM     29  O   UNL     1      48.680   1.674   5.340  0.00  0.00    +0.000 OA
ATOM     30  H   UNL     1      48.852   0.922   5.950  0.00  0.00    +0.000 HD
ENDBRANCH  27  29
ENDBRANCH  19  26
ENDBRANCH  17  22
ENDBRANCH   1  17
TORSDOF 8
ENDMDL
MODEL 5
REMARK VINA RESULT:    -8.001      2.326      3.641
REMARK INTER + INTRA:         -12.651
REMARK INTER:                 -11.631
REMARK INTRA:                  -1.020
REMARK UNBOUND:                -1.142
REMARK  Name = 
REMARK  8 active torsions:
REMARK  status: ('A' for Active; 'I' for Inactive)
REMARK    1  A    between atoms: C_2  and  C_5
REMARK    2  A    between atoms: N_3  and  O_4
REMARK    3  A    between atoms: C_8  and  N_9
REMARK    4  A    between atoms: N_9  and  C_10
REMARK    5  A    between atoms: C_10  and  C_11
REMARK    6  A    between atoms: C_11  and  C_14
REMARK    7  A    between atoms: C_18  and  O_19
REMARK    8  A    between atoms: O_19  and  C_20
REMARK                            x       y       z     vdW  Elec       q    Type
REMARK                         _______ _______ _______ _____ _____    ______ ____
ROOT
ATOM      1  C   UNL     1      43.651   3.941  11.979  0.00  0.00    +0.000 C 
ENDROOT
BRANCH   1   2
ATOM      2  C   UNL     1      43.778   5.394  12.508  0.00  0.00    +0.000 C 
ATOM      3  F   UNL     1      43.299   6.259  11.567  0.00  0.00    +0.000 F 
ATOM      4  F   UNL     1      42.940   5.529  13.582  0.00  0.00    +0.000 F 
BRANCH   2   5
ATOM      5  C   UNL     1      45.223   5.679  12.863  0.00  0.00    +0.000 A 
ATOM      6  C   UNL     1      45.890   4.919  13.834  0.00  0.00    +0.000 A 
ATOM      7  C   UNL     1      47.245   5.137  14.090  0.00  0.00    +0.000 A 
ATOM      8  C   UNL     1      47.949   6.118  13.386  0.00  0.00    +0.000 A 
ATOM      9  C   UNL     1      47.292   6.889  12.432  0.00  0.00    +0.000 A 
ATOM     10  C   UNL     1      45.938   6.670  12.172  0.00  0.00    +0.000 A 
BRANCH   9  11
ATOM     11  O   UNL     1      47.884   7.852  11.655  0.00  0.00    +0.000 OA
BRANCH  11  12
ATOM     12  C   UNL     1      48.156   9.149  12.232  0.00  0.00    +0.000 C 
ATOM     13  C   UNL     1      47.087  10.249  12.072  0.00  0.00    +0.000 C 
ATOM     14  N   UNL     1      48.094  11.171  11.526  0.00  0.00    +0.000 NA
ATOM     15  C   UNL     1      49.048  10.063  11.369  0.00  0.00    +0.000 C 
ATOM     16  H   UNL     1      48.399  11.890  12.181  0.00  0.00    +0.000 HD
ENDBRANCH  11  12
ENDBRANCH   9  11
ENDBRANCH   2   5
ENDBRANCH   1   2
BRANCH   1  17
ATOM     17  N   UNL     1      43.407   3.861  10.529  0.00  0.00    +0.000 N 
ATOM     18  H   UNL     1      42.489   3.494  10.279  0.00  0.00    +0.000 HD
BRANCH  17  22
ATOM     19  C   UNL     1      46.309   2.585   7.750  0.00  0.00    +0.000 A 
ATOM     20  C   UNL     1      46.042   3.949   7.882  0.00  0.00    +0.000 A 
ATOM     21  C   UNL     1      45.090   4.389   8.810  0.00  0.00    +0.000 A 
ATOM     22  C   UNL     1      44.427   3.492   9.654  0.00  0.00    +0.000 A 
ATOM     23  C   UNL     1      44.717   2.126   9.514  0.00  0.00    +0.000 A 
ATOM     24  C   UNL     1      45.649   1.671   8.574  0.00  0.00    +0.000 A 
BRANCH  19  26
ATOM     25  O   UNL     1      48.073   1.223   6.947  0.00  0.00    +0.000 OA
ATOM     26  C   UNL     1      47.294   2.148   6.730  0.00  0.00    +0.000 C 
ATOM     27  N   UNL     1      47.313   2.873   5.561  0.00  0.00    +0.000 N 
ATOM     28  H   UNL     1      46.978   3.828   5.522  0.00  0.00    +0.000 HD
BRANCH  27  29
ATOM     29  O   UNL     1      48.383   2.556   4.686  0.00  0.00    +0.000 OA
ATOM     30  H   UNL     1      48.058   2.906   3.826  0.00  0.00    +0.000 HD
ENDBRANCH  27  29
ENDBRANCH  19  26
ENDBRANCH  17  22
ENDBRANCH   1  17
TORSDOF 8
ENDMDL
MODEL 6
REMARK VINA RESULT:    -7.972      1.609      2.166
REMARK INTER + INTRA:         -12.610
REMARK INTER:                 -11.571
REMARK INTRA:                  -1.039
REMARK UNBOUND:                -1.142
REMARK  Name = 
REMARK  8 active torsions:
REMARK  status: ('A' for Active; 'I' for Inactive)
REMARK    1  A    between atoms: C_2  and  C_5
REMARK    2  A    between atoms: N_3  and  O_4
REMARK    3  A    between atoms: C_8  and  N_9
REMARK    4  A    between atoms: N_9  and  C_10
REMARK    5  A    between atoms: C_10  and  C_11
REMARK    6  A    between atoms: C_11  and  C_14
REMARK    7  A    between atoms: C_18  and  O_19
REMARK    8  A    between atoms: O_19  and  C_20
REMARK                            x       y       z     vdW  Elec       q    Type
REMARK                         _______ _______ _______ _____ _____    ______ ____
ROOT
ATOM      1  C   UNL     1      43.914   3.646  12.286  0.00  0.00    +0.000 C 
ENDROOT
BRANCH   1   2
ATOM      2  C   UNL     1      43.564   5.148  12.459  0.00  0.00    +0.000 C 
ATOM      3  F   UNL     1      42.694   5.523  11.477  0.00  0.00    +0.000 F 
ATOM      4  F   UNL     1      42.869   5.289  13.630  0.00  0.00    +0.000 F 
BRANCH   2   5
ATOM      5  C   UNL     1      44.837   5.970  12.439  0.00  0.00    +0.000 A 
ATOM      6  C   UNL     1      44.908   7.173  11.722  0.00  0.00    +0.000 A 
ATOM      7  C   UNL     1      46.058   7.961  11.782  0.00  0.00    +0.000 A 
ATOM      8  C   UNL     1      47.153   7.557  12.552  0.00  0.00    +0.000 A 
ATOM      9  C   UNL     1      47.099   6.357  13.254  0.00  0.00    +0.000 A 
ATOM     10  C   UNL     1      45.947   5.569  13.198  0.00  0.00    +0.000 A 
BRANCH   9  11
ATOM     11  O   UNL     1      48.092   5.877  14.069  0.00  0.00    +0.000 OA
BRANCH  11  12
ATOM     12  C   UNL     1      48.566   6.704  15.157  0.00  0.00    +0.000 C 
ATOM     13  C   UNL     1      50.056   7.103  15.163  0.00  0.00    +0.000 C 
ATOM     14  N   UNL     1      50.200   6.607  16.540  0.00  0.00    +0.000 NA
ATOM     15  C   UNL     1      48.894   5.935  16.452  0.00  0.00    +0.000 C 
ATOM     16  H   UNL     1      50.241   7.341  17.245  0.00  0.00    +0.000 HD
ENDBRANCH  11  12
ENDBRANCH   9  11
ENDBRANCH   2   5
ENDBRANCH   1   2
BRANCH   1  17
ATOM     17  N   UNL     1      43.391   3.058  11.042  0.00  0.00    +0.000 N 
ATOM     18  H   UNL     1      42.762   2.268  11.185  0.00  0.00    +0.000 HD
BRANCH  17  22
ATOM     19  C   UNL     1      46.005   2.907   7.738  0.00  0.00    +0.000 A 
ATOM     20  C   UNL     1      45.695   1.729   8.420  0.00  0.00    +0.000 A 
ATOM     21  C   UNL     1      44.818   1.761   9.510  0.00  0.00    +0.000 A 
ATOM     22  C   UNL     1      44.197   2.948   9.911  0.00  0.00    +0.000 A 
ATOM     23  C   UNL     1      44.512   4.121   9.207  0.00  0.00    +0.000 A 
ATOM     24  C   UNL     1      45.405   4.107   8.129  0.00  0.00    +0.000 A 
BRANCH  19  26
ATOM     25  O   UNL     1      46.873   3.601   5.647  0.00  0.00    +0.000 OA
ATOM     26  C   UNL     1      46.968   2.847   6.612  0.00  0.00    +0.000 C 
ATOM     27  N   UNL     1      47.930   1.866   6.693  0.00  0.00    +0.000 N 
ATOM     28  H   UNL     1      47.791   1.030   7.247  0.00  0.00    +0.000 HD
BRANCH  27  29
ATOM     29  O   UNL     1      48.715   1.709   5.523  0.00  0.00    +0.000 OA
ATOM     30  H   UNL     1      48.036   1.496   4.844  0.00  0.00    +0.000 HD
ENDBRANCH  27  29
ENDBRANCH  19  26
ENDBRANCH  17  22
ENDBRANCH   1  17
TORSDOF 8
ENDMDL
MODEL 7
REMARK VINA RESULT:    -7.602      2.399      8.473
REMARK INTER + INTRA:         -12.077
REMARK INTER:                 -11.351
REMARK INTRA:                  -0.726
REMARK UNBOUND:                -1.142
REMARK  Name = 
REMARK  8 active torsions:
REMARK  status: ('A' for Active; 'I' for Inactive)
REMARK    1  A    between atoms: C_2  and  C_5
REMARK    2  A    between atoms: N_3  and  O_4
REMARK    3  A    between atoms: C_8  and  N_9
REMARK    4  A    between atoms: N_9  and  C_10
REMARK    5  A    between atoms: C_10  and  C_11
REMARK    6  A    between atoms: C_11  and  C_14
REMARK    7  A    between atoms: C_18  and  O_19
REMARK    8  A    between atoms: O_19  and  C_20
REMARK                            x       y       z     vdW  Elec       q    Type
REMARK                         _______ _______ _______ _____ _____    ______ ____
ROOT
ATOM      1  C   UNL     1      45.653   5.992  12.647  0.00  0.00    +0.000 C 
ENDROOT
BRANCH   1   2
ATOM      2  C   UNL     1      45.634   6.169  11.106  0.00  0.00    +0.000 C 
ATOM      3  F   UNL     1      44.763   7.168  10.779  0.00  0.00    +0.000 F 
ATOM      4  F   UNL     1      46.866   6.622  10.716  0.00  0.00    +0.000 F 
BRANCH   2   5
ATOM      5  C   UNL     1      45.267   4.853  10.450  0.00  0.00    +0.000 A 
ATOM      6  C   UNL     1      44.496   3.899  11.129  0.00  0.00    +0.000 A 
ATOM      7  C   UNL     1      44.095   2.729  10.483  0.00  0.00    +0.000 A 
ATOM      8  C   UNL     1      44.461   2.494   9.155  0.00  0.00    +0.000 A 
ATOM      9  C   UNL     1      45.239   3.427   8.476  0.00  0.00    +0.000 A 
ATOM     10  C   UNL     1      45.638   4.600   9.121  0.00  0.00    +0.000 A 
BRANCH   9  11
ATOM     11  O   UNL     1      45.627   3.323   7.165  0.00  0.00    +0.000 OA
BRANCH  11  12
ATOM     12  C   UNL     1      47.032   3.171   6.860  0.00  0.00    +0.000 C 
ATOM     13  C   UNL     1      47.426   2.889   5.396  0.00  0.00    +0.000 C 
ATOM     14  N   UNL     1      48.213   1.720   5.816  0.00  0.00    +0.000 NA
ATOM     15  C   UNL     1      47.606   1.771   7.154  0.00  0.00    +0.000 C 
ATOM     16  H   UNL     1      49.220   1.872   5.812  0.00  0.00    +0.000 HD
ENDBRANCH  11  12
ENDBRANCH   9  11
ENDBRANCH   2   5
ENDBRANCH   1   2
BRANCH   1  17
ATOM     17  N   UNL     1      46.933   6.371  13.269  0.00  0.00    +0.000 N 
ATOM     18  H   UNL     1      47.651   6.661  12.605  0.00  0.00    +0.000 HD
BRANCH  17  22
ATOM     19  C   UNL     1      48.321   4.470  16.766  0.00  0.00    +0.000 A 
ATOM     20  C   UNL     1      47.427   3.798  15.931  0.00  0.00    +0.000 A 
ATOM     21  C   UNL     1      46.967   4.411  14.759  0.00  0.00    +0.000 A 
ATOM     22  C   UNL     1      47.423   5.674  14.372  0.00  0.00    +0.000 A 
ATOM     23  C   UNL     1      48.331   6.331  15.218  0.00  0.00    +0.000 A 
ATOM     24  C   UNL     1      48.780   5.739  16.404  0.00  0.00    +0.000 A 
BRANCH  19  26
ATOM     25  O   UNL     1      49.721   3.047  18.041  0.00  0.00    +0.000 OA
ATOM     26  C   UNL     1      48.759   3.810  18.020  0.00  0.00    +0.000 C 
ATOM     27  N   UNL     1      47.991   4.063  19.134  0.00  0.00    +0.000 N 
ATOM     28  H   UNL     1      47.022   4.349  19.058  0.00  0.00    +0.000 HD
BRANCH  27  29
ATOM     29  O   UNL     1      48.316   3.276  20.268  0.00  0.00    +0.000 OA
ATOM     30  H   UNL     1      48.710   2.474  19.858  0.00  0.00    +0.000 HD
ENDBRANCH  27  29
ENDBRANCH  19  26
ENDBRANCH  17  22
ENDBRANCH   1  17
TORSDOF 8
ENDMDL
MODEL 8
REMARK VINA RESULT:    -7.498      2.717      3.773
REMARK INTER + INTRA:         -11.927
REMARK INTER:                 -11.051
REMARK INTRA:                  -0.875
REMARK UNBOUND:                -1.142
REMARK  Name = 
REMARK  8 active torsions:
REMARK  status: ('A' for Active; 'I' for Inactive)
REMARK    1  A    between atoms: C_2  and  C_5
REMARK    2  A    between atoms: N_3  and  O_4
REMARK    3  A    between atoms: C_8  and  N_9
REMARK    4  A    between atoms: N_9  and  C_10
REMARK    5  A    between atoms: C_10  and  C_11
REMARK    6  A    between atoms: C_11  and  C_14
REMARK    7  A    between atoms: C_18  and  O_19
REMARK    8  A    between atoms: O_19  and  C_20
REMARK                            x       y       z     vdW  Elec       q    Type
REMARK                         _______ _______ _______ _____ _____    ______ ____
ROOT
ATOM      1  C   UNL     1      43.841   4.431  12.159  0.00  0.00    +0.000 C 
ENDROOT
BRANCH   1   2
ATOM      2  C   UNL     1      45.261   4.625  12.755  0.00  0.00    +0.000 C 
ATOM      3  F   UNL     1      45.231   4.336  14.089  0.00  0.00    +0.000 F 
ATOM      4  F   UNL     1      46.086   3.684  12.200  0.00  0.00    +0.000 F 
BRANCH   2   5
ATOM      5  C   UNL     1      45.733   6.040  12.487  0.00  0.00    +0.000 A 
ATOM      6  C   UNL     1      44.863   7.129  12.628  0.00  0.00    +0.000 A 
ATOM      7  C   UNL     1      45.334   8.433  12.460  0.00  0.00    +0.000 A 
ATOM      8  C   UNL     1      46.676   8.664  12.144  0.00  0.00    +0.000 A 
ATOM      9  C   UNL     1      47.545   7.589  11.987  0.00  0.00    +0.000 A 
ATOM     10  C   UNL     1      47.075   6.285  12.158  0.00  0.00    +0.000 A 
BRANCH   9  11
ATOM     11  O   UNL     1      48.885   7.693  11.716  0.00  0.00    +0.000 OA
BRANCH  11  12
ATOM     12  C   UNL     1      49.630   8.797  12.280  0.00  0.00    +0.000 C 
ATOM     13  C   UNL     1      50.162   9.876  11.316  0.00  0.00    +0.000 C 
ATOM     14  N   UNL     1      51.516   9.726  11.869  0.00  0.00    +0.000 NA
ATOM     15  C   UNL     1      51.115   8.492  12.562  0.00  0.00    +0.000 C 
ATOM     16  H   UNL     1      51.797  10.479  12.495  0.00  0.00    +0.000 HD
ENDBRANCH  11  12
ENDBRANCH   9  11
ENDBRANCH   2   5
ENDBRANCH   1   2
BRANCH   1  17
ATOM     17  N   UNL     1      43.758   4.738  10.721  0.00  0.00    +0.000 N 
ATOM     18  H   UNL     1      42.831   5.025  10.407  0.00  0.00    +0.000 HD
BRANCH  17  22
ATOM     19  C   UNL     1      46.141   2.562   8.009  0.00  0.00    +0.000 A 
ATOM     20  C   UNL     1      45.259   1.877   8.847  0.00  0.00    +0.000 A 
ATOM     21  C   UNL     1      44.451   2.587   9.743  0.00  0.00    +0.000 A 
ATOM     22  C   UNL     1      44.469   3.984   9.789  0.00  0.00    +0.000 A 
ATOM     23  C   UNL     1      45.354   4.656   8.932  0.00  0.00    +0.000 A 
ATOM     24  C   UNL     1      46.184   3.957   8.048  0.00  0.00    +0.000 A 
BRANCH  19  26
ATOM     25  O   UNL     1      47.152   0.566   7.233  0.00  0.00    +0.000 OA
ATOM     26  C   UNL     1      47.012   1.779   7.099  0.00  0.00    +0.000 C 
ATOM     27  N   UNL     1      47.687   2.500   6.141  0.00  0.00    +0.000 N 
ATOM     28  H   UNL     1      47.886   3.487   6.261  0.00  0.00    +0.000 HD
BRANCH  27  29
ATOM     29  O   UNL     1      48.651   1.759   5.411  0.00  0.00    +0.000 OA
ATOM     30  H   UNL     1      49.461   1.881   5.955  0.00  0.00    +0.000 HD
ENDBRANCH  27  29
ENDBRANCH  19  26
ENDBRANCH  17  22
ENDBRANCH   1  17
TORSDOF 8
ENDMDL
MODEL 9
REMARK VINA RESULT:    -7.133      3.085      7.255
REMARK INTER + INTRA:         -11.403
REMARK INTER:                 -10.664
REMARK INTRA:                  -0.739
REMARK UNBOUND:                -1.142
REMARK  Name = 
REMARK  8 active torsions:
REMARK  status: ('A' for Active; 'I' for Inactive)
REMARK    1  A    between atoms: C_2  and  C_5
REMARK    2  A    between atoms: N_3  and  O_4
REMARK    3  A    between atoms: C_8  and  N_9
REMARK    4  A    between atoms: N_9  and  C_10
REMARK    5  A    between atoms: C_10  and  C_11
REMARK    6  A    between atoms: C_11  and  C_14
REMARK    7  A    between atoms: C_18  and  O_19
REMARK    8  A    between atoms: O_19  and  C_20
REMARK                            x       y       z     vdW  Elec       q    Type
REMARK                         _______ _______ _______ _____ _____    ______ ____
ROOT
ATOM      1  C   UNL     1      44.539   5.857  12.636  0.00  0.00    +0.000 C 
ENDROOT
BRANCH   1   2
ATOM      2  C   UNL     1      44.190   6.023  11.133  0.00  0.00    +0.000 C 
ATOM      3  F   UNL     1      42.881   6.389  11.014  0.00  0.00    +0.000 F 
ATOM      4  F   UNL     1      44.907   7.083  10.646  0.00  0.00    +0.000 F 
BRANCH   2   5
ATOM      5  C   UNL     1      44.492   4.733  10.398  0.00  0.00    +0.000 A 
ATOM      6  C   UNL     1      43.985   3.508  10.852  0.00  0.00    +0.000 A 
ATOM      7  C   UNL     1      44.201   2.341  10.119  0.00  0.00    +0.000 A 
ATOM      8  C   UNL     1      44.930   2.380   8.926  0.00  0.00    +0.000 A 
ATOM      9  C   UNL     1      45.452   3.588   8.474  0.00  0.00    +0.000 A 
ATOM     10  C   UNL     1      45.233   4.757   9.206  0.00  0.00    +0.000 A 
BRANCH   9  11
ATOM     11  O   UNL     1      46.148   3.756   7.305  0.00  0.00    +0.000 OA
BRANCH  11  12
ATOM     12  C   UNL     1      46.581   2.587   6.573  0.00  0.00    +0.000 C 
ATOM     13  C   UNL     1      47.957   1.985   6.922  0.00  0.00    +0.000 C 
ATOM     14  N   UNL     1      48.354   2.030   5.507  0.00  0.00    +0.000 NA
ATOM     15  C   UNL     1      47.199   2.885   5.192  0.00  0.00    +0.000 C 
ATOM     16  H   UNL     1      48.337   1.125   5.040  0.00  0.00    +0.000 HD
ENDBRANCH  11  12
ENDBRANCH   9  11
ENDBRANCH   2   5
ENDBRANCH   1   2
BRANCH   1  17
ATOM     17  N   UNL     1      45.133   7.061  13.240  0.00  0.00    +0.000 N 
ATOM     18  H   UNL     1      44.503   7.862  13.284  0.00  0.00    +0.000 HD
BRANCH  17  22
ATOM     19  C   UNL     1      49.161   7.887  12.310  0.00  0.00    +0.000 A 
ATOM     20  C   UNL     1      48.228   8.925  12.290  0.00  0.00    +0.000 A 
ATOM     21  C   UNL     1      46.889   8.668  12.610  0.00  0.00    +0.000 A 
ATOM     22  C   UNL     1      46.465   7.395  13.001  0.00  0.00    +0.000 A 
ATOM     23  C   UNL     1      47.419   6.366  13.027  0.00  0.00    +0.000 A 
ATOM     24  C   UNL     1      48.756   6.604  12.686  0.00  0.00    +0.000 A 
BRANCH  19  26
ATOM     25  O   UNL     1      51.127   9.208  12.302  0.00  0.00    +0.000 OA
ATOM     26  C   UNL     1      50.564   8.182  11.928  0.00  0.00    +0.000 C 
ATOM     27  N   UNL     1      51.166   7.270  11.092  0.00  0.00    +0.000 N 
ATOM     28  H   UNL     1      50.624   6.664  10.487  0.00  0.00    +0.000 HD
BRANCH  27  29
ATOM     29  O   UNL     1      52.432   7.669  10.594  0.00  0.00    +0.000 OA
ATOM     30  H   UNL     1      52.731   8.310  11.277  0.00  0.00    +0.000 HD
ENDBRANCH  27  29
ENDBRANCH  19  26
ENDBRANCH  17  22
ENDBRANCH   1  17
TORSDOF 8
ENDMDL
