MODEL 1
REMARK VINA RESULT:    -9.125      0.000      0.000
REMARK INTER + INTRA:         -12.746
REMARK INTER:                 -11.792
REMARK INTRA:                  -0.954
REMARK UNBOUND:                -0.954
REMARK  Name = 
REMARK  5 active torsions:
REMARK  status: ('A' for Active; 'I' for Inactive)
REMARK    1  A    between atoms: C_2  and  C_4
REMARK    2  A    between atoms: N_8  and  C_9
REMARK    3  A    between atoms: C_9  and  C_10
REMARK    4  A    between atoms: C_10  and  C_13
REMARK    5  A    between atoms: C_17  and  N_18
REMARK                            x       y       z     vdW  Elec       q    Type
REMARK                         _______ _______ _______ _____ _____    ______ ____
ROOT
ATOM      1  C   UNL     1      43.591   4.603  12.509  0.00  0.00    +0.000 C 
ATOM      2  F   UNL     1      42.637   5.460  12.981  0.00  0.00    +0.000 F 
ATOM      3  F   UNL     1      43.389   3.430  13.180  0.00  0.00    +0.000 F 
ENDROOT
BRANCH   1   4
ATOM      4  C   UNL     1      44.994   5.144  12.704  0.00  0.00    +0.000 A 
ATOM      5  C   UNL     1      45.532   6.076  11.813  0.00  0.00    +0.000 A 
ATOM      6  C   UNL     1      46.790   6.620  12.055  0.00  0.00    +0.000 A 
ATOM      7  C   UNL     1      47.506   6.246  13.198  0.00  0.00    +0.000 A 
ATOM      8  C   UNL     1      47.002   5.319  14.122  0.00  0.00    +0.000 A 
ATOM      9  C   UNL     1      45.742   4.770  13.836  0.00  0.00    +0.000 A 
BRANCH   8  10
ATOM     10  N   UNL     1      47.695   4.986  15.263  0.00  0.00    +0.000 N 
ATOM     11  C   UNL     1      47.528   3.707  15.971  0.00  0.00    +0.000 C 
ATOM     12  C   UNL     1      47.175   3.972  17.441  0.00  0.00    +0.000 C 
ATOM     13  O   UNL     1      48.158   4.811  18.074  0.00  0.00    +0.000 OA
ATOM     14  C   UNL     1      48.250   6.074  17.394  0.00  0.00    +0.000 C 
ATOM     15  C   UNL     1      48.641   5.906  15.914  0.00  0.00    +0.000 C 
ENDBRANCH   8  10
ENDBRANCH   1   4
BRANCH   1  16
ATOM     16  C   UNL     1      43.340   4.365  10.998  0.00  0.00    +0.000 C 
BRANCH  16  21
ATOM     17  C   UNL     1      46.583   2.646   7.402  0.00  0.00    +0.000 A 
ATOM     18  C   UNL     1      46.146   3.930   7.703  0.00  0.00    +0.000 A 
ATOM     19  C   UNL     1      45.240   4.109   8.749  0.00  0.00    +0.000 A 
ATOM     20  C   UNL     1      44.775   3.008   9.466  0.00  0.00    +0.000 A 
ATOM     21  N   UNL     1      43.876   3.110  10.491  0.00  0.00    +0.000 N 
ATOM     22  N   UNL     1      45.190   1.761   9.175  0.00  0.00    +0.000 NA
ATOM     23  C   UNL     1      46.074   1.600   8.155  0.00  0.00    +0.000 A 
ATOM     24  H   UNL     1      43.593   2.227  10.905  0.00  0.00    +0.000 HD
BRANCH  17  26
ATOM     25  N   UNL     1      47.489   3.187   5.213  0.00  0.00    +0.000 N 
ATOM     26  C   UNL     1      47.524   2.359   6.302  0.00  0.00    +0.000 C 
ATOM     27  O   UNL     1      48.325   1.435   6.369  0.00  0.00    +0.000 OA
ATOM     28  H   UNL     1      48.203   3.033   4.512  0.00  0.00    +0.000 HD
ATOM     29  H   UNL     1      47.036   4.089   5.230  0.00  0.00    +0.000 HD
ENDBRANCH  17  26
ENDBRANCH  16  21
ENDBRANCH   1  16
TORSDOF 5
ENDMDL
MODEL 2
REMARK VINA RESULT:    -9.115      1.313      1.609
REMARK INTER + INTRA:         -12.733
REMARK INTER:                 -12.038
REMARK INTRA:                  -0.694
REMARK UNBOUND:                -0.954
REMARK  Name = 
REMARK  5 active torsions:
REMARK  status: ('A' for Active; 'I' for Inactive)
REMARK    1  A    between atoms: C_2  and  C_4
REMARK    2  A    between atoms: N_8  and  C_9
REMARK    3  A    between atoms: C_9  and  C_10
REMARK    4  A    between atoms: C_10  and  C_13
REMARK    5  A    between atoms: C_17  and  N_18
REMARK                            x       y       z     vdW  Elec       q    Type
REMARK                         _______ _______ _______ _____ _____    ______ ____
ROOT
ATOM      1  C   UNL     1      42.924   5.524  12.107  0.00  0.00    +0.000 C 
ATOM      2  F   UNL     1      41.933   6.403  11.775  0.00  0.00    +0.000 F 
ATOM      3  F   UNL     1      42.492   4.902  13.245  0.00  0.00    +0.000 F 
ENDROOT
BRANCH   1   4
ATOM      4  C   UNL     1      44.262   6.212  12.300  0.00  0.00    +0.000 A 
ATOM      5  C   UNL     1      44.482   7.498  11.801  0.00  0.00    +0.000 A 
ATOM      6  C   UNL     1      45.688   8.143  12.059  0.00  0.00    +0.000 A 
ATOM      7  C   UNL     1      46.670   7.510  12.829  0.00  0.00    +0.000 A 
ATOM      8  C   UNL     1      46.488   6.222  13.355  0.00  0.00    +0.000 A 
ATOM      9  C   UNL     1      45.271   5.589  13.057  0.00  0.00    +0.000 A 
BRANCH   8  10
ATOM     10  N   UNL     1      47.442   5.622  14.144  0.00  0.00    +0.000 N 
ATOM     11  C   UNL     1      47.330   4.245  14.650  0.00  0.00    +0.000 C 
ATOM     12  C   UNL     1      47.472   4.243  16.179  0.00  0.00    +0.000 C 
ATOM     13  O   UNL     1      48.701   4.867  16.592  0.00  0.00    +0.000 OA
ATOM     14  C   UNL     1      48.750   6.229  16.134  0.00  0.00    +0.000 C 
ATOM     15  C   UNL     1      48.652   6.326  14.600  0.00  0.00    +0.000 C 
ENDBRANCH   8  10
ENDBRANCH   1   4
BRANCH   1  16
ATOM     16  C   UNL     1      43.049   4.469  10.978  0.00  0.00    +0.000 C 
BRANCH  16  21
ATOM     17  C   UNL     1      46.393   2.332   7.713  0.00  0.00    +0.000 A 
ATOM     18  C   UNL     1      45.643   1.783   8.746  0.00  0.00    +0.000 A 
ATOM     19  C   UNL     1      44.805   2.615   9.490  0.00  0.00    +0.000 A 
ATOM     20  C   UNL     1      44.738   3.976   9.201  0.00  0.00    +0.000 A 
ATOM     21  N   UNL     1      43.950   4.850   9.899  0.00  0.00    +0.000 N 
ATOM     22  N   UNL     1      45.466   4.515   8.205  0.00  0.00    +0.000 NA
ATOM     23  C   UNL     1      46.277   3.694   7.487  0.00  0.00    +0.000 A 
ATOM     24  H   UNL     1      44.022   5.820   9.609  0.00  0.00    +0.000 HD
BRANCH  17  26
ATOM     25  N   UNL     1      48.412   2.173   6.371  0.00  0.00    +0.000 N 
ATOM     26  C   UNL     1      47.319   1.533   6.888  0.00  0.00    +0.000 C 
ATOM     27  O   UNL     1      47.135   0.338   6.693  0.00  0.00    +0.000 OA
ATOM     28  H   UNL     1      49.084   1.591   5.887  0.00  0.00    +0.000 HD
ATOM     29  H   UNL     1      48.729   3.069   6.711  0.00  0.00    +0.000 HD
ENDBRANCH  17  26
ENDBRANCH  16  21
ENDBRANCH   1  16
TORSDOF 5
ENDMDL
MODEL 3
REMARK VINA RESULT:    -8.946      2.434      3.352
REMARK INTER + INTRA:         -12.515
REMARK INTER:                 -11.508
REMARK INTRA:                  -1.007
REMARK UNBOUND:                -0.954
REMARK  Name = 
REMARK  5 active torsions:
REMARK  status: ('A' for Active; 'I' for Inactive)
REMARK    1  A    between atoms: C_2  and  C_4
REMARK    2  A    between atoms: N_8  and  C_9
REMARK    3  A    between atoms: C_9  and  C_10
REMARK    4  A    between atoms: C_10  and  C_13
REMARK    5  A    between atoms: C_17  and  N_18
REMARK                            x       y       z     vdW  Elec       q    Type
REMARK                         _______ _______ _______ _____ _____    ______ ____
ROOT
ATOM      1  C   UNL     1      43.348   5.736  11.994  0.00  0.00    +0.000 C 
ATOM      2  F   UNL     1      43.121   7.018  11.582  0.00  0.00    +0.000 F 
ATOM      3  F   UNL     1      42.337   5.451  12.868  0.00  0.00    +0.000 F 
ENDROOT
BRANCH   1   4
ATOM      4  C   UNL     1      44.717   5.568  12.623  0.00  0.00    +0.000 A 
ATOM      5  C   UNL     1      45.147   4.319  13.080  0.00  0.00    +0.000 A 
ATOM      6  C   UNL     1      46.437   4.171  13.579  0.00  0.00    +0.000 A 
ATOM      7  C   UNL     1      47.307   5.267  13.608  0.00  0.00    +0.000 A 
ATOM      8  C   UNL     1      46.920   6.536  13.154  0.00  0.00    +0.000 A 
ATOM      9  C   UNL     1      45.604   6.659  12.680  0.00  0.00    +0.000 A 
BRANCH   8  10
ATOM     10  N   UNL     1      47.793   7.600  13.150  0.00  0.00    +0.000 N 
ATOM     11  C   UNL     1      47.477   8.913  13.732  0.00  0.00    +0.000 C 
ATOM     12  C   UNL     1      47.677  10.009  12.675  0.00  0.00    +0.000 C 
ATOM     13  O   UNL     1      49.006   9.972  12.126  0.00  0.00    +0.000 OA
ATOM     14  C   UNL     1      49.258   8.698  11.512  0.00  0.00    +0.000 C 
ATOM     15  C   UNL     1      49.118   7.535  12.513  0.00  0.00    +0.000 C 
ENDBRANCH   8  10
ENDBRANCH   1   4
BRANCH   1  16
ATOM     16  C   UNL     1      43.229   4.794  10.769  0.00  0.00    +0.000 C 
BRANCH  16  21
ATOM     17  C   UNL     1      46.488   2.352   7.635  0.00  0.00    +0.000 A 
ATOM     18  C   UNL     1      45.688   1.883   8.670  0.00  0.00    +0.000 A 
ATOM     19  C   UNL     1      44.891   2.788   9.371  0.00  0.00    +0.000 A 
ATOM     20  C   UNL     1      44.914   4.141   9.041  0.00  0.00    +0.000 A 
ATOM     21  N   UNL     1      44.171   5.084   9.696  0.00  0.00    +0.000 N 
ATOM     22  N   UNL     1      45.692   4.602   8.043  0.00  0.00    +0.000 NA
ATOM     23  C   UNL     1      46.463   3.710   7.366  0.00  0.00    +0.000 A 
ATOM     24  H   UNL     1      44.309   6.038   9.379  0.00  0.00    +0.000 HD
BRANCH  17  26
ATOM     25  N   UNL     1      48.428   2.058   6.201  0.00  0.00    +0.000 N 
ATOM     26  C   UNL     1      47.377   1.472   6.852  0.00  0.00    +0.000 C 
ATOM     27  O   UNL     1      47.200   0.261   6.806  0.00  0.00    +0.000 OA
ATOM     28  H   UNL     1      49.080   1.430   5.747  0.00  0.00    +0.000 HD
ATOM     29  H   UNL     1      48.751   2.990   6.418  0.00  0.00    +0.000 HD
ENDBRANCH  17  26
ENDBRANCH  16  21
ENDBRANCH   1  16
TORSDOF 5
ENDMDL
MODEL 4
REMARK VINA RESULT:    -8.803      2.860      3.965
REMARK INTER + INTRA:         -12.330
REMARK INTER:                 -11.607
REMARK INTRA:                  -0.723
REMARK UNBOUND:                -0.954
REMARK  Name = 
REMARK  5 active torsions:
REMARK  status: ('A' for Active; 'I' for Inactive)
REMARK    1  A    between atoms: C_2  and  C_4
REMARK    2  A    between atoms: N_8  and  C_9
REMARK    3  A    between atoms: C_9  and  C_10
REMARK    4  A    between atoms: C_10  and  C_13
REMARK    5  A    between atoms: C_17  and  N_18
REMARK                            x       y       z     vdW  Elec       q    Type
REMARK                         _______ _______ _______ _____ _____    ______ ____
ROOT
ATOM      1  C   UNL     1      43.698   4.503  12.428  0.00  0.00    +0.000 C 
ATOM      2  F   UNL     1      42.693   4.788  13.309  0.00  0.00    +0.000 F 
ATOM      3  F   UNL     1      43.932   3.164  12.565  0.00  0.00    +0.000 F 
ENDROOT
BRANCH   1   4
ATOM      4  C   UNL     1      44.939   5.334  12.686  0.00  0.00    +0.000 A 
ATOM      5  C   UNL     1      46.175   4.723  12.916  0.00  0.00    +0.000 A 
ATOM      6  C   UNL     1      47.316   5.504  13.069  0.00  0.00    +0.000 A 
ATOM      7  C   UNL     1      47.229   6.897  12.976  0.00  0.00    +0.000 A 
ATOM      8  C   UNL     1      46.011   7.553  12.740  0.00  0.00    +0.000 A 
ATOM      9  C   UNL     1      44.874   6.738  12.615  0.00  0.00    +0.000 A 
BRANCH   8  10
ATOM     10  N   UNL     1      45.939   8.921  12.611  0.00  0.00    +0.000 N 
ATOM     11  C   UNL     1      44.690   9.647  12.336  0.00  0.00    +0.000 C 
ATOM     12  C   UNL     1      44.865  10.521  11.085  0.00  0.00    +0.000 C 
ATOM     13  O   UNL     1      45.985  11.414  11.223  0.00  0.00    +0.000 OA
ATOM     14  C   UNL     1      47.196  10.669  11.429  0.00  0.00    +0.000 C 
ATOM     15  C   UNL     1      47.125   9.788  12.691  0.00  0.00    +0.000 C 
ENDBRANCH   8  10
ENDBRANCH   1   4
BRANCH   1  16
ATOM     16  C   UNL     1      43.188   4.778  10.990  0.00  0.00    +0.000 C 
BRANCH  16  21
ATOM     17  C   UNL     1      46.498   2.583   7.729  0.00  0.00    +0.000 A 
ATOM     18  C   UNL     1      45.586   2.030   8.618  0.00  0.00    +0.000 A 
ATOM     19  C   UNL     1      44.804   2.879   9.402  0.00  0.00    +0.000 A 
ATOM     20  C   UNL     1      44.953   4.260   9.297  0.00  0.00    +0.000 A 
ATOM     21  N   UNL     1      44.231   5.149  10.044  0.00  0.00    +0.000 N 
ATOM     22  N   UNL     1      45.840   4.803   8.441  0.00  0.00    +0.000 NA
ATOM     23  C   UNL     1      46.595   3.964   7.682  0.00  0.00    +0.000 A 
ATOM     24  H   UNL     1      44.464   6.126   9.895  0.00  0.00    +0.000 HD
BRANCH  17  26
ATOM     25  N   UNL     1      48.451   2.386   6.296  0.00  0.00    +0.000 N 
ATOM     26  C   UNL     1      47.380   1.763   6.876  0.00  0.00    +0.000 C 
ATOM     27  O   UNL     1      47.179   0.566   6.712  0.00  0.00    +0.000 OA
ATOM     28  H   UNL     1      49.096   1.790   5.792  0.00  0.00    +0.000 HD
ATOM     29  H   UNL     1      48.790   3.286   6.605  0.00  0.00    +0.000 HD
ENDBRANCH  17  26
ENDBRANCH  16  21
ENDBRANCH   1  16
TORSDOF 5
ENDMDL
MODEL 5
REMARK VINA RESULT:    -8.604      1.885      2.340
REMARK INTER + INTRA:         -12.073
REMARK INTER:                 -11.015
REMARK INTRA:                  -1.057
REMARK UNBOUND:                -0.954
REMARK  Name = 
REMARK  5 active torsions:
REMARK  status: ('A' for Active; 'I' for Inactive)
REMARK    1  A    between atoms: C_2  and  C_4
REMARK    2  A    between atoms: N_8  and  C_9
REMARK    3  A    between atoms: C_9  and  C_10
REMARK    4  A    between atoms: C_10  and  C_13
REMARK    5  A    between atoms: C_17  and  N_18
REMARK                            x       y       z     vdW  Elec       q    Type
REMARK                         _______ _______ _______ _____ _____    ______ ____
ROOT
ATOM      1  C   UNL     1      44.004   4.072  12.613  0.00  0.00    +0.000 C 
ATOM      2  F   UNL     1      43.047   4.224  13.577  0.00  0.00    +0.000 F 
ATOM      3  F   UNL     1      44.795   3.046  13.046  0.00  0.00    +0.000 F 
ENDROOT
BRANCH   1   4
ATOM      4  C   UNL     1      44.790   5.347  12.378  0.00  0.00    +0.000 A 
ATOM      5  C   UNL     1      44.200   6.445  11.747  0.00  0.00    +0.000 A 
ATOM      6  C   UNL     1      44.913   7.633  11.614  0.00  0.00    +0.000 A 
ATOM      7  C   UNL     1      46.212   7.731  12.127  0.00  0.00    +0.000 A 
ATOM      8  C   UNL     1      46.840   6.656  12.773  0.00  0.00    +0.000 A 
ATOM      9  C   UNL     1      46.104   5.464  12.869  0.00  0.00    +0.000 A 
BRANCH   8  10
ATOM     10  N   UNL     1      48.102   6.772  13.308  0.00  0.00    +0.000 N 
ATOM     11  C   UNL     1      48.396   6.607  14.741  0.00  0.00    +0.000 C 
ATOM     12  C   UNL     1      49.123   7.854  15.266  0.00  0.00    +0.000 C 
ATOM     13  O   UNL     1      50.312   8.127  14.503  0.00  0.00    +0.000 OA
ATOM     14  C   UNL     1      49.981   8.343  13.121  0.00  0.00    +0.000 C 
ATOM     15  C   UNL     1      49.279   7.123  12.497  0.00  0.00    +0.000 C 
ENDBRANCH   8  10
ENDBRANCH   1   4
BRANCH   1  16
ATOM     16  C   UNL     1      43.312   3.647  11.293  0.00  0.00    +0.000 C 
BRANCH  16  21
ATOM     17  C   UNL     1      46.461   2.793   7.323  0.00  0.00    +0.000 A 
ATOM     18  C   UNL     1      45.891   3.966   7.805  0.00  0.00    +0.000 A 
ATOM     19  C   UNL     1      45.052   3.902   8.918  0.00  0.00    +0.000 A 
ATOM     20  C   UNL     1      44.785   2.676   9.522  0.00  0.00    +0.000 A 
ATOM     21  N   UNL     1      43.961   2.540  10.605  0.00  0.00    +0.000 N 
ATOM     22  N   UNL     1      45.329   1.536   9.056  0.00  0.00    +0.000 NA
ATOM     23  C   UNL     1      46.146   1.611   7.972  0.00  0.00    +0.000 A 
ATOM     24  H   UNL     1      43.823   1.586  10.924  0.00  0.00    +0.000 HD
BRANCH  17  26
ATOM     25  N   UNL     1      48.672   2.510   6.355  0.00  0.00    +0.000 N 
ATOM     26  C   UNL     1      47.345   2.762   6.141  0.00  0.00    +0.000 C 
ATOM     27  O   UNL     1      46.906   2.927   5.010  0.00  0.00    +0.000 OA
ATOM     28  H   UNL     1      49.245   2.399   5.528  0.00  0.00    +0.000 HD
ATOM     29  H   UNL     1      49.020   2.123   7.220  0.00  0.00    +0.000 HD
ENDBRANCH  17  26
ENDBRANCH  16  21
ENDBRANCH   1  16
TORSDOF 5
ENDMDL
MODEL 6
REMARK VINA RESULT:    -8.246      1.752      2.182
REMARK INTER + INTRA:         -11.611
REMARK INTER:                 -10.675
REMARK INTRA:                  -0.935
REMARK UNBOUND:                -0.954
REMARK  Name = 
REMARK  5 active torsions:
REMARK  status: ('A' for Active; 'I' for Inactive)
REMARK    1  A    between atoms: C_2  and  C_4
REMARK    2  A    between atoms: N_8  and  C_9
REMARK    3  A    between atoms: C_9  and  C_10
REMARK    4  A    between atoms: C_10  and  C_13
REMARK    5  A    between atoms: C_17  and  N_18
REMARK                            x       y       z     vdW  Elec       q    Type
REMARK                         _______ _______ _______ _____ _____    ______ ____
ROOT
ATOM      1  C   UNL     1      43.946   4.753  12.476  0.00  0.00    +0.000 C 
ATOM      2  F   UNL     1      42.958   4.825  13.417  0.00  0.00    +0.000 F 
ATOM      3  F   UNL     1      44.787   3.766  12.907  0.00  0.00    +0.000 F 
ENDROOT
BRANCH   1   4
ATOM      4  C   UNL     1      44.661   6.077  12.290  0.00  0.00    +0.000 A 
ATOM      5  C   UNL     1      44.067   7.116  11.568  0.00  0.00    +0.000 A 
ATOM      6  C   UNL     1      44.704   8.350  11.479  0.00  0.00    +0.000 A 
ATOM      7  C   UNL     1      45.929   8.554  12.125  0.00  0.00    +0.000 A 
ATOM      8  C   UNL     1      46.558   7.542  12.865  0.00  0.00    +0.000 A 
ATOM      9  C   UNL     1      45.902   6.301  12.915  0.00  0.00    +0.000 A 
BRANCH   8  10
ATOM     10  N   UNL     1      47.742   7.761  13.529  0.00  0.00    +0.000 N 
ATOM     11  C   UNL     1      48.513   6.697  14.191  0.00  0.00    +0.000 C 
ATOM     12  C   UNL     1      48.754   7.070  15.660  0.00  0.00    +0.000 C 
ATOM     13  O   UNL     1      49.399   8.351  15.777  0.00  0.00    +0.000 OA
ATOM     14  C   UNL     1      48.591   9.375  15.176  0.00  0.00    +0.000 C 
ATOM     15  C   UNL     1      48.329   9.102  13.683  0.00  0.00    +0.000 C 
ENDBRANCH   8  10
ENDBRANCH   1   4
BRANCH   1  16
ATOM     16  C   UNL     1      43.315   4.319  11.128  0.00  0.00    +0.000 C 
BRANCH  16  21
ATOM     17  C   UNL     1      46.540   2.687   7.475  0.00  0.00    +0.000 A 
ATOM     18  C   UNL     1      46.106   3.963   7.810  0.00  0.00    +0.000 A 
ATOM     19  C   UNL     1      45.205   4.117   8.864  0.00  0.00    +0.000 A 
ATOM     20  C   UNL     1      44.743   3.000   9.556  0.00  0.00    +0.000 A 
ATOM     21  N   UNL     1      43.849   3.076  10.588  0.00  0.00    +0.000 N 
ATOM     22  N   UNL     1      45.156   1.759   9.233  0.00  0.00    +0.000 NA
ATOM     23  C   UNL     1      46.035   1.623   8.205  0.00  0.00    +0.000 A 
ATOM     24  H   UNL     1      43.568   2.184  10.981  0.00  0.00    +0.000 HD
BRANCH  17  26
ATOM     25  N   UNL     1      47.425   3.270   5.289  0.00  0.00    +0.000 N 
ATOM     26  C   UNL     1      47.476   2.427   6.364  0.00  0.00    +0.000 C 
ATOM     27  O   UNL     1      48.287   1.510   6.412  0.00  0.00    +0.000 OA
ATOM     28  H   UNL     1      48.135   3.135   4.580  0.00  0.00    +0.000 HD
ATOM     29  H   UNL     1      46.963   4.168   5.322  0.00  0.00    +0.000 HD
ENDBRANCH  17  26
ENDBRANCH  16  21
ENDBRANCH   1  16
TORSDOF 5
ENDMDL
MODEL 7
REMARK VINA RESULT:    -7.785      3.835      5.295
REMARK INTER + INTRA:         -11.014
REMARK INTER:                 -10.111
REMARK INTRA:                  -0.903
REMARK UNBOUND:                -0.954
REMARK  Name = 
REMARK  5 active torsions:
REMARK  status: ('A' for Active; 'I' for Inactive)
REMARK    1  A    between atoms: C_2  and  C_4
REMARK    2  A    between atoms: N_8  and  C_9
REMARK    3  A    between atoms: C_9  and  C_10
REMARK    4  A    between atoms: C_10  and  C_13
REMARK    5  A    between atoms: C_17  and  N_18
REMARK                            x       y       z     vdW  Elec       q    Type
REMARK                         _______ _______ _______ _____ _____    ______ ____
ROOT
ATOM      1  C   UNL     1      44.435   5.547  12.291  0.00  0.00    +0.000 C 
ATOM      2  F   UNL     1      43.598   5.430  13.364  0.00  0.00    +0.000 F 
ATOM      3  F   UNL     1      45.408   4.608  12.485  0.00  0.00    +0.000 F 
ENDROOT
BRANCH   1   4
ATOM      4  C   UNL     1      45.004   6.946  12.156  0.00  0.00    +0.000 A 
ATOM      5  C   UNL     1      46.356   7.196  12.407  0.00  0.00    +0.000 A 
ATOM      6  C   UNL     1      46.875   8.470  12.199  0.00  0.00    +0.000 A 
ATOM      7  C   UNL     1      46.048   9.494  11.724  0.00  0.00    +0.000 A 
ATOM      8  C   UNL     1      44.688   9.286  11.452  0.00  0.00    +0.000 A 
ATOM      9  C   UNL     1      44.189   7.997  11.696  0.00  0.00    +0.000 A 
BRANCH   8  10
ATOM     10  N   UNL     1      43.890  10.288  10.949  0.00  0.00    +0.000 N 
ATOM     11  C   UNL     1      42.630  10.716  11.575  0.00  0.00    +0.000 C 
ATOM     12  C   UNL     1      41.489  10.634  10.551  0.00  0.00    +0.000 C 
ATOM     13  O   UNL     1      41.788  11.400   9.371  0.00  0.00    +0.000 OA
ATOM     14  C   UNL     1      42.990  10.916   8.750  0.00  0.00    +0.000 C 
ATOM     15  C   UNL     1      44.202  10.997   9.698  0.00  0.00    +0.000 C 
ENDBRANCH   8  10
ENDBRANCH   1   4
BRANCH   1  16
ATOM     16  C   UNL     1      43.645   5.191  11.006  0.00  0.00    +0.000 C 
BRANCH  16  21
ATOM     17  C   UNL     1      46.531   2.850   7.457  0.00  0.00    +0.000 A 
ATOM     18  C   UNL     1      46.375   4.195   7.769  0.00  0.00    +0.000 A 
ATOM     19  C   UNL     1      45.503   4.554   8.797  0.00  0.00    +0.000 A 
ATOM     20  C   UNL     1      44.791   3.573   9.484  0.00  0.00    +0.000 A 
ATOM     21  N   UNL     1      43.909   3.855  10.490  0.00  0.00    +0.000 N 
ATOM     22  N   UNL     1      44.933   2.268   9.182  0.00  0.00    +0.000 NA
ATOM     23  C   UNL     1      45.788   1.931   8.180  0.00  0.00    +0.000 A 
ATOM     24  H   UNL     1      43.431   3.050  10.882  0.00  0.00    +0.000 HD
BRANCH  17  26
ATOM     25  N   UNL     1      47.275   2.965   5.146  0.00  0.00    +0.000 N 
ATOM     26  C   UNL     1      47.416   2.379   6.374  0.00  0.00    +0.000 C 
ATOM     27  O   UNL     1      48.264   1.516   6.570  0.00  0.00    +0.000 OA
ATOM     28  H   UNL     1      47.952   2.697   4.442  0.00  0.00    +0.000 HD
ATOM     29  H   UNL     1      46.781   3.835   5.012  0.00  0.00    +0.000 HD
ENDBRANCH  17  26
ENDBRANCH  16  21
ENDBRANCH   1  16
TORSDOF 5
ENDMDL
MODEL 8
REMARK VINA RESULT:    -7.640      1.709      7.657
REMARK INTER + INTRA:         -10.827
REMARK INTER:                  -9.997
REMARK INTRA:                  -0.830
REMARK UNBOUND:                -0.954
REMARK  Name = 
REMARK  5 active torsions:
REMARK  status: ('A' for Active; 'I' for Inactive)
REMARK    1  A    between atoms: C_2  and  C_4
REMARK    2  A    between atoms: N_8  and  C_9
REMARK    3  A    between atoms: C_9  and  C_10
REMARK    4  A    between atoms: C_10  and  C_13
REMARK    5  A    between atoms: C_17  and  N_18
REMARK                            x       y       z     vdW  Elec       q    Type
REMARK                         _______ _______ _______ _____ _____    ______ ____
ROOT
ATOM      1  C   UNL     1      45.413   6.743  11.860  0.00  0.00    +0.000 C 
ATOM      2  F   UNL     1      45.000   7.200  13.079  0.00  0.00    +0.000 F 
ATOM      3  F   UNL     1      44.991   7.680  10.959  0.00  0.00    +0.000 F 
ENDROOT
BRANCH   1   4
ATOM      4  C   UNL     1      44.871   5.361  11.550  0.00  0.00    +0.000 A 
ATOM      5  C   UNL     1      43.936   4.754  12.393  0.00  0.00    +0.000 A 
ATOM      6  C   UNL     1      43.390   3.521  12.048  0.00  0.00    +0.000 A 
ATOM      7  C   UNL     1      43.766   2.900  10.852  0.00  0.00    +0.000 A 
ATOM      8  C   UNL     1      44.695   3.476   9.973  0.00  0.00    +0.000 A 
ATOM      9  C   UNL     1      45.246   4.708  10.362  0.00  0.00    +0.000 A 
BRANCH   8  10
ATOM     10  N   UNL     1      45.030   2.877   8.781  0.00  0.00    +0.000 N 
ATOM     11  C   UNL     1      45.141   1.420   8.605  0.00  0.00    +0.000 C 
ATOM     12  C   UNL     1      46.527   1.072   8.043  0.00  0.00    +0.000 C 
ATOM     13  O   UNL     1      46.788   1.781   6.818  0.00  0.00    +0.000 OA
ATOM     14  C   UNL     1      46.732   3.200   7.039  0.00  0.00    +0.000 C 
ATOM     15  C   UNL     1      45.358   3.648   7.571  0.00  0.00    +0.000 C 
ENDBRANCH   8  10
ENDBRANCH   1   4
BRANCH   1  16
ATOM     16  C   UNL     1      46.962   6.699  11.847  0.00  0.00    +0.000 C 
BRANCH  16  21
ATOM     17  C   UNL     1      47.865   4.097  16.186  0.00  0.00    +0.000 A 
ATOM     18  C   UNL     1      47.186   3.739  15.028  0.00  0.00    +0.000 A 
ATOM     19  C   UNL     1      47.087   4.665  13.988  0.00  0.00    +0.000 A 
ATOM     20  C   UNL     1      47.652   5.931  14.124  0.00  0.00    +0.000 A 
ATOM     21  N   UNL     1      47.579   6.891  13.153  0.00  0.00    +0.000 N 
ATOM     22  N   UNL     1      48.306   6.286  15.247  0.00  0.00    +0.000 NA
ATOM     23  C   UNL     1      48.397   5.374  16.251  0.00  0.00    +0.000 A 
ATOM     24  H   UNL     1      48.001   7.781  13.395  0.00  0.00    +0.000 HD
BRANCH  17  26
ATOM     25  N   UNL     1      46.863   2.610  17.826  0.00  0.00    +0.000 N 
ATOM     26  C   UNL     1      48.003   3.191  17.343  0.00  0.00    +0.000 C 
ATOM     27  O   UNL     1      49.097   2.946  17.836  0.00  0.00    +0.000 OA
ATOM     28  H   UNL     1      46.987   1.921  18.557  0.00  0.00    +0.000 HD
ATOM     29  H   UNL     1      46.001   2.583  17.301  0.00  0.00    +0.000 HD
ENDBRANCH  17  26
ENDBRANCH  16  21
ENDBRANCH   1  16
TORSDOF 5
ENDMDL
MODEL 9
REMARK VINA RESULT:    -7.215      3.304      7.181
REMARK INTER + INTRA:         -10.277
REMARK INTER:                  -9.143
REMARK INTRA:                  -1.134
REMARK UNBOUND:                -0.954
REMARK  Name = 
REMARK  5 active torsions:
REMARK  status: ('A' for Active; 'I' for Inactive)
REMARK    1  A    between atoms: C_2  and  C_4
REMARK    2  A    between atoms: N_8  and  C_9
REMARK    3  A    between atoms: C_9  and  C_10
REMARK    4  A    between atoms: C_10  and  C_13
REMARK    5  A    between atoms: C_17  and  N_18
REMARK                            x       y       z     vdW  Elec       q    Type
REMARK                         _______ _______ _______ _____ _____    ______ ____
ROOT
ATOM      1  C   UNL     1      46.575   4.285  13.796  0.00  0.00    +0.000 C 
ATOM      2  F   UNL     1      47.285   3.132  13.980  0.00  0.00    +0.000 F 
ATOM      3  F   UNL     1      46.211   4.691  15.049  0.00  0.00    +0.000 F 
ENDROOT
BRANCH   1   4
ATOM      4  C   UNL     1      45.380   4.085  12.885  0.00  0.00    +0.000 A 
ATOM      5  C   UNL     1      44.096   4.448  13.300  0.00  0.00    +0.000 A 
ATOM      6  C   UNL     1      43.025   4.331  12.418  0.00  0.00    +0.000 A 
ATOM      7  C   UNL     1      43.238   3.866  11.115  0.00  0.00    +0.000 A 
ATOM      8  C   UNL     1      44.511   3.497  10.656  0.00  0.00    +0.000 A 
ATOM      9  C   UNL     1      45.566   3.603  11.576  0.00  0.00    +0.000 A 
BRANCH   8  10
ATOM     10  N   UNL     1      44.718   3.078   9.362  0.00  0.00    +0.000 N 
ATOM     11  C   UNL     1      44.854   1.665   8.977  0.00  0.00    +0.000 C 
ATOM     12  C   UNL     1      46.172   1.460   8.216  0.00  0.00    +0.000 C 
ATOM     13  O   UNL     1      46.262   2.337   7.078  0.00  0.00    +0.000 OA
ATOM     14  C   UNL     1      46.188   3.709   7.497  0.00  0.00    +0.000 C 
ATOM     15  C   UNL     1      44.874   4.017   8.239  0.00  0.00    +0.000 C 
ENDBRANCH   8  10
ENDBRANCH   1   4
BRANCH   1  16
ATOM     16  C   UNL     1      47.516   5.351  13.179  0.00  0.00    +0.000 C 
BRANCH  16  21
ATOM     17  C   UNL     1      44.606   9.279  11.594  0.00  0.00    +0.000 A 
ATOM     18  C   UNL     1      44.823   8.021  11.047  0.00  0.00    +0.000 A 
ATOM     19  C   UNL     1      45.686   7.139  11.698  0.00  0.00    +0.000 A 
ATOM     20  C   UNL     1      46.327   7.529  12.872  0.00  0.00    +0.000 A 
ATOM     21  N   UNL     1      47.196   6.722  13.553  0.00  0.00    +0.000 N 
ATOM     22  N   UNL     1      46.126   8.750  13.404  0.00  0.00    +0.000 NA
ATOM     23  C   UNL     1      45.281   9.598  12.760  0.00  0.00    +0.000 A 
ATOM     24  H   UNL     1      47.621   7.143  14.372  0.00  0.00    +0.000 HD
BRANCH  17  26
ATOM     25  N   UNL     1      43.236   9.998   9.720  0.00  0.00    +0.000 N 
ATOM     26  C   UNL     1      43.726  10.283  10.965  0.00  0.00    +0.000 C 
ATOM     27  O   UNL     1      43.422  11.319  11.542  0.00  0.00    +0.000 OA
ATOM     28  H   UNL     1      42.561  10.652   9.344  0.00  0.00    +0.000 HD
ATOM     29  H   UNL     1      43.253   9.067   9.328  0.00  0.00    +0.000 HD
ENDBRANCH  17  26
ENDBRANCH  16  21
ENDBRANCH   1  16
TORSDOF 5
ENDMDL
