MODEL 1
REMARK VINA RESULT:    -9.438      0.000      0.000
REMARK INTER + INTRA:         -13.264
REMARK INTER:                 -12.196
REMARK INTRA:                  -1.067
REMARK UNBOUND:                -1.067
REMARK  Name = 
REMARK  5 active torsions:
REMARK  status: ('A' for Active; 'I' for Inactive)
REMARK    1  A    between atoms: C_2  and  C_3
REMARK    2  A    between atoms: C_7  and  C_8
REMARK    3  A    between atoms: C_12  and  C_13
REMARK    4  A    between atoms: C_13  and  N_14
REMARK    5  A    between atoms: C_18  and  C_19
REMARK                            x       y       z     vdW  Elec       q    Type
REMARK                         _______ _______ _______ _____ _____    ______ ____
ROOT
ATOM      1  C   UNL     1      43.890   5.105  11.143  0.00  0.00    +0.000 C 
ATOM      2  C   UNL     1      42.645   5.885  11.572  0.00  0.00    +0.000 C 
ATOM      3  C   UNL     1      42.642   4.399  11.638  0.00  0.00    +0.000 C 
ENDROOT
BRANCH   1   4
ATOM      4  N   UNL     1      44.230   5.112   9.709  0.00  0.00    +0.000 N 
ATOM      5  C   UNL     1      45.031   4.148   9.083  0.00  0.00    +0.000 A 
ATOM      6  C   UNL     1      45.026   2.803   9.438  0.00  0.00    +0.000 A 
ATOM      7  C   UNL     1      45.749   1.878   8.682  0.00  0.00    +0.000 A 
ATOM      8  C   UNL     1      46.479   2.322   7.587  0.00  0.00    +0.000 A 
ATOM      9  C   UNL     1      46.473   3.682   7.320  0.00  0.00    +0.000 A 
ATOM     10  N   UNL     1      45.756   4.591   8.033  0.00  0.00    +0.000 NA
ATOM     11  H   UNL     1      44.518   6.006   9.314  0.00  0.00    +0.000 HD
BRANCH   8  12
ATOM     12  C   UNL     1      47.257   1.416   6.714  0.00  0.00    +0.000 C 
ATOM     13  N   UNL     1      48.281   1.968   5.991  0.00  0.00    +0.000 N 
ATOM     14  O   UNL     1      47.023   0.219   6.668  0.00  0.00    +0.000 OA
ATOM     15  H   UNL     1      48.657   2.885   6.182  0.00  0.00    +0.000 HD
ATOM     16  H   UNL     1      48.867   1.321   5.478  0.00  0.00    +0.000 HD
ENDBRANCH   8  12
ENDBRANCH   1   4
BRANCH   1  21
ATOM     17  C   UNL     1      47.200   6.569  12.501  0.00  0.00    +0.000 A 
ATOM     18  C   UNL     1      47.365   5.794  13.660  0.00  0.00    +0.000 A 
ATOM     19  C   UNL     1      46.432   4.814  14.017  0.00  0.00    +0.000 A 
ATOM     20  C   UNL     1      45.312   4.580  13.220  0.00  0.00    +0.000 A 
ATOM     21  C   UNL     1      45.097   5.319  12.053  0.00  0.00    +0.000 A 
ATOM     22  C   UNL     1      46.063   6.297  11.719  0.00  0.00    +0.000 A 
BRANCH  17  27
ATOM     23  C   UNL     1      50.406   8.353  11.457  0.00  0.00    +0.000 A 
ATOM     24  C   UNL     1      49.997   9.687  11.441  0.00  0.00    +0.000 A 
ATOM     25  C   UNL     1      48.681  10.006  11.759  0.00  0.00    +0.000 A 
ATOM     26  C   UNL     1      47.774   8.993  12.085  0.00  0.00    +0.000 A 
ATOM     27  C   UNL     1      48.157   7.637  12.119  0.00  0.00    +0.000 A 
ATOM     28  C   UNL     1      49.495   7.343  11.799  0.00  0.00    +0.000 A 
BRANCH  23  30
ATOM     29  N   UNL     1      52.858   7.740  10.869  0.00  0.00    +0.000 NA
ATOM     30  C   UNL     1      51.761   8.015  11.131  0.00  0.00    +0.000 C 
ENDBRANCH  23  30
ENDBRANCH  17  27
ENDBRANCH   1  21
TORSDOF 5
ENDMDL
MODEL 2
REMARK VINA RESULT:    -8.788      2.376      3.901
REMARK INTER + INTRA:         -12.425
REMARK INTER:                 -11.430
REMARK INTRA:                  -0.994
REMARK UNBOUND:                -1.067
REMARK  Name = 
REMARK  5 active torsions:
REMARK  status: ('A' for Active; 'I' for Inactive)
REMARK    1  A    between atoms: C_2  and  C_3
REMARK    2  A    between atoms: C_7  and  C_8
REMARK    3  A    between atoms: C_12  and  C_13
REMARK    4  A    between atoms: C_13  and  N_14
REMARK    5  A    between atoms: C_18  and  C_19
REMARK                            x       y       z     vdW  Elec       q    Type
REMARK                         _______ _______ _______ _____ _____    ______ ____
ROOT
ATOM      1  C   UNL     1      43.997   5.052  11.301  0.00  0.00    +0.000 C 
ATOM      2  C   UNL     1      42.619   5.451  11.836  0.00  0.00    +0.000 C 
ATOM      3  C   UNL     1      43.114   4.063  12.038  0.00  0.00    +0.000 C 
ENDROOT
BRANCH   1   4
ATOM      4  N   UNL     1      44.157   4.973   9.838  0.00  0.00    +0.000 N 
ATOM      5  C   UNL     1      44.985   4.053   9.184  0.00  0.00    +0.000 A 
ATOM      6  C   UNL     1      45.185   2.751   9.632  0.00  0.00    +0.000 A 
ATOM      7  C   UNL     1      45.917   1.849   8.856  0.00  0.00    +0.000 A 
ATOM      8  C   UNL     1      46.448   2.273   7.645  0.00  0.00    +0.000 A 
ATOM      9  C   UNL     1      46.246   3.596   7.285  0.00  0.00    +0.000 A 
ATOM     10  N   UNL     1      45.518   4.480   8.019  0.00  0.00    +0.000 NA
ATOM     11  H   UNL     1      44.285   5.855   9.345  0.00  0.00    +0.000 HD
BRANCH   8  12
ATOM     12  C   UNL     1      47.217   1.387   6.746  0.00  0.00    +0.000 C 
ATOM     13  N   UNL     1      48.260   1.945   6.056  0.00  0.00    +0.000 N 
ATOM     14  O   UNL     1      46.959   0.198   6.649  0.00  0.00    +0.000 OA
ATOM     15  H   UNL     1      48.653   2.846   6.287  0.00  0.00    +0.000 HD
ATOM     16  H   UNL     1      48.839   1.306   5.523  0.00  0.00    +0.000 HD
ENDBRANCH   8  12
ENDBRANCH   1   4
BRANCH   1  21
ATOM     17  C   UNL     1      46.847   5.729  13.825  0.00  0.00    +0.000 A 
ATOM     18  C   UNL     1      47.305   6.973  13.365  0.00  0.00    +0.000 A 
ATOM     19  C   UNL     1      46.721   7.598  12.257  0.00  0.00    +0.000 A 
ATOM     20  C   UNL     1      45.658   6.994  11.584  0.00  0.00    +0.000 A 
ATOM     21  C   UNL     1      45.158   5.757  11.999  0.00  0.00    +0.000 A 
ATOM     22  C   UNL     1      45.768   5.157  13.126  0.00  0.00    +0.000 A 
BRANCH  17  27
ATOM     23  C   UNL     1      48.886   5.056  16.979  0.00  0.00    +0.000 A 
ATOM     24  C   UNL     1      48.708   3.682  17.144  0.00  0.00    +0.000 A 
ATOM     25  C   UNL     1      47.920   2.977  16.241  0.00  0.00    +0.000 A 
ATOM     26  C   UNL     1      47.305   3.645  15.178  0.00  0.00    +0.000 A 
ATOM     27  C   UNL     1      47.471   5.030  14.976  0.00  0.00    +0.000 A 
ATOM     28  C   UNL     1      48.278   5.718  15.902  0.00  0.00    +0.000 A 
BRANCH  23  30
ATOM     29  N   UNL     1      50.355   6.384  18.654  0.00  0.00    +0.000 NA
ATOM     30  C   UNL     1      49.697   5.790  17.905  0.00  0.00    +0.000 C 
ENDBRANCH  23  30
ENDBRANCH  17  27
ENDBRANCH   1  21
TORSDOF 5
ENDMDL
MODEL 3
REMARK VINA RESULT:    -7.634      2.412      3.280
REMARK INTER + INTRA:         -10.932
REMARK INTER:                 -10.380
REMARK INTRA:                  -0.552
REMARK UNBOUND:                -1.067
REMARK  Name = 
REMARK  5 active torsions:
REMARK  status: ('A' for Active; 'I' for Inactive)
REMARK    1  A    between atoms: C_2  and  C_3
REMARK    2  A    between atoms: C_7  and  C_8
REMARK    3  A    between atoms: C_12  and  C_13
REMARK    4  A    between atoms: C_13  and  N_14
REMARK    5  A    between atoms: C_18  and  C_19
REMARK                            x       y       z     vdW  Elec       q    Type
REMARK                         _______ _______ _______ _____ _____    ______ ____
ROOT
ATOM      1  C   UNL     1      43.833   5.432  11.161  0.00  0.00    +0.000 C 
ATOM      2  C   UNL     1      42.396   5.377  11.685  0.00  0.00    +0.000 C 
ATOM      3  C   UNL     1      43.372   4.335  12.101  0.00  0.00    +0.000 C 
ENDROOT
BRANCH   1   4
ATOM      4  N   UNL     1      44.040   5.157   9.728  0.00  0.00    +0.000 N 
ATOM      5  C   UNL     1      44.841   4.120   9.232  0.00  0.00    +0.000 A 
ATOM      6  C   UNL     1      44.955   2.879   9.850  0.00  0.00    +0.000 A 
ATOM      7  C   UNL     1      45.664   1.850   9.228  0.00  0.00    +0.000 A 
ATOM      8  C   UNL     1      46.261   2.088   7.996  0.00  0.00    +0.000 A 
ATOM      9  C   UNL     1      46.143   3.361   7.462  0.00  0.00    +0.000 A 
ATOM     10  N   UNL     1      45.437   4.367   8.046  0.00  0.00    +0.000 NA
ATOM     11  H   UNL     1      44.233   5.961   9.133  0.00  0.00    +0.000 HD
BRANCH   8  12
ATOM     12  C   UNL     1      47.013   1.057   7.250  0.00  0.00    +0.000 C 
ATOM     13  N   UNL     1      46.769  -0.252   7.570  0.00  0.00    +0.000 N 
ATOM     14  O   UNL     1      47.791   1.355   6.358  0.00  0.00    +0.000 OA
ATOM     15  H   UNL     1      45.973  -0.545   8.117  0.00  0.00    +0.000 HD
ATOM     16  H   UNL     1      47.214  -0.948   6.984  0.00  0.00    +0.000 HD
ENDBRANCH   8  12
ENDBRANCH   1   4
BRANCH   1  21
ATOM     17  C   UNL     1      46.524   7.473  13.042  0.00  0.00    +0.000 A 
ATOM     18  C   UNL     1      46.165   8.777  12.666  0.00  0.00    +0.000 A 
ATOM     19  C   UNL     1      45.080   9.014  11.816  0.00  0.00    +0.000 A 
ATOM     20  C   UNL     1      44.321   7.952  11.325  0.00  0.00    +0.000 A 
ATOM     21  C   UNL     1      44.630   6.632  11.668  0.00  0.00    +0.000 A 
ATOM     22  C   UNL     1      45.730   6.430  12.535  0.00  0.00    +0.000 A 
BRANCH  17  27
ATOM     23  C   UNL     1      48.731   5.957  15.760  0.00  0.00    +0.000 A 
ATOM     24  C   UNL     1      49.906   6.697  15.618  0.00  0.00    +0.000 A 
ATOM     25  C   UNL     1      49.986   7.679  14.636  0.00  0.00    +0.000 A 
ATOM     26  C   UNL     1      48.895   7.917  13.794  0.00  0.00    +0.000 A 
ATOM     27  C   UNL     1      47.692   7.193  13.915  0.00  0.00    +0.000 A 
ATOM     28  C   UNL     1      47.637   6.210  14.920  0.00  0.00    +0.000 A 
BRANCH  23  30
ATOM     29  N   UNL     1      48.570   4.124  17.589  0.00  0.00    +0.000 NA
ATOM     30  C   UNL     1      48.641   4.943  16.769  0.00  0.00    +0.000 C 
ENDBRANCH  23  30
ENDBRANCH  17  27
ENDBRANCH   1  21
TORSDOF 5
ENDMDL
MODEL 4
REMARK VINA RESULT:    -7.380      3.456      7.136
REMARK INTER + INTRA:         -10.604
REMARK INTER:                 -10.441
REMARK INTRA:                  -0.163
REMARK UNBOUND:                -1.067
REMARK  Name = 
REMARK  5 active torsions:
REMARK  status: ('A' for Active; 'I' for Inactive)
REMARK    1  A    between atoms: C_2  and  C_3
REMARK    2  A    between atoms: C_7  and  C_8
REMARK    3  A    between atoms: C_12  and  C_13
REMARK    4  A    between atoms: C_13  and  N_14
REMARK    5  A    between atoms: C_18  and  C_19
REMARK                            x       y       z     vdW  Elec       q    Type
REMARK                         _______ _______ _______ _____ _____    ______ ____
ROOT
ATOM      1  C   UNL     1      45.904   7.402  11.978  0.00  0.00    +0.000 C 
ATOM      2  C   UNL     1      45.022   8.368  12.772  0.00  0.00    +0.000 C 
ATOM      3  C   UNL     1      45.734   8.849  11.558  0.00  0.00    +0.000 C 
ENDROOT
BRANCH   1   4
ATOM      4  N   UNL     1      47.152   6.946  12.617  0.00  0.00    +0.000 N 
ATOM      5  C   UNL     1      47.210   6.014  13.660  0.00  0.00    +0.000 A 
ATOM      6  C   UNL     1      46.343   4.930  13.766  0.00  0.00    +0.000 A 
ATOM      7  C   UNL     1      46.545   3.967  14.757  0.00  0.00    +0.000 A 
ATOM      8  C   UNL     1      47.609   4.115  15.638  0.00  0.00    +0.000 A 
ATOM      9  C   UNL     1      48.403   5.243  15.501  0.00  0.00    +0.000 A 
ATOM     10  N   UNL     1      48.232   6.177  14.527  0.00  0.00    +0.000 NA
ATOM     11  H   UNL     1      47.830   7.668  12.857  0.00  0.00    +0.000 HD
BRANCH   8  12
ATOM     12  C   UNL     1      47.916   3.138  16.704  0.00  0.00    +0.000 C 
ATOM     13  N   UNL     1      46.957   2.928  17.659  0.00  0.00    +0.000 N 
ATOM     14  O   UNL     1      48.966   2.515  16.715  0.00  0.00    +0.000 OA
ATOM     15  H   UNL     1      46.000   3.233  17.553  0.00  0.00    +0.000 HD
ATOM     16  H   UNL     1      47.139   2.186  18.323  0.00  0.00    +0.000 HD
ENDBRANCH   8  12
ENDBRANCH   1   4
BRANCH   1  21
ATOM     17  C   UNL     1      45.094   4.496   9.559  0.00  0.00    +0.000 A 
ATOM     18  C   UNL     1      43.786   4.187   9.962  0.00  0.00    +0.000 A 
ATOM     19  C   UNL     1      43.159   4.888  10.998  0.00  0.00    +0.000 A 
ATOM     20  C   UNL     1      43.826   5.923  11.655  0.00  0.00    +0.000 A 
ATOM     21  C   UNL     1      45.129   6.277  11.295  0.00  0.00    +0.000 A 
ATOM     22  C   UNL     1      45.729   5.552  10.239  0.00  0.00    +0.000 A 
BRANCH  17  27
ATOM     23  C   UNL     1      46.583   1.633   7.525  0.00  0.00    +0.000 A 
ATOM     24  C   UNL     1      47.177   2.317   6.463  0.00  0.00    +0.000 A 
ATOM     25  C   UNL     1      47.086   3.703   6.402  0.00  0.00    +0.000 A 
ATOM     26  C   UNL     1      46.397   4.404   7.397  0.00  0.00    +0.000 A 
ATOM     27  C   UNL     1      45.793   3.745   8.486  0.00  0.00    +0.000 A 
ATOM     28  C   UNL     1      45.905   2.343   8.527  0.00  0.00    +0.000 A 
BRANCH  23  30
ATOM     29  N   UNL     1      46.744  -0.954   7.655  0.00  0.00    +0.000 NA
ATOM     30  C   UNL     1      46.672   0.204   7.595  0.00  0.00    +0.000 C 
ENDBRANCH  23  30
ENDBRANCH  17  27
ENDBRANCH   1  21
TORSDOF 5
ENDMDL
MODEL 5
REMARK VINA RESULT:    -6.863      4.195      8.198
REMARK INTER + INTRA:          -9.936
REMARK INTER:                  -8.849
REMARK INTRA:                  -1.088
REMARK UNBOUND:                -1.067
REMARK  Name = 
REMARK  5 active torsions:
REMARK  status: ('A' for Active; 'I' for Inactive)
REMARK    1  A    between atoms: C_2  and  C_3
REMARK    2  A    between atoms: C_7  and  C_8
REMARK    3  A    between atoms: C_12  and  C_13
REMARK    4  A    between atoms: C_13  and  N_14
REMARK    5  A    between atoms: C_18  and  C_19
REMARK                            x       y       z     vdW  Elec       q    Type
REMARK                         _______ _______ _______ _____ _____    ______ ____
ROOT
ATOM      1  C   UNL     1      49.095   8.378  12.625  0.00  0.00    +0.000 C 
ATOM      2  C   UNL     1      49.855   9.152  11.545  0.00  0.00    +0.000 C 
ATOM      3  C   UNL     1      50.141   7.707  11.755  0.00  0.00    +0.000 C 
ENDROOT
BRANCH   1   4
ATOM      4  N   UNL     1      49.389   8.715  14.030  0.00  0.00    +0.000 N 
ATOM      5  C   UNL     1      48.962   7.958  15.128  0.00  0.00    +0.000 A 
ATOM      6  C   UNL     1      48.866   6.570  15.110  0.00  0.00    +0.000 A 
ATOM      7  C   UNL     1      48.563   5.875  16.282  0.00  0.00    +0.000 A 
ATOM      8  C   UNL     1      48.346   6.587  17.455  0.00  0.00    +0.000 A 
ATOM      9  C   UNL     1      48.413   7.970  17.387  0.00  0.00    +0.000 A 
ATOM     10  N   UNL     1      48.730   8.659  16.259  0.00  0.00    +0.000 NA
ATOM     11  H   UNL     1      49.261   9.689  14.301  0.00  0.00    +0.000 HD
BRANCH   8  12
ATOM     12  C   UNL     1      48.040   5.940  18.749  0.00  0.00    +0.000 C 
ATOM     13  N   UNL     1      46.744   5.558  18.969  0.00  0.00    +0.000 N 
ATOM     14  O   UNL     1      48.914   5.718  19.573  0.00  0.00    +0.000 OA
ATOM     15  H   UNL     1      46.055   5.501  18.233  0.00  0.00    +0.000 HD
ATOM     16  H   UNL     1      46.570   5.026  19.814  0.00  0.00    +0.000 HD
ENDBRANCH   8  12
ENDBRANCH   1   4
BRANCH   1  21
ATOM     17  C   UNL     1      45.769   6.812  11.428  0.00  0.00    +0.000 A 
ATOM     18  C   UNL     1      44.870   7.836  11.763  0.00  0.00    +0.000 A 
ATOM     19  C   UNL     1      45.308   9.017  12.372  0.00  0.00    +0.000 A 
ATOM     20  C   UNL     1      46.661   9.207  12.654  0.00  0.00    +0.000 A 
ATOM     21  C   UNL     1      47.603   8.223  12.339  0.00  0.00    +0.000 A 
ATOM     22  C   UNL     1      47.126   7.045  11.720  0.00  0.00    +0.000 A 
BRANCH  17  27
ATOM     23  C   UNL     1      45.330   3.950   8.943  0.00  0.00    +0.000 A 
ATOM     24  C   UNL     1      44.431   3.123   9.618  0.00  0.00    +0.000 A 
ATOM     25  C   UNL     1      43.977   3.488  10.881  0.00  0.00    +0.000 A 
ATOM     26  C   UNL     1      44.425   4.674  11.471  0.00  0.00    +0.000 A 
ATOM     27  C   UNL     1      45.325   5.536  10.813  0.00  0.00    +0.000 A 
ATOM     28  C   UNL     1      45.764   5.146   9.535  0.00  0.00    +0.000 A 
BRANCH  23  30
ATOM     29  N   UNL     1      46.187   3.286   6.586  0.00  0.00    +0.000 NA
ATOM     30  C   UNL     1      45.803   3.582   7.641  0.00  0.00    +0.000 C 
ENDBRANCH  23  30
ENDBRANCH  17  27
ENDBRANCH   1  21
TORSDOF 5
ENDMDL
MODEL 6
REMARK VINA RESULT:    -6.776      4.699      8.117
REMARK INTER + INTRA:          -9.823
REMARK INTER:                  -8.860
REMARK INTRA:                  -0.963
REMARK UNBOUND:                -1.067
REMARK  Name = 
REMARK  5 active torsions:
REMARK  status: ('A' for Active; 'I' for Inactive)
REMARK    1  A    between atoms: C_2  and  C_3
REMARK    2  A    between atoms: C_7  and  C_8
REMARK    3  A    between atoms: C_12  and  C_13
REMARK    4  A    between atoms: C_13  and  N_14
REMARK    5  A    between atoms: C_18  and  C_19
REMARK                            x       y       z     vdW  Elec       q    Type
REMARK                         _______ _______ _______ _____ _____    ______ ____
ROOT
ATOM      1  C   UNL     1      48.794   7.845  16.046  0.00  0.00    +0.000 C 
ATOM      2  C   UNL     1      48.246   9.156  16.616  0.00  0.00    +0.000 C 
ATOM      3  C   UNL     1      49.706   8.876  16.684  0.00  0.00    +0.000 C 
ENDROOT
BRANCH   1   4
ATOM      4  N   UNL     1      48.450   6.602  16.760  0.00  0.00    +0.000 N 
ATOM      5  C   UNL     1      49.319   5.515  16.914  0.00  0.00    +0.000 A 
ATOM      6  C   UNL     1      50.692   5.652  17.086  0.00  0.00    +0.000 A 
ATOM      7  C   UNL     1      51.477   4.532  17.368  0.00  0.00    +0.000 A 
ATOM      8  C   UNL     1      50.870   3.285  17.459  0.00  0.00    +0.000 A 
ATOM      9  C   UNL     1      49.505   3.219  17.231  0.00  0.00    +0.000 A 
ATOM     10  N   UNL     1      48.724   4.304  16.978  0.00  0.00    +0.000 NA
ATOM     11  H   UNL     1      47.538   6.197  16.555  0.00  0.00    +0.000 HD
BRANCH   8  12
ATOM     12  C   UNL     1      51.613   2.047  17.775  0.00  0.00    +0.000 C 
ATOM     13  N   UNL     1      52.688   2.156  18.616  0.00  0.00    +0.000 N 
ATOM     14  O   UNL     1      51.262   0.963  17.334  0.00  0.00    +0.000 OA
ATOM     15  H   UNL     1      52.860   2.973  19.184  0.00  0.00    +0.000 HD
ATOM     16  H   UNL     1      53.123   1.288  18.903  0.00  0.00    +0.000 HD
ENDBRANCH   8  12
ENDBRANCH   1   4
BRANCH   1  21
ATOM     17  C   UNL     1      47.337   6.921  12.587  0.00  0.00    +0.000 A 
ATOM     18  C   UNL     1      48.324   7.454  11.743  0.00  0.00    +0.000 A 
ATOM     19  C   UNL     1      49.447   8.109  12.263  0.00  0.00    +0.000 A 
ATOM     20  C   UNL     1      49.612   8.242  13.641  0.00  0.00    +0.000 A 
ATOM     21  C   UNL     1      48.663   7.729  14.530  0.00  0.00    +0.000 A 
ATOM     22  C   UNL     1      47.544   7.067  13.970  0.00  0.00    +0.000 A 
BRANCH  17  27
ATOM     23  C   UNL     1      44.945   5.057  10.271  0.00  0.00    +0.000 A 
ATOM     24  C   UNL     1      43.778   5.023  11.035  0.00  0.00    +0.000 A 
ATOM     25  C   UNL     1      43.770   5.595  12.303  0.00  0.00    +0.000 A 
ATOM     26  C   UNL     1      44.928   6.194  12.809  0.00  0.00    +0.000 A 
ATOM     27  C   UNL     1      46.121   6.252  12.060  0.00  0.00    +0.000 A 
ATOM     28  C   UNL     1      46.100   5.671  10.779  0.00  0.00    +0.000 A 
BRANCH  23  30
ATOM     29  N   UNL     1      44.977   3.997   7.903  0.00  0.00    +0.000 NA
ATOM     30  C   UNL     1      44.962   4.470   8.963  0.00  0.00    +0.000 C 
ENDBRANCH  23  30
ENDBRANCH  17  27
ENDBRANCH   1  21
TORSDOF 5
ENDMDL
MODEL 7
REMARK VINA RESULT:    -6.748      5.589      8.542
REMARK INTER + INTRA:          -9.788
REMARK INTER:                  -8.770
REMARK INTRA:                  -1.018
REMARK UNBOUND:                -1.067
REMARK  Name = 
REMARK  5 active torsions:
REMARK  status: ('A' for Active; 'I' for Inactive)
REMARK    1  A    between atoms: C_2  and  C_3
REMARK    2  A    between atoms: C_7  and  C_8
REMARK    3  A    between atoms: C_12  and  C_13
REMARK    4  A    between atoms: C_13  and  N_14
REMARK    5  A    between atoms: C_18  and  C_19
REMARK                            x       y       z     vdW  Elec       q    Type
REMARK                         _______ _______ _______ _____ _____    ______ ____
ROOT
ATOM      1  C   UNL     1      49.129   6.183  17.579  0.00  0.00    +0.000 C 
ATOM      2  C   UNL     1      48.170   7.056  18.392  0.00  0.00    +0.000 C 
ATOM      3  C   UNL     1      49.621   7.053  18.719  0.00  0.00    +0.000 C 
ENDROOT
BRANCH   1   4
ATOM      4  N   UNL     1      49.016   4.722  17.742  0.00  0.00    +0.000 N 
ATOM      5  C   UNL     1      50.094   3.833  17.649  0.00  0.00    +0.000 A 
ATOM      6  C   UNL     1      51.379   4.139  18.086  0.00  0.00    +0.000 A 
ATOM      7  C   UNL     1      52.371   3.157  18.085  0.00  0.00    +0.000 A 
ATOM      8  C   UNL     1      52.060   1.881  17.629  0.00  0.00    +0.000 A 
ATOM      9  C   UNL     1      50.772   1.662  17.167  0.00  0.00    +0.000 A 
ATOM     10  N   UNL     1      49.790   2.602  17.183  0.00  0.00    +0.000 NA
ATOM     11  H   UNL     1      48.243   4.268  17.259  0.00  0.00    +0.000 HD
BRANCH   8  12
ATOM     12  C   UNL     1      53.036   0.771  17.610  0.00  0.00    +0.000 C 
ATOM     13  N   UNL     1      52.733  -0.344  18.346  0.00  0.00    +0.000 N 
ATOM     14  O   UNL     1      54.052   0.827  16.936  0.00  0.00    +0.000 OA
ATOM     15  H   UNL     1      51.810  -0.527  18.712  0.00  0.00    +0.000 HD
ATOM     16  H   UNL     1      53.359  -1.133  18.242  0.00  0.00    +0.000 HD
ENDBRANCH   8  12
ENDBRANCH   1   4
BRANCH   1  21
ATOM     17  C   UNL     1      48.348   6.608  13.816  0.00  0.00    +0.000 A 
ATOM     18  C   UNL     1      49.456   7.367  13.410  0.00  0.00    +0.000 A 
ATOM     19  C   UNL     1      50.447   7.751  14.320  0.00  0.00    +0.000 A 
ATOM     20  C   UNL     1      50.357   7.378  15.661  0.00  0.00    +0.000 A 
ATOM     21  C   UNL     1      49.277   6.619  16.123  0.00  0.00    +0.000 A 
ATOM     22  C   UNL     1      48.297   6.244  15.174  0.00  0.00    +0.000 A 
BRANCH  17  27
ATOM     23  C   UNL     1      45.357   4.796  12.291  0.00  0.00    +0.000 A 
ATOM     24  C   UNL     1      45.234   5.438  11.057  0.00  0.00    +0.000 A 
ATOM     25  C   UNL     1      46.113   6.464  10.726  0.00  0.00    +0.000 A 
ATOM     26  C   UNL     1      47.109   6.851  11.628  0.00  0.00    +0.000 A 
ATOM     27  C   UNL     1      47.266   6.218  12.877  0.00  0.00    +0.000 A 
ATOM     28  C   UNL     1      46.367   5.180  13.185  0.00  0.00    +0.000 A 
BRANCH  23  30
ATOM     29  N   UNL     1      43.724   2.881  12.921  0.00  0.00    +0.000 NA
ATOM     30  C   UNL     1      44.455   3.737  12.640  0.00  0.00    +0.000 C 
ENDBRANCH  23  30
ENDBRANCH  17  27
ENDBRANCH   1  21
TORSDOF 5
ENDMDL
MODEL 8
REMARK VINA RESULT:    -6.464      4.089      6.776
REMARK INTER + INTRA:          -9.421
REMARK INTER:                  -8.381
REMARK INTRA:                  -1.040
REMARK UNBOUND:                -1.067
REMARK  Name = 
REMARK  5 active torsions:
REMARK  status: ('A' for Active; 'I' for Inactive)
REMARK    1  A    between atoms: C_2  and  C_3
REMARK    2  A    between atoms: C_7  and  C_8
REMARK    3  A    between atoms: C_12  and  C_13
REMARK    4  A    between atoms: C_13  and  N_14
REMARK    5  A    between atoms: C_18  and  C_19
REMARK                            x       y       z     vdW  Elec       q    Type
REMARK                         _______ _______ _______ _____ _____    ______ ____
ROOT
ATOM      1  C   UNL     1      48.919   7.970  12.791  0.00  0.00    +0.000 C 
ATOM      2  C   UNL     1      50.274   8.355  12.192  0.00  0.00    +0.000 C 
ATOM      3  C   UNL     1      49.055   9.113  11.803  0.00  0.00    +0.000 C 
ENDROOT
BRANCH   1   4
ATOM      4  N   UNL     1      48.338   6.681  12.374  0.00  0.00    +0.000 N 
ATOM      5  C   UNL     1      46.964   6.434  12.264  0.00  0.00    +0.000 A 
ATOM      6  C   UNL     1      46.047   7.389  11.837  0.00  0.00    +0.000 A 
ATOM      7  C   UNL     1      44.714   7.033  11.622  0.00  0.00    +0.000 A 
ATOM      8  C   UNL     1      44.319   5.722  11.855  0.00  0.00    +0.000 A 
ATOM      9  C   UNL     1      45.276   4.836  12.323  0.00  0.00    +0.000 A 
ATOM     10  N   UNL     1      46.583   5.163  12.514  0.00  0.00    +0.000 NA
ATOM     11  H   UNL     1      48.734   5.844  12.800  0.00  0.00    +0.000 HD
BRANCH   8  12
ATOM     12  C   UNL     1      42.936   5.244  11.637  0.00  0.00    +0.000 C 
ATOM     13  N   UNL     1      41.930   6.167  11.741  0.00  0.00    +0.000 N 
ATOM     14  O   UNL     1      42.702   4.084  11.337  0.00  0.00    +0.000 OA
ATOM     15  H   UNL     1      42.095   7.163  11.744  0.00  0.00    +0.000 HD
ATOM     16  H   UNL     1      41.002   5.849  11.490  0.00  0.00    +0.000 HD
ENDBRANCH   8  12
ENDBRANCH   1   4
BRANCH   1  21
ATOM     17  C   UNL     1      48.775   7.276  16.592  0.00  0.00    +0.000 A 
ATOM     18  C   UNL     1      48.623   8.581  17.084  0.00  0.00    +0.000 A 
ATOM     19  C   UNL     1      48.571   9.682  16.221  0.00  0.00    +0.000 A 
ATOM     20  C   UNL     1      48.664   9.502  14.840  0.00  0.00    +0.000 A 
ATOM     21  C   UNL     1      48.814   8.224  14.293  0.00  0.00    +0.000 A 
ATOM     22  C   UNL     1      48.856   7.135  15.194  0.00  0.00    +0.000 A 
BRANCH  17  27
ATOM     23  C   UNL     1      49.487   3.757  17.883  0.00  0.00    +0.000 A 
ATOM     24  C   UNL     1      48.990   3.826  19.185  0.00  0.00    +0.000 A 
ATOM     25  C   UNL     1      48.435   5.015  19.647  0.00  0.00    +0.000 A 
ATOM     26  C   UNL     1      48.382   6.134  18.811  0.00  0.00    +0.000 A 
ATOM     27  C   UNL     1      48.867   6.096  17.488  0.00  0.00    +0.000 A 
ATOM     28  C   UNL     1      49.418   4.880  17.045  0.00  0.00    +0.000 A 
BRANCH  23  30
ATOM     29  N   UNL     1      50.526   1.548  17.005  0.00  0.00    +0.000 NA
ATOM     30  C   UNL     1      50.061   2.536  17.399  0.00  0.00    +0.000 C 
ENDBRANCH  23  30
ENDBRANCH  17  27
ENDBRANCH   1  21
TORSDOF 5
ENDMDL
