MODEL 1
REMARK VINA RESULT:    -9.671      0.000      0.000
REMARK INTER + INTRA:         -12.234
REMARK INTER:                 -11.933
REMARK INTRA:                  -0.301
REMARK UNBOUND:                -0.301
REMARK  Name = 
REMARK  4 active torsions:
REMARK  status: ('A' for Active; 'I' for Inactive)
REMARK    1  A    between atoms: C_2  and  C_4
REMARK    2  A    between atoms: N_8  and  C_9
REMARK    3  A    between atoms: C_9  and  C_10
REMARK    4  A    between atoms: C_14  and  C_15
REMARK                            x       y       z     vdW  Elec       q    Type
REMARK                         _______ _______ _______ _____ _____    ______ ____
ROOT
ATOM      1  C   UNL     1      44.033   4.807  11.678  0.00  0.00    +0.000 C 
ATOM      2  C   UNL     1      42.797   5.153  12.496  0.00  0.00    +0.000 C 
ATOM      3  C   UNL     1      43.055   5.886  11.225  0.00  0.00    +0.000 C 
ENDROOT
BRANCH   1   8
ATOM      4  C   UNL     1      46.394   2.738   7.559  0.00  0.00    +0.000 A 
ATOM      5  C   UNL     1      46.133   4.069   7.870  0.00  0.00    +0.000 A 
ATOM      6  C   UNL     1      45.357   4.362   8.993  0.00  0.00    +0.000 A 
ATOM      7  C   UNL     1      44.860   3.332   9.787  0.00  0.00    +0.000 A 
ATOM      8  N   UNL     1      44.069   3.555  10.915  0.00  0.00    +0.000 N 
ATOM      9  N   UNL     1      45.097   2.039   9.484  0.00  0.00    +0.000 NA
ATOM     10  C   UNL     1      45.842   1.768   8.380  0.00  0.00    +0.000 A 
ATOM     11  H   UNL     1      43.903   2.667  11.380  0.00  0.00    +0.000 HD
BRANCH   4  13
ATOM     12  N   UNL     1      47.187   3.143   5.298  0.00  0.00    +0.000 N 
ATOM     13  C   UNL     1      47.204   2.323   6.394  0.00  0.00    +0.000 C 
ATOM     14  O   UNL     1      47.886   1.309   6.414  0.00  0.00    +0.000 OA
ATOM     15  H   UNL     1      47.818   2.902   4.547  0.00  0.00    +0.000 HD
ATOM     16  H   UNL     1      46.840   4.093   5.329  0.00  0.00    +0.000 HD
ENDBRANCH   4  13
ENDBRANCH   1   8
BRANCH   1  17
ATOM     17  C   UNL     1      45.392   5.324  12.141  0.00  0.00    +0.000 A 
ATOM     18  C   UNL     1      46.049   6.368  11.476  0.00  0.00    +0.000 A 
ATOM     19  C   UNL     1      47.216   6.932  11.995  0.00  0.00    +0.000 A 
ATOM     20  C   UNL     1      47.744   6.462  13.199  0.00  0.00    +0.000 A 
ATOM     21  C   UNL     1      47.128   5.413  13.898  0.00  0.00    +0.000 A 
ATOM     22  C   UNL     1      45.981   4.842  13.324  0.00  0.00    +0.000 A 
BRANCH  21  23
ATOM     23  C   UNL     1      47.569   4.992  15.242  0.00  0.00    +0.000 A 
ATOM     24  C   UNL     1      48.455   5.797  15.984  0.00  0.00    +0.000 A 
ATOM     25  C   UNL     1      48.811   5.476  17.296  0.00  0.00    +0.000 A 
ATOM     26  C   UNL     1      48.281   4.342  17.900  0.00  0.00    +0.000 A 
ATOM     27  C   UNL     1      47.408   3.536  17.183  0.00  0.00    +0.000 A 
ATOM     28  F   UNL     1      46.877   2.456  17.769  0.00  0.00    +0.000 F 
ATOM     29  C   UNL     1      47.058   3.842  15.869  0.00  0.00    +0.000 A 
ENDBRANCH  21  23
ENDBRANCH   1  17
TORSDOF 4
ENDMDL
MODEL 2
REMARK VINA RESULT:    -9.292      2.522      3.929
REMARK INTER + INTRA:         -11.766
REMARK INTER:                 -11.342
REMARK INTRA:                  -0.424
REMARK UNBOUND:                -0.301
REMARK  Name = 
REMARK  4 active torsions:
REMARK  status: ('A' for Active; 'I' for Inactive)
REMARK    1  A    between atoms: C_2  and  C_4
REMARK    2  A    between atoms: N_8  and  C_9
REMARK    3  A    between atoms: C_9  and  C_10
REMARK    4  A    between atoms: C_14  and  C_15
REMARK                            x       y       z     vdW  Elec       q    Type
REMARK                         _______ _______ _______ _____ _____    ______ ____
ROOT
ATOM      1  C   UNL     1      43.745   4.843  11.593  0.00  0.00    +0.000 C 
ATOM      2  C   UNL     1      42.412   5.335  12.140  0.00  0.00    +0.000 C 
ATOM      3  C   UNL     1      43.034   6.049  10.989  0.00  0.00    +0.000 C 
ENDROOT
BRANCH   1   8
ATOM      4  C   UNL     1      46.371   2.765   7.641  0.00  0.00    +0.000 A 
ATOM      5  C   UNL     1      46.145   4.099   7.968  0.00  0.00    +0.000 A 
ATOM      6  C   UNL     1      45.285   4.402   9.025  0.00  0.00    +0.000 A 
ATOM      7  C   UNL     1      44.670   3.378   9.740  0.00  0.00    +0.000 A 
ATOM      8  N   UNL     1      43.791   3.610  10.799  0.00  0.00    +0.000 N 
ATOM      9  N   UNL     1      44.873   2.082   9.421  0.00  0.00    +0.000 NA
ATOM     10  C   UNL     1      45.702   1.803   8.380  0.00  0.00    +0.000 A 
ATOM     11  H   UNL     1      43.543   2.721  11.220  0.00  0.00    +0.000 HD
BRANCH   4  13
ATOM     12  N   UNL     1      47.181   3.038   5.367  0.00  0.00    +0.000 N 
ATOM     13  C   UNL     1      47.263   2.341   6.542  0.00  0.00    +0.000 C 
ATOM     14  O   UNL     1      48.063   1.427   6.680  0.00  0.00    +0.000 OA
ATOM     15  H   UNL     1      47.860   2.804   4.657  0.00  0.00    +0.000 HD
ATOM     16  H   UNL     1      46.719   3.935   5.292  0.00  0.00    +0.000 HD
ENDBRANCH   4  13
ENDBRANCH   1   8
BRANCH   1  17
ATOM     17  C   UNL     1      45.022   5.167  12.362  0.00  0.00    +0.000 A 
ATOM     18  C   UNL     1      45.584   4.262  13.273  0.00  0.00    +0.000 A 
ATOM     19  C   UNL     1      46.829   4.504  13.856  0.00  0.00    +0.000 A 
ATOM     20  C   UNL     1      47.540   5.661  13.529  0.00  0.00    +0.000 A 
ATOM     21  C   UNL     1      47.017   6.601  12.629  0.00  0.00    +0.000 A 
ATOM     22  C   UNL     1      45.744   6.344  12.096  0.00  0.00    +0.000 A 
BRANCH  21  23
ATOM     23  C   UNL     1      47.802   7.755  12.147  0.00  0.00    +0.000 A 
ATOM     24  C   UNL     1      47.237   9.045  12.138  0.00  0.00    +0.000 A 
ATOM     25  C   UNL     1      47.987  10.169  11.783  0.00  0.00    +0.000 A 
ATOM     26  C   UNL     1      49.325  10.028  11.435  0.00  0.00    +0.000 A 
ATOM     27  C   UNL     1      49.897   8.763  11.436  0.00  0.00    +0.000 A 
ATOM     28  F   UNL     1      51.192   8.627  11.125  0.00  0.00    +0.000 F 
ATOM     29  C   UNL     1      49.153   7.635  11.776  0.00  0.00    +0.000 A 
ENDBRANCH  21  23
ENDBRANCH   1  17
TORSDOF 4
ENDMDL
MODEL 3
REMARK VINA RESULT:    -8.125      4.465      7.889
REMARK INTER + INTRA:         -10.326
REMARK INTER:                  -9.925
REMARK INTRA:                  -0.401
REMARK UNBOUND:                -0.301
REMARK  Name = 
REMARK  4 active torsions:
REMARK  status: ('A' for Active; 'I' for Inactive)
REMARK    1  A    between atoms: C_2  and  C_4
REMARK    2  A    between atoms: N_8  and  C_9
REMARK    3  A    between atoms: C_9  and  C_10
REMARK    4  A    between atoms: C_14  and  C_15
REMARK                            x       y       z     vdW  Elec       q    Type
REMARK                         _______ _______ _______ _____ _____    ______ ____
ROOT
ATOM      1  C   UNL     1      48.542   7.717  12.909  0.00  0.00    +0.000 C 
ATOM      2  C   UNL     1      49.713   7.344  12.011  0.00  0.00    +0.000 C 
ATOM      3  C   UNL     1      49.346   8.780  12.167  0.00  0.00    +0.000 C 
ENDROOT
BRANCH   1   8
ATOM      4  C   UNL     1      47.839   4.370  16.798  0.00  0.00    +0.000 A 
ATOM      5  C   UNL     1      47.223   4.443  15.552  0.00  0.00    +0.000 A 
ATOM      6  C   UNL     1      47.499   5.530  14.722  0.00  0.00    +0.000 A 
ATOM      7  C   UNL     1      48.383   6.521  15.140  0.00  0.00    +0.000 A 
ATOM      8  N   UNL     1      48.694   7.640  14.366  0.00  0.00    +0.000 N 
ATOM      9  N   UNL     1      48.974   6.466  16.352  0.00  0.00    +0.000 NA
ATOM     10  C   UNL     1      48.685   5.408  17.156  0.00  0.00    +0.000 A 
ATOM     11  H   UNL     1      49.422   8.171  14.834  0.00  0.00    +0.000 HD
BRANCH   4  13
ATOM     12  N   UNL     1      48.497   3.143  18.789  0.00  0.00    +0.000 N 
ATOM     13  C   UNL     1      47.614   3.261  17.749  0.00  0.00    +0.000 C 
ATOM     14  O   UNL     1      46.666   2.498  17.635  0.00  0.00    +0.000 OA
ATOM     15  H   UNL     1      48.280   2.443  19.485  0.00  0.00    +0.000 HD
ATOM     16  H   UNL     1      49.136   3.881  19.053  0.00  0.00    +0.000 HD
ENDBRANCH   4  13
ENDBRANCH   1   8
BRANCH   1  17
ATOM     17  C   UNL     1      47.122   7.508  12.393  0.00  0.00    +0.000 A 
ATOM     18  C   UNL     1      46.161   8.527  12.446  0.00  0.00    +0.000 A 
ATOM     19  C   UNL     1      44.914   8.375  11.836  0.00  0.00    +0.000 A 
ATOM     20  C   UNL     1      44.610   7.196  11.153  0.00  0.00    +0.000 A 
ATOM     21  C   UNL     1      45.535   6.144  11.079  0.00  0.00    +0.000 A 
ATOM     22  C   UNL     1      46.761   6.316  11.740  0.00  0.00    +0.000 A 
BRANCH  21  23
ATOM     23  C   UNL     1      45.307   4.949  10.243  0.00  0.00    +0.000 A 
ATOM     24  C   UNL     1      44.573   3.858  10.747  0.00  0.00    +0.000 A 
ATOM     25  C   UNL     1      44.255   2.757   9.947  0.00  0.00    +0.000 A 
ATOM     26  C   UNL     1      44.659   2.727   8.618  0.00  0.00    +0.000 A 
ATOM     27  C   UNL     1      45.386   3.793   8.105  0.00  0.00    +0.000 A 
ATOM     28  F   UNL     1      45.757   3.778   6.819  0.00  0.00    +0.000 F 
ATOM     29  C   UNL     1      45.718   4.889   8.900  0.00  0.00    +0.000 A 
ENDBRANCH  21  23
ENDBRANCH   1  17
TORSDOF 4
ENDMDL
MODEL 4
REMARK VINA RESULT:    -7.706      4.353      7.506
REMARK INTER + INTRA:          -9.809
REMARK INTER:                  -9.229
REMARK INTRA:                  -0.579
REMARK UNBOUND:                -0.301
REMARK  Name = 
REMARK  4 active torsions:
REMARK  status: ('A' for Active; 'I' for Inactive)
REMARK    1  A    between atoms: C_2  and  C_4
REMARK    2  A    between atoms: N_8  and  C_9
REMARK    3  A    between atoms: C_9  and  C_10
REMARK    4  A    between atoms: C_14  and  C_15
REMARK                            x       y       z     vdW  Elec       q    Type
REMARK                         _______ _______ _______ _____ _____    ______ ____
ROOT
ATOM      1  C   UNL     1      45.036   6.419  12.181  0.00  0.00    +0.000 C 
ATOM      2  C   UNL     1      44.872   7.582  11.212  0.00  0.00    +0.000 C 
ATOM      3  C   UNL     1      43.827   7.346  12.248  0.00  0.00    +0.000 C 
ENDROOT
BRANCH   1   8
ATOM      4  C   UNL     1      49.920   7.957  12.964  0.00  0.00    +0.000 A 
ATOM      5  C   UNL     1      49.291   7.515  11.803  0.00  0.00    +0.000 A 
ATOM      6  C   UNL     1      47.986   7.029  11.883  0.00  0.00    +0.000 A 
ATOM      7  C   UNL     1      47.326   6.994  13.108  0.00  0.00    +0.000 A 
ATOM      8  N   UNL     1      46.026   6.510  13.260  0.00  0.00    +0.000 N 
ATOM      9  N   UNL     1      47.933   7.407  14.241  0.00  0.00    +0.000 NA
ATOM     10  C   UNL     1      49.210   7.865  14.151  0.00  0.00    +0.000 A 
ATOM     11  H   UNL     1      45.727   6.668  14.218  0.00  0.00    +0.000 HD
BRANCH   4  13
ATOM     12  N   UNL     1      52.188   7.882  13.831  0.00  0.00    +0.000 N 
ATOM     13  C   UNL     1      51.299   8.490  12.986  0.00  0.00    +0.000 C 
ATOM     14  O   UNL     1      51.642   9.412  12.263  0.00  0.00    +0.000 OA
ATOM     15  H   UNL     1      53.149   8.189  13.768  0.00  0.00    +0.000 HD
ATOM     16  H   UNL     1      52.014   6.980  14.256  0.00  0.00    +0.000 HD
ENDBRANCH   4  13
ENDBRANCH   1   8
BRANCH   1  17
ATOM     17  C   UNL     1      44.737   5.005  11.694  0.00  0.00    +0.000 A 
ATOM     18  C   UNL     1      43.715   4.231  12.260  0.00  0.00    +0.000 A 
ATOM     19  C   UNL     1      43.352   3.001  11.708  0.00  0.00    +0.000 A 
ATOM     20  C   UNL     1      44.005   2.526  10.569  0.00  0.00    +0.000 A 
ATOM     21  C   UNL     1      45.040   3.260   9.970  0.00  0.00    +0.000 A 
ATOM     22  C   UNL     1      45.406   4.471  10.578  0.00  0.00    +0.000 A 
BRANCH  21  23
ATOM     23  C   UNL     1      45.649   2.864   8.685  0.00  0.00    +0.000 A 
ATOM     24  C   UNL     1      46.008   3.842   7.737  0.00  0.00    +0.000 A 
ATOM     25  C   UNL     1      46.677   3.506   6.557  0.00  0.00    +0.000 A 
ATOM     26  C   UNL     1      47.008   2.181   6.302  0.00  0.00    +0.000 A 
ATOM     27  C   UNL     1      46.660   1.203   7.224  0.00  0.00    +0.000 A 
ATOM     28  F   UNL     1      46.998  -0.071   6.993  0.00  0.00    +0.000 F 
ATOM     29  C   UNL     1      45.981   1.528   8.398  0.00  0.00    +0.000 A 
ENDBRANCH  21  23
ENDBRANCH   1  17
TORSDOF 4
ENDMDL
MODEL 5
REMARK VINA RESULT:    -7.473      4.110      7.398
REMARK INTER + INTRA:          -9.521
REMARK INTER:                  -9.562
REMARK INTRA:                   0.041
REMARK UNBOUND:                -0.301
REMARK  Name = 
REMARK  4 active torsions:
REMARK  status: ('A' for Active; 'I' for Inactive)
REMARK    1  A    between atoms: C_2  and  C_4
REMARK    2  A    between atoms: N_8  and  C_9
REMARK    3  A    between atoms: C_9  and  C_10
REMARK    4  A    between atoms: C_14  and  C_15
REMARK                            x       y       z     vdW  Elec       q    Type
REMARK                         _______ _______ _______ _____ _____    ______ ____
ROOT
ATOM      1  C   UNL     1      46.090   5.365  13.356  0.00  0.00    +0.000 C 
ATOM      2  C   UNL     1      46.322   4.375  14.489  0.00  0.00    +0.000 C 
ATOM      3  C   UNL     1      47.383   4.563  13.459  0.00  0.00    +0.000 C 
ENDROOT
BRANCH   1   8
ATOM      4  C   UNL     1      48.464   9.625  11.611  0.00  0.00    +0.000 A 
ATOM      5  C   UNL     1      48.851   8.290  11.546  0.00  0.00    +0.000 A 
ATOM      6  C   UNL     1      48.089   7.330  12.214  0.00  0.00    +0.000 A 
ATOM      7  C   UNL     1      46.957   7.711  12.928  0.00  0.00    +0.000 A 
ATOM      8  N   UNL     1      46.158   6.805  13.628  0.00  0.00    +0.000 N 
ATOM      9  N   UNL     1      46.582   9.005  13.008  0.00  0.00    +0.000 NA
ATOM     10  C   UNL     1      47.341   9.930  12.364  0.00  0.00    +0.000 A 
ATOM     11  H   UNL     1      45.346   7.296  13.992  0.00  0.00    +0.000 HD
BRANCH   4  13
ATOM     12  N   UNL     1      50.518  10.879  11.276  0.00  0.00    +0.000 N 
ATOM     13  C   UNL     1      49.201  10.716  10.938  0.00  0.00    +0.000 C 
ATOM     14  O   UNL     1      48.672  11.424  10.095  0.00  0.00    +0.000 OA
ATOM     15  H   UNL     1      51.037  11.561  10.742  0.00  0.00    +0.000 HD
ATOM     16  H   UNL     1      51.048  10.176  11.775  0.00  0.00    +0.000 HD
ENDBRANCH   4  13
ENDBRANCH   1   8
BRANCH   1  17
ATOM     17  C   UNL     1      45.175   4.965  12.203  0.00  0.00    +0.000 A 
ATOM     18  C   UNL     1      43.880   5.486  12.076  0.00  0.00    +0.000 A 
ATOM     19  C   UNL     1      43.108   5.231  10.941  0.00  0.00    +0.000 A 
ATOM     20  C   UNL     1      43.627   4.452   9.904  0.00  0.00    +0.000 A 
ATOM     21  C   UNL     1      44.914   3.902   9.988  0.00  0.00    +0.000 A 
ATOM     22  C   UNL     1      45.643   4.144  11.163  0.00  0.00    +0.000 A 
BRANCH  21  23
ATOM     23  C   UNL     1      45.550   3.202   8.854  0.00  0.00    +0.000 A 
ATOM     24  C   UNL     1      46.128   3.935   7.800  0.00  0.00    +0.000 A 
ATOM     25  C   UNL     1      46.823   3.304   6.765  0.00  0.00    +0.000 A 
ATOM     26  C   UNL     1      46.963   1.921   6.767  0.00  0.00    +0.000 A 
ATOM     27  C   UNL     1      46.398   1.182   7.797  0.00  0.00    +0.000 A 
ATOM     28  F   UNL     1      46.551  -0.147   7.814  0.00  0.00    +0.000 F 
ATOM     29  C   UNL     1      45.691   1.803   8.826  0.00  0.00    +0.000 A 
ENDBRANCH  21  23
ENDBRANCH   1  17
TORSDOF 4
ENDMDL
MODEL 6
REMARK VINA RESULT:    -7.357      5.372      8.691
REMARK INTER + INTRA:          -9.378
REMARK INTER:                  -8.704
REMARK INTRA:                  -0.674
REMARK UNBOUND:                -0.301
REMARK  Name = 
REMARK  4 active torsions:
REMARK  status: ('A' for Active; 'I' for Inactive)
REMARK    1  A    between atoms: C_2  and  C_4
REMARK    2  A    between atoms: N_8  and  C_9
REMARK    3  A    between atoms: C_9  and  C_10
REMARK    4  A    between atoms: C_14  and  C_15
REMARK                            x       y       z     vdW  Elec       q    Type
REMARK                         _______ _______ _______ _____ _____    ______ ____
ROOT
ATOM      1  C   UNL     1      48.238   3.400  17.122  0.00  0.00    +0.000 C 
ATOM      2  C   UNL     1      47.955   3.609  18.603  0.00  0.00    +0.000 C 
ATOM      3  C   UNL     1      46.951   2.895  17.765  0.00  0.00    +0.000 C 
ENDROOT
BRANCH   1   8
ATOM      4  C   UNL     1      53.119   2.002  18.144  0.00  0.00    +0.000 A 
ATOM      5  C   UNL     1      52.489   3.234  18.287  0.00  0.00    +0.000 A 
ATOM      6  C   UNL     1      51.184   3.387  17.814  0.00  0.00    +0.000 A 
ATOM      7  C   UNL     1      50.529   2.315  17.213  0.00  0.00    +0.000 A 
ATOM      8  N   UNL     1      49.231   2.402  16.709  0.00  0.00    +0.000 N 
ATOM      9  N   UNL     1      51.138   1.121  17.059  0.00  0.00    +0.000 NA
ATOM     10  C   UNL     1      52.414   0.991  17.512  0.00  0.00    +0.000 A 
ATOM     11  H   UNL     1      48.934   1.480  16.404  0.00  0.00    +0.000 HD
BRANCH   4  13
ATOM     12  N   UNL     1      54.664   0.722  19.514  0.00  0.00    +0.000 N 
ATOM     13  C   UNL     1      54.496   1.738  18.612  0.00  0.00    +0.000 C 
ATOM     14  O   UNL     1      55.451   2.375  18.193  0.00  0.00    +0.000 OA
ATOM     15  H   UNL     1      55.617   0.486  19.753  0.00  0.00    +0.000 HD
ATOM     16  H   UNL     1      53.952   0.026  19.697  0.00  0.00    +0.000 HD
ENDBRANCH   4  13
ENDBRANCH   1   8
BRANCH   1  17
ATOM     17  C   UNL     1      48.061   4.575  16.165  0.00  0.00    +0.000 A 
ATOM     18  C   UNL     1      48.851   5.729  16.261  0.00  0.00    +0.000 A 
ATOM     19  C   UNL     1      48.785   6.730  15.291  0.00  0.00    +0.000 A 
ATOM     20  C   UNL     1      47.927   6.589  14.199  0.00  0.00    +0.000 A 
ATOM     21  C   UNL     1      47.110   5.457  14.062  0.00  0.00    +0.000 A 
ATOM     22  C   UNL     1      47.173   4.491  15.078  0.00  0.00    +0.000 A 
BRANCH  21  23
ATOM     23  C   UNL     1      46.306   5.205  12.850  0.00  0.00    +0.000 A 
ATOM     24  C   UNL     1      46.376   6.086  11.754  0.00  0.00    +0.000 A 
ATOM     25  C   UNL     1      45.705   5.820  10.557  0.00  0.00    +0.000 A 
ATOM     26  C   UNL     1      44.953   4.659  10.428  0.00  0.00    +0.000 A 
ATOM     27  C   UNL     1      44.870   3.780  11.500  0.00  0.00    +0.000 A 
ATOM     28  F   UNL     1      44.165   2.649  11.371  0.00  0.00    +0.000 F 
ATOM     29  C   UNL     1      45.526   4.044  12.701  0.00  0.00    +0.000 A 
ENDBRANCH  21  23
ENDBRANCH   1  17
TORSDOF 4
ENDMDL
MODEL 7
REMARK VINA RESULT:    -7.213      3.093      5.005
REMARK INTER + INTRA:          -9.201
REMARK INTER:                  -8.246
REMARK INTRA:                  -0.955
REMARK UNBOUND:                -0.301
REMARK  Name = 
REMARK  4 active torsions:
REMARK  status: ('A' for Active; 'I' for Inactive)
REMARK    1  A    between atoms: C_2  and  C_4
REMARK    2  A    between atoms: N_8  and  C_9
REMARK    3  A    between atoms: C_9  and  C_10
REMARK    4  A    between atoms: C_14  and  C_15
REMARK                            x       y       z     vdW  Elec       q    Type
REMARK                         _______ _______ _______ _____ _____    ______ ____
ROOT
ATOM      1  C   UNL     1      48.669   8.511  12.455  0.00  0.00    +0.000 C 
ATOM      2  C   UNL     1      48.423   9.880  11.839  0.00  0.00    +0.000 C 
ATOM      3  C   UNL     1      49.797   9.304  11.806  0.00  0.00    +0.000 C 
ENDROOT
BRANCH   1   8
ATOM      4  C   UNL     1      44.287   5.869  11.652  0.00  0.00    +0.000 A 
ATOM      5  C   UNL     1      44.646   6.717  12.694  0.00  0.00    +0.000 A 
ATOM      6  C   UNL     1      45.950   7.212  12.747  0.00  0.00    +0.000 A 
ATOM      7  C   UNL     1      46.871   6.860  11.763  0.00  0.00    +0.000 A 
ATOM      8  N   UNL     1      48.192   7.309  11.761  0.00  0.00    +0.000 N 
ATOM      9  N   UNL     1      46.534   6.027  10.756  0.00  0.00    +0.000 NA
ATOM     10  C   UNL     1      45.264   5.542  10.726  0.00  0.00    +0.000 A 
ATOM     11  H   UNL     1      48.643   6.999  10.906  0.00  0.00    +0.000 HD
BRANCH   4  13
ATOM     12  N   UNL     1      41.873   6.143  11.677  0.00  0.00    +0.000 N 
ATOM     13  C   UNL     1      42.932   5.294  11.506  0.00  0.00    +0.000 C 
ATOM     14  O   UNL     1      42.761   4.120  11.215  0.00  0.00    +0.000 OA
ATOM     15  H   UNL     1      40.957   5.764  11.480  0.00  0.00    +0.000 HD
ATOM     16  H   UNL     1      41.970   7.150  11.677  0.00  0.00    +0.000 HD
ENDBRANCH   4  13
ENDBRANCH   1   8
BRANCH   1  17
ATOM     17  C   UNL     1      48.757   8.390  13.973  0.00  0.00    +0.000 A 
ATOM     18  C   UNL     1      48.450   9.467  14.817  0.00  0.00    +0.000 A 
ATOM     19  C   UNL     1      48.388   9.302  16.202  0.00  0.00    +0.000 A 
ATOM     20  C   UNL     1      48.628   8.049  16.768  0.00  0.00    +0.000 A 
ATOM     21  C   UNL     1      48.947   6.942  15.967  0.00  0.00    +0.000 A 
ATOM     22  C   UNL     1      49.042   7.155  14.583  0.00  0.00    +0.000 A 
BRANCH  21  23
ATOM     23  C   UNL     1      49.058   5.576  16.514  0.00  0.00    +0.000 A 
ATOM     24  C   UNL     1      50.289   5.108  17.013  0.00  0.00    +0.000 A 
ATOM     25  C   UNL     1      50.402   3.858  17.628  0.00  0.00    +0.000 A 
ATOM     26  C   UNL     1      49.280   3.050  17.765  0.00  0.00    +0.000 A 
ATOM     27  C   UNL     1      48.059   3.495  17.277  0.00  0.00    +0.000 A 
ATOM     28  F   UNL     1      46.971   2.729  17.428  0.00  0.00    +0.000 F 
ATOM     29  C   UNL     1      47.940   4.734  16.650  0.00  0.00    +0.000 A 
ENDBRANCH  21  23
ENDBRANCH   1  17
TORSDOF 4
ENDMDL
MODEL 8
REMARK VINA RESULT:    -7.148      4.450      7.135
REMARK INTER + INTRA:          -9.120
REMARK INTER:                  -8.374
REMARK INTRA:                  -0.746
REMARK UNBOUND:                -0.301
REMARK  Name = 
REMARK  4 active torsions:
REMARK  status: ('A' for Active; 'I' for Inactive)
REMARK    1  A    between atoms: C_2  and  C_4
REMARK    2  A    between atoms: N_8  and  C_9
REMARK    3  A    between atoms: C_9  and  C_10
REMARK    4  A    between atoms: C_14  and  C_15
REMARK                            x       y       z     vdW  Elec       q    Type
REMARK                         _______ _______ _______ _____ _____    ______ ____
ROOT
ATOM      1  C   UNL     1      45.782   4.381  12.988  0.00  0.00    +0.000 C 
ATOM      2  C   UNL     1      44.316   4.055  13.232  0.00  0.00    +0.000 C 
ATOM      3  C   UNL     1      44.915   3.756  11.901  0.00  0.00    +0.000 C 
ENDROOT
BRANCH   1   8
ATOM      4  C   UNL     1      48.340   3.865  17.462  0.00  0.00    +0.000 A 
ATOM      5  C   UNL     1      47.725   4.981  16.902  0.00  0.00    +0.000 A 
ATOM      6  C   UNL     1      47.208   4.892  15.608  0.00  0.00    +0.000 A 
ATOM      7  C   UNL     1      47.306   3.699  14.897  0.00  0.00    +0.000 A 
ATOM      8  N   UNL     1      46.822   3.545  13.598  0.00  0.00    +0.000 N 
ATOM      9  N   UNL     1      47.913   2.616  15.428  0.00  0.00    +0.000 NA
ATOM     10  C   UNL     1      48.424   2.722  16.683  0.00  0.00    +0.000 A 
ATOM     11  H   UNL     1      46.923   2.573  13.322  0.00  0.00    +0.000 HD
BRANCH   4  13
ATOM     12  N   UNL     1      48.333   3.028  19.742  0.00  0.00    +0.000 N 
ATOM     13  C   UNL     1      48.917   3.856  18.823  0.00  0.00    +0.000 C 
ATOM     14  O   UNL     1      49.892   4.533  19.111  0.00  0.00    +0.000 OA
ATOM     15  H   UNL     1      48.793   2.956  20.639  0.00  0.00    +0.000 HD
ATOM     16  H   UNL     1      47.694   2.286  19.485  0.00  0.00    +0.000 HD
ENDBRANCH   4  13
ENDBRANCH   1   8
BRANCH   1  17
ATOM     17  C   UNL     1      46.183   5.832  12.736  0.00  0.00    +0.000 A 
ATOM     18  C   UNL     1      45.254   6.879  12.823  0.00  0.00    +0.000 A 
ATOM     19  C   UNL     1      45.661   8.212  12.740  0.00  0.00    +0.000 A 
ATOM     20  C   UNL     1      47.012   8.521  12.575  0.00  0.00    +0.000 A 
ATOM     21  C   UNL     1      47.978   7.509  12.473  0.00  0.00    +0.000 A 
ATOM     22  C   UNL     1      47.527   6.181  12.518  0.00  0.00    +0.000 A 
BRANCH  21  23
ATOM     23  C   UNL     1      49.426   7.798  12.448  0.00  0.00    +0.000 A 
ATOM     24  C   UNL     1      50.132   7.789  11.230  0.00  0.00    +0.000 A 
ATOM     25  C   UNL     1      51.478   8.157  11.162  0.00  0.00    +0.000 A 
ATOM     26  C   UNL     1      52.148   8.550  12.314  0.00  0.00    +0.000 A 
ATOM     27  C   UNL     1      51.468   8.563  13.524  0.00  0.00    +0.000 A 
ATOM     28  F   UNL     1      52.104   8.965  14.632  0.00  0.00    +0.000 F 
ATOM     29  C   UNL     1      50.129   8.186  13.603  0.00  0.00    +0.000 A 
ENDBRANCH  21  23
ENDBRANCH   1  17
TORSDOF 4
ENDMDL
MODEL 9
REMARK VINA RESULT:    -7.049      4.687      8.452
REMARK INTER + INTRA:          -8.999
REMARK INTER:                  -8.648
REMARK INTRA:                  -0.351
REMARK UNBOUND:                -0.301
REMARK  Name = 
REMARK  4 active torsions:
REMARK  status: ('A' for Active; 'I' for Inactive)
REMARK    1  A    between atoms: C_2  and  C_4
REMARK    2  A    between atoms: N_8  and  C_9
REMARK    3  A    between atoms: C_9  and  C_10
REMARK    4  A    between atoms: C_14  and  C_15
REMARK                            x       y       z     vdW  Elec       q    Type
REMARK                         _______ _______ _______ _____ _____    ______ ____
ROOT
ATOM      1  C   UNL     1      49.125   7.869  12.518  0.00  0.00    +0.000 C 
ATOM      2  C   UNL     1      50.043   8.154  11.338  0.00  0.00    +0.000 C 
ATOM      3  C   UNL     1      49.719   9.255  12.289  0.00  0.00    +0.000 C 
ENDROOT
BRANCH   1   8
ATOM      4  C   UNL     1      48.584   7.551  17.659  0.00  0.00    +0.000 A 
ATOM      5  C   UNL     1      48.388   8.628  16.800  0.00  0.00    +0.000 A 
ATOM      6  C   UNL     1      48.730   8.491  15.454  0.00  0.00    +0.000 A 
ATOM      7  C   UNL     1      49.255   7.290  14.984  0.00  0.00    +0.000 A 
ATOM      8  N   UNL     1      49.629   7.090  13.655  0.00  0.00    +0.000 N 
ATOM      9  N   UNL     1      49.461   6.246  15.814  0.00  0.00    +0.000 NA
ATOM     10  C   UNL     1      49.136   6.398  17.125  0.00  0.00    +0.000 A 
ATOM     11  H   UNL     1      49.896   6.119  13.531  0.00  0.00    +0.000 HD
BRANCH   4  13
ATOM     12  N   UNL     1      47.334   8.525  19.501  0.00  0.00    +0.000 N 
ATOM     13  C   UNL     1      48.253   7.594  19.100  0.00  0.00    +0.000 C 
ATOM     14  O   UNL     1      48.753   6.814  19.897  0.00  0.00    +0.000 OA
ATOM     15  H   UNL     1      47.043   8.482  20.467  0.00  0.00    +0.000 HD
ATOM     16  H   UNL     1      46.729   9.014  18.853  0.00  0.00    +0.000 HD
ENDBRANCH   4  13
ENDBRANCH   1   8
BRANCH   1  17
ATOM     17  C   UNL     1      47.623   7.765  12.275  0.00  0.00    +0.000 A 
ATOM     18  C   UNL     1      46.765   8.853  12.485  0.00  0.00    +0.000 A 
ATOM     19  C   UNL     1      45.419   8.792  12.118  0.00  0.00    +0.000 A 
ATOM     20  C   UNL     1      44.909   7.636  11.524  0.00  0.00    +0.000 A 
ATOM     21  C   UNL     1      45.726   6.517  11.300  0.00  0.00    +0.000 A 
ATOM     22  C   UNL     1      47.062   6.600  11.721  0.00  0.00    +0.000 A 
BRANCH  21  23
ATOM     23  C   UNL     1      45.261   5.339  10.542  0.00  0.00    +0.000 A 
ATOM     24  C   UNL     1      45.675   5.142   9.210  0.00  0.00    +0.000 A 
ATOM     25  C   UNL     1      45.334   3.987   8.501  0.00  0.00    +0.000 A 
ATOM     26  C   UNL     1      44.575   2.997   9.114  0.00  0.00    +0.000 A 
ATOM     27  C   UNL     1      44.156   3.176  10.425  0.00  0.00    +0.000 A 
ATOM     28  F   UNL     1      43.445   2.214  11.026  0.00  0.00    +0.000 F 
ATOM     29  C   UNL     1      44.481   4.330  11.135  0.00  0.00    +0.000 A 
ENDBRANCH  21  23
ENDBRANCH   1  17
TORSDOF 4
ENDMDL
