MODEL 1
REMARK VINA RESULT:    -9.554      0.000      0.000
REMARK INTER + INTRA:         -13.811
REMARK INTER:                 -12.905
REMARK INTRA:                  -0.906
REMARK UNBOUND:                -0.906
REMARK  Name = 
REMARK  6 active torsions:
REMARK  status: ('A' for Active; 'I' for Inactive)
REMARK    1  A    between atoms: C_2  and  C_4
REMARK    2  A    between atoms: N_8  and  C_9
REMARK    3  A    between atoms: C_9  and  C_10
REMARK    4  A    between atoms: C_10  and  C_13
REMARK    5  A    between atoms: C_17  and  N_18
REMARK    6  A    between atoms: N_18  and  C_19
REMARK                            x       y       z     vdW  Elec       q    Type
REMARK                         _______ _______ _______ _____ _____    ______ ____
ROOT
ATOM      1  C   UNL     1      43.522   5.598  12.166  0.00  0.00    +0.000 C 
ATOM      2  F   UNL     1      43.162   6.765  11.547  0.00  0.00    +0.000 F 
ATOM      3  F   UNL     1      42.669   5.482  13.229  0.00  0.00    +0.000 F 
ENDROOT
BRANCH   1   4
ATOM      4  C   UNL     1      44.971   5.623  12.617  0.00  0.00    +0.000 A 
ATOM      5  C   UNL     1      45.896   6.491  12.025  0.00  0.00    +0.000 A 
ATOM      6  C   UNL     1      47.227   6.494  12.448  0.00  0.00    +0.000 A 
ATOM      7  C   UNL     1      47.649   5.627  13.460  0.00  0.00    +0.000 A 
ATOM      8  C   UNL     1      46.743   4.759  14.070  0.00  0.00    +0.000 A 
ATOM      9  C   UNL     1      45.408   4.768  13.644  0.00  0.00    +0.000 A 
BRANCH   8  10
ATOM     10  N   UNL     1      47.105   3.874  15.109  0.00  0.00    +0.000 N 
ATOM     11  H   UNL     1      46.695   2.959  14.921  0.00  0.00    +0.000 HD
BRANCH  10  12
ATOM     12  C   UNL     1      47.116   4.185  16.510  0.00  0.00    +0.000 C 
ATOM     13  C   UNL     1      48.461   4.793  16.966  0.00  0.00    +0.000 C 
ATOM     14  C   UNL     1      48.498   3.769  18.112  0.00  0.00    +0.000 C 
ATOM     15  C   UNL     1      47.452   2.936  17.357  0.00  0.00    +0.000 C 
ENDBRANCH  10  12
ENDBRANCH   8  10
ENDBRANCH   1   4
BRANCH   1  16
ATOM     16  C   UNL     1      43.255   4.430  11.180  0.00  0.00    +0.000 C 
BRANCH  16  21
ATOM     17  C   UNL     1      46.471   2.501   7.697  0.00  0.00    +0.000 A 
ATOM     18  C   UNL     1      45.638   1.834   8.588  0.00  0.00    +0.000 A 
ATOM     19  C   UNL     1      44.711   2.569   9.332  0.00  0.00    +0.000 A 
ATOM     20  C   UNL     1      44.645   3.948   9.186  0.00  0.00    +0.000 A 
ATOM     21  N   UNL     1      43.699   4.733   9.811  0.00  0.00    +0.000 N 
ATOM     22  N   UNL     1      45.470   4.607   8.348  0.00  0.00    +0.000 NA
ATOM     23  C   UNL     1      46.365   3.880   7.627  0.00  0.00    +0.000 A 
ATOM     24  H   UNL     1      43.930   5.712   9.638  0.00  0.00    +0.000 HD
BRANCH  17  26
ATOM     25  N   UNL     1      48.533   2.527   6.411  0.00  0.00    +0.000 N 
ATOM     26  C   UNL     1      47.450   1.806   6.836  0.00  0.00    +0.000 C 
ATOM     27  O   UNL     1      47.324   0.625   6.546  0.00  0.00    +0.000 OA
ATOM     28  H   UNL     1      49.253   2.006   5.928  0.00  0.00    +0.000 HD
ATOM     29  H   UNL     1      48.804   3.400   6.842  0.00  0.00    +0.000 HD
ENDBRANCH  17  26
ENDBRANCH  16  21
ENDBRANCH   1  16
TORSDOF 6
ENDMDL
MODEL 2
REMARK VINA RESULT:    -8.946      1.817      3.368
REMARK INTER + INTRA:         -12.989
REMARK INTER:                 -11.983
REMARK INTRA:                  -1.007
REMARK UNBOUND:                -0.906
REMARK  Name = 
REMARK  6 active torsions:
REMARK  status: ('A' for Active; 'I' for Inactive)
REMARK    1  A    between atoms: C_2  and  C_4
REMARK    2  A    between atoms: N_8  and  C_9
REMARK    3  A    between atoms: C_9  and  C_10
REMARK    4  A    between atoms: C_10  and  C_13
REMARK    5  A    between atoms: C_17  and  N_18
REMARK    6  A    between atoms: N_18  and  C_19
REMARK                            x       y       z     vdW  Elec       q    Type
REMARK                         _______ _______ _______ _____ _____    ______ ____
ROOT
ATOM      1  C   UNL     1      43.463   5.558  12.185  0.00  0.00    +0.000 C 
ATOM      2  F   UNL     1      43.126   6.725  11.555  0.00  0.00    +0.000 F 
ATOM      3  F   UNL     1      42.574   5.441  13.217  0.00  0.00    +0.000 F 
ENDROOT
BRANCH   1   4
ATOM      4  C   UNL     1      44.895   5.581  12.686  0.00  0.00    +0.000 A 
ATOM      5  C   UNL     1      45.462   4.461  13.305  0.00  0.00    +0.000 A 
ATOM      6  C   UNL     1      46.779   4.503  13.767  0.00  0.00    +0.000 A 
ATOM      7  C   UNL     1      47.540   5.666  13.624  0.00  0.00    +0.000 A 
ATOM      8  C   UNL     1      46.999   6.794  13.006  0.00  0.00    +0.000 A 
ATOM      9  C   UNL     1      45.679   6.739  12.538  0.00  0.00    +0.000 A 
BRANCH   8  10
ATOM     10  N   UNL     1      47.724   7.991  12.816  0.00  0.00    +0.000 N 
ATOM     11  H   UNL     1      47.154   8.776  13.132  0.00  0.00    +0.000 HD
BRANCH  10  12
ATOM     12  C   UNL     1      48.509   8.322  11.662  0.00  0.00    +0.000 C 
ATOM     13  C   UNL     1      49.937   7.736  11.734  0.00  0.00    +0.000 C 
ATOM     14  C   UNL     1      50.491   9.129  11.396  0.00  0.00    +0.000 C 
ATOM     15  C   UNL     1      49.135   9.729  11.797  0.00  0.00    +0.000 C 
ENDBRANCH  10  12
ENDBRANCH   8  10
ENDBRANCH   1   4
BRANCH   1  16
ATOM     16  C   UNL     1      43.231   4.390  11.189  0.00  0.00    +0.000 C 
BRANCH  16  21
ATOM     17  C   UNL     1      46.474   2.524   7.698  0.00  0.00    +0.000 A 
ATOM     18  C   UNL     1      45.642   1.841   8.578  0.00  0.00    +0.000 A 
ATOM     19  C   UNL     1      44.707   2.560   9.326  0.00  0.00    +0.000 A 
ATOM     20  C   UNL     1      44.632   3.941   9.196  0.00  0.00    +0.000 A 
ATOM     21  N   UNL     1      43.678   4.712   9.826  0.00  0.00    +0.000 N 
ATOM     22  N   UNL     1      45.456   4.615   8.369  0.00  0.00    +0.000 NA
ATOM     23  C   UNL     1      46.359   3.903   7.643  0.00  0.00    +0.000 A 
ATOM     24  H   UNL     1      43.903   5.695   9.665  0.00  0.00    +0.000 HD
BRANCH  17  26
ATOM     25  N   UNL     1      48.544   2.577   6.425  0.00  0.00    +0.000 N 
ATOM     26  C   UNL     1      47.461   1.845   6.833  0.00  0.00    +0.000 C 
ATOM     27  O   UNL     1      47.342   0.668   6.526  0.00  0.00    +0.000 OA
ATOM     28  H   UNL     1      49.269   2.066   5.939  0.00  0.00    +0.000 HD
ATOM     29  H   UNL     1      48.808   3.445   6.871  0.00  0.00    +0.000 HD
ENDBRANCH  17  26
ENDBRANCH  16  21
ENDBRANCH   1  16
TORSDOF 6
ENDMDL
MODEL 3
REMARK VINA RESULT:    -8.749      2.881      4.622
REMARK INTER + INTRA:         -12.723
REMARK INTER:                 -11.846
REMARK INTRA:                  -0.878
REMARK UNBOUND:                -0.906
REMARK  Name = 
REMARK  6 active torsions:
REMARK  status: ('A' for Active; 'I' for Inactive)
REMARK    1  A    between atoms: C_2  and  C_4
REMARK    2  A    between atoms: N_8  and  C_9
REMARK    3  A    between atoms: C_9  and  C_10
REMARK    4  A    between atoms: C_10  and  C_13
REMARK    5  A    between atoms: C_17  and  N_18
REMARK    6  A    between atoms: N_18  and  C_19
REMARK                            x       y       z     vdW  Elec       q    Type
REMARK                         _______ _______ _______ _____ _____    ______ ____
ROOT
ATOM      1  C   UNL     1      44.658   4.799  12.277  0.00  0.00    +0.000 C 
ATOM      2  F   UNL     1      44.083   4.610  13.505  0.00  0.00    +0.000 F 
ATOM      3  F   UNL     1      45.503   3.736  12.113  0.00  0.00    +0.000 F 
ENDROOT
BRANCH   1   4
ATOM      4  C   UNL     1      45.405   6.118  12.201  0.00  0.00    +0.000 A 
ATOM      5  C   UNL     1      46.763   6.160  11.864  0.00  0.00    +0.000 A 
ATOM      6  C   UNL     1      47.435   7.382  11.806  0.00  0.00    +0.000 A 
ATOM      7  C   UNL     1      46.762   8.573  12.092  0.00  0.00    +0.000 A 
ATOM      8  C   UNL     1      45.406   8.557  12.424  0.00  0.00    +0.000 A 
ATOM      9  C   UNL     1      44.738   7.326  12.471  0.00  0.00    +0.000 A 
BRANCH   8  10
ATOM     10  N   UNL     1      44.668   9.727  12.704  0.00  0.00    +0.000 N 
ATOM     11  H   UNL     1      44.136   9.584  13.563  0.00  0.00    +0.000 HD
BRANCH  10  12
ATOM     12  C   UNL     1      43.948  10.515  11.746  0.00  0.00    +0.000 C 
ATOM     13  C   UNL     1      43.509   9.688  10.517  0.00  0.00    +0.000 C 
ATOM     14  C   UNL     1      44.113  10.773   9.611  0.00  0.00    +0.000 C 
ATOM     15  C   UNL     1      44.913  11.287  10.817  0.00  0.00    +0.000 C 
ENDBRANCH  10  12
ENDBRANCH   8  10
ENDBRANCH   1   4
BRANCH   1  16
ATOM     16  C   UNL     1      43.538   4.719  11.205  0.00  0.00    +0.000 C 
BRANCH  16  21
ATOM     17  C   UNL     1      46.513   2.532   7.662  0.00  0.00    +0.000 A 
ATOM     18  C   UNL     1      45.594   1.943   8.522  0.00  0.00    +0.000 A 
ATOM     19  C   UNL     1      44.761   2.760   9.291  0.00  0.00    +0.000 A 
ATOM     20  C   UNL     1      44.873   4.142   9.200  0.00  0.00    +0.000 A 
ATOM     21  N   UNL     1      44.030   5.016   9.852  0.00  0.00    +0.000 N 
ATOM     22  N   UNL     1      45.783   4.722   8.392  0.00  0.00    +0.000 NA
ATOM     23  C   UNL     1      46.584   3.915   7.646  0.00  0.00    +0.000 A 
ATOM     24  H   UNL     1      44.385   5.964   9.718  0.00  0.00    +0.000 HD
BRANCH  17  26
ATOM     25  N   UNL     1      48.487   2.400   6.251  0.00  0.00    +0.000 N 
ATOM     26  C   UNL     1      47.403   1.751   6.777  0.00  0.00    +0.000 C 
ATOM     27  O   UNL     1      47.207   0.565   6.556  0.00  0.00    +0.000 OA
ATOM     28  H   UNL     1      49.151   1.823   5.750  0.00  0.00    +0.000 HD
ATOM     29  H   UNL     1      48.824   3.278   6.620  0.00  0.00    +0.000 HD
ENDBRANCH  17  26
ENDBRANCH  16  21
ENDBRANCH   1  16
TORSDOF 6
ENDMDL
MODEL 4
REMARK VINA RESULT:    -8.248      1.769      2.246
REMARK INTER + INTRA:         -12.047
REMARK INTER:                 -11.002
REMARK INTRA:                  -1.045
REMARK UNBOUND:                -0.906
REMARK  Name = 
REMARK  6 active torsions:
REMARK  status: ('A' for Active; 'I' for Inactive)
REMARK    1  A    between atoms: C_2  and  C_4
REMARK    2  A    between atoms: N_8  and  C_9
REMARK    3  A    between atoms: C_9  and  C_10
REMARK    4  A    between atoms: C_10  and  C_13
REMARK    5  A    between atoms: C_17  and  N_18
REMARK    6  A    between atoms: N_18  and  C_19
REMARK                            x       y       z     vdW  Elec       q    Type
REMARK                         _______ _______ _______ _____ _____    ______ ____
ROOT
ATOM      1  C   UNL     1      43.429   4.615  12.426  0.00  0.00    +0.000 C 
ATOM      2  F   UNL     1      42.254   5.258  12.711  0.00  0.00    +0.000 F 
ATOM      3  F   UNL     1      43.557   3.661  13.398  0.00  0.00    +0.000 F 
ENDROOT
BRANCH   1   4
ATOM      4  C   UNL     1      44.609   5.570  12.429  0.00  0.00    +0.000 A 
ATOM      5  C   UNL     1      44.665   6.650  11.540  0.00  0.00    +0.000 A 
ATOM      6  C   UNL     1      45.762   7.514  11.551  0.00  0.00    +0.000 A 
ATOM      7  C   UNL     1      46.817   7.304  12.443  0.00  0.00    +0.000 A 
ATOM      8  C   UNL     1      46.781   6.238  13.343  0.00  0.00    +0.000 A 
ATOM      9  C   UNL     1      45.672   5.381  13.329  0.00  0.00    +0.000 A 
BRANCH   8  10
ATOM     10  N   UNL     1      47.807   5.985  14.279  0.00  0.00    +0.000 N 
ATOM     11  H   UNL     1      47.563   5.156  14.821  0.00  0.00    +0.000 HD
BRANCH  10  12
ATOM     12  C   UNL     1      48.478   6.973  15.075  0.00  0.00    +0.000 C 
ATOM     13  C   UNL     1      49.893   7.294  14.543  0.00  0.00    +0.000 C 
ATOM     14  C   UNL     1      50.440   7.081  15.963  0.00  0.00    +0.000 C 
ATOM     15  C   UNL     1      49.145   6.334  16.314  0.00  0.00    +0.000 C 
ENDBRANCH  10  12
ENDBRANCH   8  10
ENDBRANCH   1   4
BRANCH   1  16
ATOM     16  C   UNL     1      43.272   3.912  11.052  0.00  0.00    +0.000 C 
BRANCH  16  21
ATOM     17  C   UNL     1      46.581   2.615   7.370  0.00  0.00    +0.000 A 
ATOM     18  C   UNL     1      46.190   3.880   7.794  0.00  0.00    +0.000 A 
ATOM     19  C   UNL     1      45.401   3.999   8.941  0.00  0.00    +0.000 A 
ATOM     20  C   UNL     1      45.005   2.859   9.629  0.00  0.00    +0.000 A 
ATOM     21  N   UNL     1      44.307   2.894  10.817  0.00  0.00    +0.000 N 
ATOM     22  N   UNL     1      45.353   1.627   9.207  0.00  0.00    +0.000 NA
ATOM     23  C   UNL     1      46.124   1.525   8.092  0.00  0.00    +0.000 A 
ATOM     24  H   UNL     1      44.038   1.939  11.059  0.00  0.00    +0.000 HD
BRANCH  17  26
ATOM     25  N   UNL     1      47.266   3.212   5.116  0.00  0.00    +0.000 N 
ATOM     26  C   UNL     1      47.451   2.393   6.197  0.00  0.00    +0.000 C 
ATOM     27  O   UNL     1      48.330   1.542   6.202  0.00  0.00    +0.000 OA
ATOM     28  H   UNL     1      47.948   3.129   4.373  0.00  0.00    +0.000 HD
ATOM     29  H   UNL     1      46.751   4.079   5.176  0.00  0.00    +0.000 HD
ENDBRANCH  17  26
ENDBRANCH  16  21
ENDBRANCH   1  16
TORSDOF 6
ENDMDL
MODEL 5
REMARK VINA RESULT:    -8.157      2.293      4.079
REMARK INTER + INTRA:         -11.924
REMARK INTER:                 -11.180
REMARK INTRA:                  -0.744
REMARK UNBOUND:                -0.906
REMARK  Name = 
REMARK  6 active torsions:
REMARK  status: ('A' for Active; 'I' for Inactive)
REMARK    1  A    between atoms: C_2  and  C_4
REMARK    2  A    between atoms: N_8  and  C_9
REMARK    3  A    between atoms: C_9  and  C_10
REMARK    4  A    between atoms: C_10  and  C_13
REMARK    5  A    between atoms: C_17  and  N_18
REMARK    6  A    between atoms: N_18  and  C_19
REMARK                            x       y       z     vdW  Elec       q    Type
REMARK                         _______ _______ _______ _____ _____    ______ ____
ROOT
ATOM      1  C   UNL     1      43.378   4.525  12.673  0.00  0.00    +0.000 C 
ATOM      2  F   UNL     1      42.350   5.400  12.902  0.00  0.00    +0.000 F 
ATOM      3  F   UNL     1      43.160   3.487  13.536  0.00  0.00    +0.000 F 
ENDROOT
BRANCH   1   4
ATOM      4  C   UNL     1      44.731   5.170  12.911  0.00  0.00    +0.000 A 
ATOM      5  C   UNL     1      45.857   4.395  13.210  0.00  0.00    +0.000 A 
ATOM      6  C   UNL     1      47.092   5.006  13.434  0.00  0.00    +0.000 A 
ATOM      7  C   UNL     1      47.214   6.397  13.369  0.00  0.00    +0.000 A 
ATOM      8  C   UNL     1      46.107   7.190  13.066  0.00  0.00    +0.000 A 
ATOM      9  C   UNL     1      44.874   6.566  12.835  0.00  0.00    +0.000 A 
BRANCH   8  10
ATOM     10  N   UNL     1      46.172   8.597  12.968  0.00  0.00    +0.000 N 
ATOM     11  H   UNL     1      45.774   9.006  13.814  0.00  0.00    +0.000 HD
BRANCH  10  12
ATOM     12  C   UNL     1      45.868   9.372  11.799  0.00  0.00    +0.000 C 
ATOM     13  C   UNL     1      46.576  10.745  11.804  0.00  0.00    +0.000 C 
ATOM     14  C   UNL     1      45.224  11.407  11.492  0.00  0.00    +0.000 C 
ATOM     15  C   UNL     1      44.525  10.120  11.957  0.00  0.00    +0.000 C 
ENDBRANCH  10  12
ENDBRANCH   8  10
ENDBRANCH   1   4
BRANCH   1  16
ATOM     16  C   UNL     1      43.248   4.002  11.217  0.00  0.00    +0.000 C 
BRANCH  16  21
ATOM     17  C   UNL     1      46.462   2.949   7.377  0.00  0.00    +0.000 A 
ATOM     18  C   UNL     1      46.092   4.183   7.900  0.00  0.00    +0.000 A 
ATOM     19  C   UNL     1      45.330   4.224   9.070  0.00  0.00    +0.000 A 
ATOM     20  C   UNL     1      44.938   3.041   9.683  0.00  0.00    +0.000 A 
ATOM     21  N   UNL     1      44.267   2.995  10.886  0.00  0.00    +0.000 N 
ATOM     22  N   UNL     1      45.265   1.840   9.166  0.00  0.00    +0.000 NA
ATOM     23  C   UNL     1      46.011   1.813   8.029  0.00  0.00    +0.000 A 
ATOM     24  H   UNL     1      43.994   2.028  11.065  0.00  0.00    +0.000 HD
BRANCH  17  26
ATOM     25  N   UNL     1      48.609   2.440   6.360  0.00  0.00    +0.000 N 
ATOM     26  C   UNL     1      47.304   2.805   6.171  0.00  0.00    +0.000 C 
ATOM     27  O   UNL     1      46.847   2.963   5.048  0.00  0.00    +0.000 OA
ATOM     28  H   UNL     1      49.137   2.226   5.523  0.00  0.00    +0.000 HD
ATOM     29  H   UNL     1      48.940   2.045   7.229  0.00  0.00    +0.000 HD
ENDBRANCH  17  26
ENDBRANCH  16  21
ENDBRANCH   1  16
TORSDOF 6
ENDMDL
MODEL 6
REMARK VINA RESULT:    -8.046      2.353      2.896
REMARK INTER + INTRA:         -11.773
REMARK INTER:                 -10.896
REMARK INTRA:                  -0.878
REMARK UNBOUND:                -0.906
REMARK  Name = 
REMARK  6 active torsions:
REMARK  status: ('A' for Active; 'I' for Inactive)
REMARK    1  A    between atoms: C_2  and  C_4
REMARK    2  A    between atoms: N_8  and  C_9
REMARK    3  A    between atoms: C_9  and  C_10
REMARK    4  A    between atoms: C_10  and  C_13
REMARK    5  A    between atoms: C_17  and  N_18
REMARK    6  A    between atoms: N_18  and  C_19
REMARK                            x       y       z     vdW  Elec       q    Type
REMARK                         _______ _______ _______ _____ _____    ______ ____
ROOT
ATOM      1  C   UNL     1      44.358   4.390  12.236  0.00  0.00    +0.000 C 
ATOM      2  F   UNL     1      43.683   4.247  13.419  0.00  0.00    +0.000 F 
ATOM      3  F   UNL     1      45.270   3.371  12.222  0.00  0.00    +0.000 F 
ENDROOT
BRANCH   1   4
ATOM      4  C   UNL     1      45.037   5.743  12.134  0.00  0.00    +0.000 A 
ATOM      5  C   UNL     1      44.288   6.918  11.993  0.00  0.00    +0.000 A 
ATOM      6  C   UNL     1      44.930   8.153  11.893  0.00  0.00    +0.000 A 
ATOM      7  C   UNL     1      46.325   8.229  11.924  0.00  0.00    +0.000 A 
ATOM      8  C   UNL     1      47.093   7.073  12.071  0.00  0.00    +0.000 A 
ATOM      9  C   UNL     1      46.439   5.838  12.179  0.00  0.00    +0.000 A 
BRANCH   8  10
ATOM     10  N   UNL     1      48.504   7.088  12.129  0.00  0.00    +0.000 N 
ATOM     11  H   UNL     1      48.868   6.409  11.459  0.00  0.00    +0.000 HD
BRANCH  10  12
ATOM     12  C   UNL     1      49.294   7.146  13.325  0.00  0.00    +0.000 C 
ATOM     13  C   UNL     1      48.449   7.489  14.571  0.00  0.00    +0.000 C 
ATOM     14  C   UNL     1      49.468   8.585  14.921  0.00  0.00    +0.000 C 
ATOM     15  C   UNL     1      49.981   8.522  13.474  0.00  0.00    +0.000 C 
ENDBRANCH  10  12
ENDBRANCH   8  10
ENDBRANCH   1   4
BRANCH   1  16
ATOM     16  C   UNL     1      43.348   4.173  11.077  0.00  0.00    +0.000 C 
BRANCH  16  21
ATOM     17  C   UNL     1      46.684   2.802   7.447  0.00  0.00    +0.000 A 
ATOM     18  C   UNL     1      45.816   2.008   8.188  0.00  0.00    +0.000 A 
ATOM     19  C   UNL     1      44.865   2.622   9.007  0.00  0.00    +0.000 A 
ATOM     20  C   UNL     1      44.809   4.007   9.083  0.00  0.00    +0.000 A 
ATOM     21  N   UNL     1      43.844   4.690   9.793  0.00  0.00    +0.000 N 
ATOM     22  N   UNL     1      45.666   4.785   8.393  0.00  0.00    +0.000 NA
ATOM     23  C   UNL     1      46.585   4.175   7.597  0.00  0.00    +0.000 A 
ATOM     24  H   UNL     1      44.083   5.682   9.788  0.00  0.00    +0.000 HD
BRANCH  17  26
ATOM     25  N   UNL     1      47.920   2.933   5.359  0.00  0.00    +0.000 N 
ATOM     26  C   UNL     1      47.692   2.246   6.521  0.00  0.00    +0.000 C 
ATOM     27  O   UNL     1      48.328   1.238   6.795  0.00  0.00    +0.000 OA
ATOM     28  H   UNL     1      48.696   2.610   4.796  0.00  0.00    +0.000 HD
ATOM     29  H   UNL     1      47.620   3.889   5.228  0.00  0.00    +0.000 HD
ENDBRANCH  17  26
ENDBRANCH  16  21
ENDBRANCH   1  16
TORSDOF 6
ENDMDL
MODEL 7
REMARK VINA RESULT:    -7.890      3.031      7.975
REMARK INTER + INTRA:         -11.563
REMARK INTER:                 -10.753
REMARK INTRA:                  -0.810
REMARK UNBOUND:                -0.906
REMARK  Name = 
REMARK  6 active torsions:
REMARK  status: ('A' for Active; 'I' for Inactive)
REMARK    1  A    between atoms: C_2  and  C_4
REMARK    2  A    between atoms: N_8  and  C_9
REMARK    3  A    between atoms: C_9  and  C_10
REMARK    4  A    between atoms: C_10  and  C_13
REMARK    5  A    between atoms: C_17  and  N_18
REMARK    6  A    between atoms: N_18  and  C_19
REMARK                            x       y       z     vdW  Elec       q    Type
REMARK                         _______ _______ _______ _____ _____    ______ ____
ROOT
ATOM      1  C   UNL     1      45.719   6.281  11.507  0.00  0.00    +0.000 C 
ATOM      2  F   UNL     1      44.900   7.349  11.257  0.00  0.00    +0.000 F 
ATOM      3  F   UNL     1      46.950   6.663  11.052  0.00  0.00    +0.000 F 
ENDROOT
BRANCH   1   4
ATOM      4  C   UNL     1      45.235   5.024  10.808  0.00  0.00    +0.000 A 
ATOM      5  C   UNL     1      44.501   4.051  11.497  0.00  0.00    +0.000 A 
ATOM      6  C   UNL     1      44.071   2.897  10.840  0.00  0.00    +0.000 A 
ATOM      7  C   UNL     1      44.376   2.698   9.491  0.00  0.00    +0.000 A 
ATOM      8  C   UNL     1      45.100   3.656   8.780  0.00  0.00    +0.000 A 
ATOM      9  C   UNL     1      45.520   4.815   9.447  0.00  0.00    +0.000 A 
BRANCH   8  10
ATOM     10  N   UNL     1      45.422   3.520   7.412  0.00  0.00    +0.000 N 
ATOM     11  H   UNL     1      44.809   2.817   6.998  0.00  0.00    +0.000 HD
BRANCH  10  12
ATOM     12  C   UNL     1      46.747   3.474   6.863  0.00  0.00    +0.000 C 
ATOM     13  C   UNL     1      46.758   2.982   5.398  0.00  0.00    +0.000 C 
ATOM     14  C   UNL     1      47.854   1.974   5.780  0.00  0.00    +0.000 C 
ATOM     15  C   UNL     1      47.470   2.166   7.254  0.00  0.00    +0.000 C 
ENDBRANCH  10  12
ENDBRANCH   8  10
ENDBRANCH   1   4
BRANCH   1  16
ATOM     16  C   UNL     1      45.792   6.082  13.044  0.00  0.00    +0.000 C 
BRANCH  16  21
ATOM     17  C   UNL     1      48.532   4.220  16.945  0.00  0.00    +0.000 A 
ATOM     18  C   UNL     1      47.557   3.592  16.179  0.00  0.00    +0.000 A 
ATOM     19  C   UNL     1      47.062   4.242  15.045  0.00  0.00    +0.000 A 
ATOM     20  C   UNL     1      47.534   5.504  14.710  0.00  0.00    +0.000 A 
ATOM     21  N   UNL     1      47.167   6.172  13.560  0.00  0.00    +0.000 N 
ATOM     22  N   UNL     1      48.456   6.134  15.464  0.00  0.00    +0.000 NA
ATOM     23  C   UNL     1      48.933   5.489  16.563  0.00  0.00    +0.000 A 
ATOM     24  H   UNL     1      47.554   7.115  13.599  0.00  0.00    +0.000 HD
BRANCH  17  26
ATOM     25  N   UNL     1      48.304   3.160  19.120  0.00  0.00    +0.000 N 
ATOM     26  C   UNL     1      49.148   3.594  18.134  0.00  0.00    +0.000 C 
ATOM     27  O   UNL     1      50.357   3.430  18.218  0.00  0.00    +0.000 OA
ATOM     28  H   UNL     1      48.729   2.625  19.866  0.00  0.00    +0.000 HD
ATOM     29  H   UNL     1      47.313   3.034  18.967  0.00  0.00    +0.000 HD
ENDBRANCH  17  26
ENDBRANCH  16  21
ENDBRANCH   1  16
TORSDOF 6
ENDMDL
MODEL 8
REMARK VINA RESULT:    -7.749      3.448      8.162
REMARK INTER + INTRA:         -11.374
REMARK INTER:                 -10.636
REMARK INTRA:                  -0.737
REMARK UNBOUND:                -0.906
REMARK  Name = 
REMARK  6 active torsions:
REMARK  status: ('A' for Active; 'I' for Inactive)
REMARK    1  A    between atoms: C_2  and  C_4
REMARK    2  A    between atoms: N_8  and  C_9
REMARK    3  A    between atoms: C_9  and  C_10
REMARK    4  A    between atoms: C_10  and  C_13
REMARK    5  A    between atoms: C_17  and  N_18
REMARK    6  A    between atoms: N_18  and  C_19
REMARK                            x       y       z     vdW  Elec       q    Type
REMARK                         _______ _______ _______ _____ _____    ______ ____
ROOT
ATOM      1  C   UNL     1      46.436   6.380  12.399  0.00  0.00    +0.000 C 
ATOM      2  F   UNL     1      46.078   7.530  13.050  0.00  0.00    +0.000 F 
ATOM      3  F   UNL     1      47.105   6.797  11.282  0.00  0.00    +0.000 F 
ENDROOT
BRANCH   1   4
ATOM      4  C   UNL     1      45.226   5.537  12.038  0.00  0.00    +0.000 A 
ATOM      5  C   UNL     1      43.936   5.929  12.412  0.00  0.00    +0.000 A 
ATOM      6  C   UNL     1      42.836   5.137  12.078  0.00  0.00    +0.000 A 
ATOM      7  C   UNL     1      43.013   3.942  11.375  0.00  0.00    +0.000 A 
ATOM      8  C   UNL     1      44.289   3.534  10.985  0.00  0.00    +0.000 A 
ATOM      9  C   UNL     1      45.386   4.340  11.318  0.00  0.00    +0.000 A 
BRANCH   8  10
ATOM     10  N   UNL     1      44.530   2.348  10.257  0.00  0.00    +0.000 N 
ATOM     11  H   UNL     1      45.262   1.816  10.726  0.00  0.00    +0.000 HD
BRANCH  10  12
ATOM     12  C   UNL     1      44.616   2.244   8.828  0.00  0.00    +0.000 C 
ATOM     13  C   UNL     1      46.039   1.877   8.351  0.00  0.00    +0.000 C 
ATOM     14  C   UNL     1      45.974   3.050   7.360  0.00  0.00    +0.000 C 
ATOM     15  C   UNL     1      44.810   3.632   8.177  0.00  0.00    +0.000 C 
ENDBRANCH  10  12
ENDBRANCH   8  10
ENDBRANCH   1   4
BRANCH   1  16
ATOM     16  C   UNL     1      47.420   5.598  13.310  0.00  0.00    +0.000 C 
BRANCH  16  21
ATOM     17  C   UNL     1      48.621   4.553  18.173  0.00  0.00    +0.000 A 
ATOM     18  C   UNL     1      49.012   5.628  17.384  0.00  0.00    +0.000 A 
ATOM     19  C   UNL     1      48.418   5.803  16.131  0.00  0.00    +0.000 A 
ATOM     20  C   UNL     1      47.464   4.897  15.686  0.00  0.00    +0.000 A 
ATOM     21  N   UNL     1      46.765   5.048  14.507  0.00  0.00    +0.000 N 
ATOM     22  N   UNL     1      47.102   3.834  16.431  0.00  0.00    +0.000 NA
ATOM     23  C   UNL     1      47.684   3.677  17.650  0.00  0.00    +0.000 A 
ATOM     24  H   UNL     1      46.214   4.204  14.349  0.00  0.00    +0.000 HD
BRANCH  17  26
ATOM     25  N   UNL     1      48.399   3.553  20.377  0.00  0.00    +0.000 N 
ATOM     26  C   UNL     1      49.159   4.312  19.528  0.00  0.00    +0.000 C 
ATOM     27  O   UNL     1      50.255   4.735  19.868  0.00  0.00    +0.000 OA
ATOM     28  H   UNL     1      48.833   3.295  21.254  0.00  0.00    +0.000 HD
ATOM     29  H   UNL     1      47.637   2.975  20.050  0.00  0.00    +0.000 HD
ENDBRANCH  17  26
ENDBRANCH  16  21
ENDBRANCH   1  16
TORSDOF 6
ENDMDL
MODEL 9
REMARK VINA RESULT:    -7.499      3.742      8.217
REMARK INTER + INTRA:         -11.035
REMARK INTER:                 -10.233
REMARK INTRA:                  -0.802
REMARK UNBOUND:                -0.906
REMARK  Name = 
REMARK  6 active torsions:
REMARK  status: ('A' for Active; 'I' for Inactive)
REMARK    1  A    between atoms: C_2  and  C_4
REMARK    2  A    between atoms: N_8  and  C_9
REMARK    3  A    between atoms: C_9  and  C_10
REMARK    4  A    between atoms: C_10  and  C_13
REMARK    5  A    between atoms: C_17  and  N_18
REMARK    6  A    between atoms: N_18  and  C_19
REMARK                            x       y       z     vdW  Elec       q    Type
REMARK                         _______ _______ _______ _____ _____    ______ ____
ROOT
ATOM      1  C   UNL     1      46.873   4.398  13.764  0.00  0.00    +0.000 C 
ATOM      2  F   UNL     1      47.643   5.460  13.373  0.00  0.00    +0.000 F 
ATOM      3  F   UNL     1      47.651   3.295  13.545  0.00  0.00    +0.000 F 
ENDROOT
BRANCH   1   4
ATOM      4  C   UNL     1      45.574   4.325  12.982  0.00  0.00    +0.000 A 
ATOM      5  C   UNL     1      44.525   5.215  13.239  0.00  0.00    +0.000 A 
ATOM      6  C   UNL     1      43.335   5.128  12.515  0.00  0.00    +0.000 A 
ATOM      7  C   UNL     1      43.176   4.146  11.533  0.00  0.00    +0.000 A 
ATOM      8  C   UNL     1      44.210   3.251  11.254  0.00  0.00    +0.000 A 
ATOM      9  C   UNL     1      45.404   3.353  11.981  0.00  0.00    +0.000 A 
BRANCH   8  10
ATOM     10  N   UNL     1      44.115   2.251  10.262  0.00  0.00    +0.000 N 
ATOM     11  H   UNL     1      44.506   1.384  10.630  0.00  0.00    +0.000 HD
BRANCH  10  12
ATOM     12  C   UNL     1      44.402   2.424   8.866  0.00  0.00    +0.000 C 
ATOM     13  C   UNL     1      45.844   2.004   8.506  0.00  0.00    +0.000 C 
ATOM     14  C   UNL     1      46.022   3.351   7.787  0.00  0.00    +0.000 C 
ATOM     15  C   UNL     1      44.803   3.884   8.555  0.00  0.00    +0.000 C 
ENDBRANCH  10  12
ENDBRANCH   8  10
ENDBRANCH   1   4
BRANCH   1  16
ATOM     16  C   UNL     1      46.610   4.531  15.288  0.00  0.00    +0.000 C 
BRANCH  16  21
ATOM     17  C   UNL     1      50.982   3.244  17.615  0.00  0.00    +0.000 A 
ATOM     18  C   UNL     1      50.354   4.482  17.549  0.00  0.00    +0.000 A 
ATOM     19  C   UNL     1      49.069   4.564  17.004  0.00  0.00    +0.000 A 
ATOM     20  C   UNL     1      48.449   3.419  16.522  0.00  0.00    +0.000 A 
ATOM     21  N   UNL     1      47.151   3.399  16.055  0.00  0.00    +0.000 N 
ATOM     22  N   UNL     1      49.063   2.220  16.552  0.00  0.00    +0.000 NA
ATOM     23  C   UNL     1      50.311   2.153  17.089  0.00  0.00    +0.000 A 
ATOM     24  H   UNL     1      46.968   2.478  15.655  0.00  0.00    +0.000 HD
BRANCH  17  26
ATOM     25  N   UNL     1      52.688   1.769  18.520  0.00  0.00    +0.000 N 
ATOM     26  C   UNL     1      52.319   3.051  18.214  0.00  0.00    +0.000 C 
ATOM     27  O   UNL     1      53.083   3.988  18.393  0.00  0.00    +0.000 OA
ATOM     28  H   UNL     1      53.648   1.639  18.813  0.00  0.00    +0.000 HD
ATOM     29  H   UNL     1      52.207   0.963  18.145  0.00  0.00    +0.000 HD
ENDBRANCH  17  26
ENDBRANCH  16  21
ENDBRANCH   1  16
TORSDOF 6
ENDMDL
