MODEL 1
REMARK VINA RESULT:    -9.440      0.000      0.000
REMARK INTER + INTRA:         -13.657
REMARK INTER:                 -12.476
REMARK INTRA:                  -1.182
REMARK UNBOUND:                -1.182
REMARK  Name = 
REMARK  6 active torsions:
REMARK  status: ('A' for Active; 'I' for Inactive)
REMARK    1  A    between atoms: C_2  and  C_4
REMARK    2  A    between atoms: N_8  and  C_9
REMARK    3  A    between atoms: C_9  and  C_10
REMARK    4  A    between atoms: C_10  and  C_13
REMARK    5  A    between atoms: C_15  and  N_16
REMARK    6  A    between atoms: C_19  and  O_20
REMARK                            x       y       z     vdW  Elec       q    Type
REMARK                         _______ _______ _______ _____ _____    ______ ____
ROOT
ATOM      1  C   UNL     1      42.988   5.234  12.294  0.00  0.00    +0.000 C 
ATOM      2  F   UNL     1      41.948   6.109  12.153  0.00  0.00    +0.000 F 
ATOM      3  F   UNL     1      42.669   4.472  13.383  0.00  0.00    +0.000 F 
ENDROOT
BRANCH   1   4
ATOM      4  C   UNL     1      44.319   5.964  12.464  0.00  0.00    +0.000 A 
ATOM      5  C   UNL     1      45.338   5.386  13.220  0.00  0.00    +0.000 A 
ATOM      6  C   UNL     1      46.530   6.081  13.467  0.00  0.00    +0.000 A 
ATOM      7  C   UNL     1      46.658   7.338  12.874  0.00  0.00    +0.000 A 
ATOM      8  C   UNL     1      45.618   7.848  12.123  0.00  0.00    +0.000 A 
ATOM      9  N   UNL     1      44.457   7.201  11.911  0.00  0.00    +0.000 NA
BRANCH   6  10
ATOM     10  N   UNL     1      47.521   5.539  14.269  0.00  0.00    +0.000 N 
ATOM     11  C   UNL     1      48.678   6.319  14.707  0.00  0.00    +0.000 C 
ATOM     12  C   UNL     1      48.654   6.501  16.220  0.00  0.00    +0.000 C 
ATOM     13  C   UNL     1      48.465   5.176  16.957  0.00  0.00    +0.000 C 
ATOM     14  C   UNL     1      47.275   4.385  16.422  0.00  0.00    +0.000 C 
ATOM     15  C   UNL     1      47.324   4.232  14.903  0.00  0.00    +0.000 C 
BRANCH  13  16
ATOM     16  O   UNL     1      49.657   4.392  16.898  0.00  0.00    +0.000 OA
ATOM     17  H   UNL     1      50.424   4.963  17.074  0.00  0.00    +0.000 HD
ENDBRANCH  13  16
ENDBRANCH   6  10
ENDBRANCH   1   4
BRANCH   1  18
ATOM     18  C   UNL     1      43.040   4.321  11.047  0.00  0.00    +0.000 C 
BRANCH  18  23
ATOM     19  C   UNL     1      46.424   2.464   7.684  0.00  0.00    +0.000 A 
ATOM     20  C   UNL     1      45.696   1.859   8.696  0.00  0.00    +0.000 A 
ATOM     21  C   UNL     1      44.827   2.634   9.464  0.00  0.00    +0.000 A 
ATOM     22  C   UNL     1      44.713   4.004   9.228  0.00  0.00    +0.000 A 
ATOM     23  N   UNL     1      43.868   4.812   9.945  0.00  0.00    +0.000 N 
ATOM     24  N   UNL     1      45.426   4.602   8.253  0.00  0.00    +0.000 NA
ATOM     25  C   UNL     1      46.264   3.829   7.506  0.00  0.00    +0.000 A 
ATOM     26  H   UNL     1      43.988   5.808   9.791  0.00  0.00    +0.000 HD
BRANCH  19  28
ATOM     27  N   UNL     1      48.463   2.400   6.378  0.00  0.00    +0.000 N 
ATOM     28  C   UNL     1      47.375   1.714   6.843  0.00  0.00    +0.000 C 
ATOM     29  O   UNL     1      47.209   0.528   6.585  0.00  0.00    +0.000 OA
ATOM     30  H   UNL     1      49.151   1.865   5.861  0.00  0.00    +0.000 HD
ATOM     31  H   UNL     1      48.754   3.288   6.761  0.00  0.00    +0.000 HD
ENDBRANCH  19  28
ENDBRANCH  18  23
ENDBRANCH   1  18
TORSDOF 6
ENDMDL
MODEL 2
REMARK VINA RESULT:    -9.143      2.026      2.986
REMARK INTER + INTRA:         -13.265
REMARK INTER:                 -12.188
REMARK INTRA:                  -1.076
REMARK UNBOUND:                -1.182
REMARK  Name = 
REMARK  6 active torsions:
REMARK  status: ('A' for Active; 'I' for Inactive)
REMARK    1  A    between atoms: C_2  and  C_4
REMARK    2  A    between atoms: N_8  and  C_9
REMARK    3  A    between atoms: C_9  and  C_10
REMARK    4  A    between atoms: C_10  and  C_13
REMARK    5  A    between atoms: C_15  and  N_16
REMARK    6  A    between atoms: C_19  and  O_20
REMARK                            x       y       z     vdW  Elec       q    Type
REMARK                         _______ _______ _______ _____ _____    ______ ____
ROOT
ATOM      1  C   UNL     1      43.334   5.559  12.135  0.00  0.00    +0.000 C 
ATOM      2  F   UNL     1      43.104   6.856  11.770  0.00  0.00    +0.000 F 
ATOM      3  F   UNL     1      42.324   5.247  13.004  0.00  0.00    +0.000 F 
ENDROOT
BRANCH   1   4
ATOM      4  C   UNL     1      44.716   5.387  12.763  0.00  0.00    +0.000 A 
ATOM      5  C   UNL     1      45.600   6.464  12.801  0.00  0.00    +0.000 A 
ATOM      6  C   UNL     1      46.906   6.302  13.286  0.00  0.00    +0.000 A 
ATOM      7  C   UNL     1      47.242   5.038  13.774  0.00  0.00    +0.000 A 
ATOM      8  C   UNL     1      46.313   4.017  13.723  0.00  0.00    +0.000 A 
ATOM      9  N   UNL     1      45.071   4.157  13.226  0.00  0.00    +0.000 NA
BRANCH   6  10
ATOM     10  N   UNL     1      47.811   7.350  13.270  0.00  0.00    +0.000 N 
ATOM     11  C   UNL     1      49.178   7.188  12.776  0.00  0.00    +0.000 C 
ATOM     12  C   UNL     1      49.392   8.024  11.519  0.00  0.00    +0.000 C 
ATOM     13  C   UNL     1      48.953   9.474  11.710  0.00  0.00    +0.000 C 
ATOM     14  C   UNL     1      47.539   9.578  12.274  0.00  0.00    +0.000 C 
ATOM     15  C   UNL     1      47.357   8.720  13.525  0.00  0.00    +0.000 C 
BRANCH  13  16
ATOM     16  O   UNL     1      49.879  10.175  12.541  0.00  0.00    +0.000 OA
ATOM     17  H   UNL     1      50.781  10.022  12.214  0.00  0.00    +0.000 HD
ENDBRANCH  13  16
ENDBRANCH   6  10
ENDBRANCH   1   4
BRANCH   1  18
ATOM     18  C   UNL     1      43.206   4.662  10.882  0.00  0.00    +0.000 C 
BRANCH  18  23
ATOM     19  C   UNL     1      46.447   2.318   7.686  0.00  0.00    +0.000 A 
ATOM     20  C   UNL     1      45.656   1.841   8.719  0.00  0.00    +0.000 A 
ATOM     21  C   UNL     1      44.851   2.733   9.428  0.00  0.00    +0.000 A 
ATOM     22  C   UNL     1      44.864   4.091   9.112  0.00  0.00    +0.000 A 
ATOM     23  N   UNL     1      44.087   5.012   9.768  0.00  0.00    +0.000 N 
ATOM     24  N   UNL     1      45.639   4.566   8.117  0.00  0.00    +0.000 NA
ATOM     25  C   UNL     1      46.413   3.679   7.429  0.00  0.00    +0.000 A 
ATOM     26  H   UNL     1      44.299   5.983   9.560  0.00  0.00    +0.000 HD
BRANCH  19  28
ATOM     27  N   UNL     1      48.464   2.007   6.381  0.00  0.00    +0.000 N 
ATOM     28  C   UNL     1      47.336   1.438   6.905  0.00  0.00    +0.000 C 
ATOM     29  O   UNL     1      47.087   0.250   6.746  0.00  0.00    +0.000 OA
ATOM     30  H   UNL     1      49.108   1.387   5.906  0.00  0.00    +0.000 HD
ATOM     31  H   UNL     1      48.818   2.902   6.689  0.00  0.00    +0.000 HD
ENDBRANCH  19  28
ENDBRANCH  18  23
ENDBRANCH   1  18
TORSDOF 6
ENDMDL
MODEL 3
REMARK VINA RESULT:    -9.083      1.225      1.657
REMARK INTER + INTRA:         -13.185
REMARK INTER:                 -11.917
REMARK INTRA:                  -1.268
REMARK UNBOUND:                -1.182
REMARK  Name = 
REMARK  6 active torsions:
REMARK  status: ('A' for Active; 'I' for Inactive)
REMARK    1  A    between atoms: C_2  and  C_4
REMARK    2  A    between atoms: N_8  and  C_9
REMARK    3  A    between atoms: C_9  and  C_10
REMARK    4  A    between atoms: C_10  and  C_13
REMARK    5  A    between atoms: C_15  and  N_16
REMARK    6  A    between atoms: C_19  and  O_20
REMARK                            x       y       z     vdW  Elec       q    Type
REMARK                         _______ _______ _______ _____ _____    ______ ____
ROOT
ATOM      1  C   UNL     1      43.671   4.722  12.410  0.00  0.00    +0.000 C 
ATOM      2  F   UNL     1      42.644   5.022  13.260  0.00  0.00    +0.000 F 
ATOM      3  F   UNL     1      44.225   3.576  12.908  0.00  0.00    +0.000 F 
ENDROOT
BRANCH   1   4
ATOM      4  C   UNL     1      44.681   5.865  12.321  0.00  0.00    +0.000 A 
ATOM      5  C   UNL     1      45.967   5.698  12.832  0.00  0.00    +0.000 A 
ATOM      6  C   UNL     1      46.878   6.764  12.847  0.00  0.00    +0.000 A 
ATOM      7  C   UNL     1      46.448   7.964  12.277  0.00  0.00    +0.000 A 
ATOM      8  C   UNL     1      45.166   8.059  11.772  0.00  0.00    +0.000 A 
ATOM      9  N   UNL     1      44.276   7.051  11.787  0.00  0.00    +0.000 NA
BRANCH   6  10
ATOM     10  N   UNL     1      48.136   6.624  13.409  0.00  0.00    +0.000 N 
ATOM     11  C   UNL     1      49.349   7.055  12.716  0.00  0.00    +0.000 C 
ATOM     12  C   UNL     1      50.009   8.207  13.466  0.00  0.00    +0.000 C 
ATOM     13  C   UNL     1      50.202   7.893  14.948  0.00  0.00    +0.000 C 
ATOM     14  C   UNL     1      48.916   7.400  15.605  0.00  0.00    +0.000 C 
ATOM     15  C   UNL     1      48.275   6.255  14.821  0.00  0.00    +0.000 C 
BRANCH  13  16
ATOM     16  O   UNL     1      51.254   6.945  15.130  0.00  0.00    +0.000 OA
ATOM     17  H   UNL     1      52.108   7.383  14.977  0.00  0.00    +0.000 HD
ENDBRANCH  13  16
ENDBRANCH   6  10
ENDBRANCH   1   4
BRANCH   1  18
ATOM     18  C   UNL     1      43.085   4.424  11.011  0.00  0.00    +0.000 C 
BRANCH  18  23
ATOM     19  C   UNL     1      46.378   2.311   7.709  0.00  0.00    +0.000 A 
ATOM     20  C   UNL     1      45.642   1.776   8.754  0.00  0.00    +0.000 A 
ATOM     21  C   UNL     1      44.804   2.612   9.493  0.00  0.00    +0.000 A 
ATOM     22  C   UNL     1      44.730   3.972   9.194  0.00  0.00    +0.000 A 
ATOM     23  N   UNL     1      43.917   4.837   9.881  0.00  0.00    +0.000 N 
ATOM     24  N   UNL     1      45.451   4.502   8.188  0.00  0.00    +0.000 NA
ATOM     25  C   UNL     1      46.258   3.670   7.470  0.00  0.00    +0.000 A 
ATOM     26  H   UNL     1      44.066   5.822   9.680  0.00  0.00    +0.000 HD
BRANCH  19  28
ATOM     27  N   UNL     1      48.358   2.141   6.324  0.00  0.00    +0.000 N 
ATOM     28  C   UNL     1      47.297   1.494   6.895  0.00  0.00    +0.000 C 
ATOM     29  O   UNL     1      47.131   0.289   6.751  0.00  0.00    +0.000 OA
ATOM     30  H   UNL     1      49.026   1.567   5.825  0.00  0.00    +0.000 HD
ATOM     31  H   UNL     1      48.657   3.062   6.613  0.00  0.00    +0.000 HD
ENDBRANCH  19  28
ENDBRANCH  18  23
ENDBRANCH   1  18
TORSDOF 6
ENDMDL
MODEL 4
REMARK VINA RESULT:    -8.494      2.008      2.566
REMARK INTER + INTRA:         -12.406
REMARK INTER:                 -11.298
REMARK INTRA:                  -1.109
REMARK UNBOUND:                -1.182
REMARK  Name = 
REMARK  6 active torsions:
REMARK  status: ('A' for Active; 'I' for Inactive)
REMARK    1  A    between atoms: C_2  and  C_4
REMARK    2  A    between atoms: N_8  and  C_9
REMARK    3  A    between atoms: C_9  and  C_10
REMARK    4  A    between atoms: C_10  and  C_13
REMARK    5  A    between atoms: C_15  and  N_16
REMARK    6  A    between atoms: C_19  and  O_20
REMARK                            x       y       z     vdW  Elec       q    Type
REMARK                         _______ _______ _______ _____ _____    ______ ____
ROOT
ATOM      1  C   UNL     1      44.004   4.124  12.472  0.00  0.00    +0.000 C 
ATOM      2  F   UNL     1      43.014   4.304  13.396  0.00  0.00    +0.000 F 
ATOM      3  F   UNL     1      44.818   3.161  13.002  0.00  0.00    +0.000 F 
ENDROOT
BRANCH   1   4
ATOM      4  C   UNL     1      44.752   5.426  12.187  0.00  0.00    +0.000 A 
ATOM      5  C   UNL     1      46.116   5.517  12.459  0.00  0.00    +0.000 A 
ATOM      6  C   UNL     1      46.801   6.730  12.295  0.00  0.00    +0.000 A 
ATOM      7  C   UNL     1      46.061   7.805  11.798  0.00  0.00    +0.000 A 
ATOM      8  C   UNL     1      44.716   7.644  11.532  0.00  0.00    +0.000 A 
ATOM      9  N   UNL     1      44.046   6.492  11.721  0.00  0.00    +0.000 NA
BRANCH   6  10
ATOM     10  N   UNL     1      48.141   6.846  12.622  0.00  0.00    +0.000 N 
ATOM     11  C   UNL     1      49.118   7.426  11.701  0.00  0.00    +0.000 C 
ATOM     12  C   UNL     1      49.680   8.723  12.271  0.00  0.00    +0.000 C 
ATOM     13  C   UNL     1      50.182   8.553  13.704  0.00  0.00    +0.000 C 
ATOM     14  C   UNL     1      49.139   7.897  14.604  0.00  0.00    +0.000 C 
ATOM     15  C   UNL     1      48.587   6.607  13.998  0.00  0.00    +0.000 C 
BRANCH  13  16
ATOM     16  O   UNL     1      51.402   7.813  13.726  0.00  0.00    +0.000 OA
ATOM     17  H   UNL     1      51.313   7.069  14.346  0.00  0.00    +0.000 HD
ENDBRANCH  13  16
ENDBRANCH   6  10
ENDBRANCH   1   4
BRANCH   1  18
ATOM     18  C   UNL     1      43.374   3.580  11.169  0.00  0.00    +0.000 C 
BRANCH  18  23
ATOM     19  C   UNL     1      46.570   2.711   7.265  0.00  0.00    +0.000 A 
ATOM     20  C   UNL     1      45.979   3.872   7.738  0.00  0.00    +0.000 A 
ATOM     21  C   UNL     1      45.138   3.802   8.850  0.00  0.00    +0.000 A 
ATOM     22  C   UNL     1      44.882   2.575   9.459  0.00  0.00    +0.000 A 
ATOM     23  N   UNL     1      44.073   2.449  10.559  0.00  0.00    +0.000 N 
ATOM     24  N   UNL     1      45.444   1.440   8.999  0.00  0.00    +0.000 NA
ATOM     25  C   UNL     1      46.269   1.527   7.917  0.00  0.00    +0.000 A 
ATOM     26  H   UNL     1      43.836   1.495  10.815  0.00  0.00    +0.000 HD
BRANCH  19  28
ATOM     27  N   UNL     1      48.778   2.439   6.307  0.00  0.00    +0.000 N 
ATOM     28  C   UNL     1      47.455   2.704   6.085  0.00  0.00    +0.000 C 
ATOM     29  O   UNL     1      47.025   2.909   4.957  0.00  0.00    +0.000 OA
ATOM     30  H   UNL     1      49.371   2.364   5.489  0.00  0.00    +0.000 HD
ATOM     31  H   UNL     1      49.118   2.034   7.168  0.00  0.00    +0.000 HD
ENDBRANCH  19  28
ENDBRANCH  18  23
ENDBRANCH   1  18
TORSDOF 6
ENDMDL
MODEL 5
REMARK VINA RESULT:    -7.702      2.175      8.244
REMARK INTER + INTRA:         -11.360
REMARK INTER:                 -10.351
REMARK INTRA:                  -1.009
REMARK UNBOUND:                -1.182
REMARK  Name = 
REMARK  6 active torsions:
REMARK  status: ('A' for Active; 'I' for Inactive)
REMARK    1  A    between atoms: C_2  and  C_4
REMARK    2  A    between atoms: N_8  and  C_9
REMARK    3  A    between atoms: C_9  and  C_10
REMARK    4  A    between atoms: C_10  and  C_13
REMARK    5  A    between atoms: C_15  and  N_16
REMARK    6  A    between atoms: C_19  and  O_20
REMARK                            x       y       z     vdW  Elec       q    Type
REMARK                         _______ _______ _______ _____ _____    ______ ____
ROOT
ATOM      1  C   UNL     1      45.474   5.976  12.520  0.00  0.00    +0.000 C 
ATOM      2  F   UNL     1      44.534   6.614  13.280  0.00  0.00    +0.000 F 
ATOM      3  F   UNL     1      45.850   6.890  11.575  0.00  0.00    +0.000 F 
ENDROOT
BRANCH   1   4
ATOM      4  C   UNL     1      44.921   4.693  11.901  0.00  0.00    +0.000 A 
ATOM      5  C   UNL     1      45.309   4.318  10.616  0.00  0.00    +0.000 A 
ATOM      6  C   UNL     1      44.742   3.197   9.993  0.00  0.00    +0.000 A 
ATOM      7  C   UNL     1      43.826   2.459  10.745  0.00  0.00    +0.000 A 
ATOM      8  C   UNL     1      43.497   2.875  12.020  0.00  0.00    +0.000 A 
ATOM      9  N   UNL     1      44.011   3.969  12.609  0.00  0.00    +0.000 NA
BRANCH   6  10
ATOM     10  N   UNL     1      45.075   2.854   8.694  0.00  0.00    +0.000 N 
ATOM     11  C   UNL     1      45.351   3.862   7.671  0.00  0.00    +0.000 C 
ATOM     12  C   UNL     1      46.807   3.783   7.227  0.00  0.00    +0.000 C 
ATOM     13  C   UNL     1      47.218   2.363   6.845  0.00  0.00    +0.000 C 
ATOM     14  C   UNL     1      46.859   1.349   7.928  0.00  0.00    +0.000 C 
ATOM     15  C   UNL     1      45.397   1.464   8.358  0.00  0.00    +0.000 C 
BRANCH  13  16
ATOM     16  O   UNL     1      46.637   1.989   5.595  0.00  0.00    +0.000 OA
ATOM     17  H   UNL     1      47.340   1.704   4.988  0.00  0.00    +0.000 HD
ENDBRANCH  13  16
ENDBRANCH   6  10
ENDBRANCH   1   4
BRANCH   1  18
ATOM     18  C   UNL     1      46.695   5.651  13.411  0.00  0.00    +0.000 C 
BRANCH  18  23
ATOM     19  C   UNL     1      48.504   4.432  18.043  0.00  0.00    +0.000 A 
ATOM     20  C   UNL     1      48.823   5.454  17.163  0.00  0.00    +0.000 A 
ATOM     21  C   UNL     1      48.143   5.541  15.947  0.00  0.00    +0.000 A 
ATOM     22  C   UNL     1      47.173   4.596  15.617  0.00  0.00    +0.000 A 
ATOM     23  N   UNL     1      46.468   4.638  14.441  0.00  0.00    +0.000 N 
ATOM     24  N   UNL     1      46.865   3.593  16.462  0.00  0.00    +0.000 NA
ATOM     25  C   UNL     1      47.532   3.527  17.649  0.00  0.00    +0.000 A 
ATOM     26  H   UNL     1      45.908   3.814  14.243  0.00  0.00    +0.000 HD
BRANCH  19  28
ATOM     27  N   UNL     1      48.524   3.566  20.305  0.00  0.00    +0.000 N 
ATOM     28  C   UNL     1      49.191   4.266  19.337  0.00  0.00    +0.000 C 
ATOM     29  O   UNL     1      50.312   4.717  19.533  0.00  0.00    +0.000 OA
ATOM     30  H   UNL     1      49.025   3.392  21.167  0.00  0.00    +0.000 HD
ATOM     31  H   UNL     1      47.723   2.984  20.105  0.00  0.00    +0.000 HD
ENDBRANCH  19  28
ENDBRANCH  18  23
ENDBRANCH   1  18
TORSDOF 6
ENDMDL
MODEL 6
REMARK VINA RESULT:    -7.226      3.131      7.201
REMARK INTER + INTRA:         -10.731
REMARK INTER:                  -9.552
REMARK INTRA:                  -1.179
REMARK UNBOUND:                -1.182
REMARK  Name = 
REMARK  6 active torsions:
REMARK  status: ('A' for Active; 'I' for Inactive)
REMARK    1  A    between atoms: C_2  and  C_4
REMARK    2  A    between atoms: N_8  and  C_9
REMARK    3  A    between atoms: C_9  and  C_10
REMARK    4  A    between atoms: C_10  and  C_13
REMARK    5  A    between atoms: C_15  and  N_16
REMARK    6  A    between atoms: C_19  and  O_20
REMARK                            x       y       z     vdW  Elec       q    Type
REMARK                         _______ _______ _______ _____ _____    ______ ____
ROOT
ATOM      1  C   UNL     1      46.631   4.270  13.702  0.00  0.00    +0.000 C 
ATOM      2  F   UNL     1      47.444   3.209  13.987  0.00  0.00    +0.000 F 
ATOM      3  F   UNL     1      46.216   4.739  14.918  0.00  0.00    +0.000 F 
ENDROOT
BRANCH   1   4
ATOM      4  C   UNL     1      45.462   3.859  12.807  0.00  0.00    +0.000 A 
ATOM      5  C   UNL     1      45.684   3.579  11.460  0.00  0.00    +0.000 A 
ATOM      6  C   UNL     1      44.612   3.293  10.601  0.00  0.00    +0.000 A 
ATOM      7  C   UNL     1      43.341   3.250  11.177  0.00  0.00    +0.000 A 
ATOM      8  C   UNL     1      43.192   3.522  12.523  0.00  0.00    +0.000 A 
ATOM      9  N   UNL     1      44.211   3.831  13.344  0.00  0.00    +0.000 NA
BRANCH   6  10
ATOM     10  N   UNL     1      44.817   3.075   9.249  0.00  0.00    +0.000 N 
ATOM     11  C   UNL     1      45.089   4.169   8.318  0.00  0.00    +0.000 C 
ATOM     12  C   UNL     1      46.496   4.043   7.746  0.00  0.00    +0.000 C 
ATOM     13  C   UNL     1      46.766   2.649   7.183  0.00  0.00    +0.000 C 
ATOM     14  C   UNL     1      46.416   1.549   8.180  0.00  0.00    +0.000 C 
ATOM     15  C   UNL     1      45.005   1.712   8.743  0.00  0.00    +0.000 C 
BRANCH  13  16
ATOM     16  O   UNL     1      46.063   2.457   5.955  0.00  0.00    +0.000 OA
ATOM     17  H   UNL     1      45.524   1.651   6.019  0.00  0.00    +0.000 HD
ENDBRANCH  13  16
ENDBRANCH   6  10
ENDBRANCH   1   4
BRANCH   1  18
ATOM     18  C   UNL     1      47.471   5.365  13.007  0.00  0.00    +0.000 C 
BRANCH  18  23
ATOM     19  C   UNL     1      44.441   9.256  11.629  0.00  0.00    +0.000 A 
ATOM     20  C   UNL     1      44.598   7.977  11.118  0.00  0.00    +0.000 A 
ATOM     21  C   UNL     1      45.516   7.114  11.717  0.00  0.00    +0.000 A 
ATOM     22  C   UNL     1      46.280   7.545  12.800  0.00  0.00    +0.000 A 
ATOM     23  N   UNL     1      47.190   6.736  13.433  0.00  0.00    +0.000 N 
ATOM     24  N   UNL     1      46.142   8.790  13.296  0.00  0.00    +0.000 NA
ATOM     25  C   UNL     1      45.235   9.618  12.705  0.00  0.00    +0.000 A 
ATOM     26  H   UNL     1      47.795   7.206  14.100  0.00  0.00    +0.000 HD
BRANCH  19  28
ATOM     27  N   UNL     1      43.212  10.078   9.711  0.00  0.00    +0.000 N 
ATOM     28  C   UNL     1      43.504  10.229  11.039  0.00  0.00    +0.000 C 
ATOM     29  O   UNL     1      42.996  11.121  11.707  0.00  0.00    +0.000 OA
ATOM     30  H   UNL     1      42.515  10.703   9.325  0.00  0.00    +0.000 HD
ATOM     31  H   UNL     1      43.414   9.231   9.199  0.00  0.00    +0.000 HD
ENDBRANCH  19  28
ENDBRANCH  18  23
ENDBRANCH   1  18
TORSDOF 6
ENDMDL
MODEL 7
REMARK VINA RESULT:    -7.174      3.597      7.090
REMARK INTER + INTRA:         -10.663
REMARK INTER:                  -9.290
REMARK INTRA:                  -1.373
REMARK UNBOUND:                -1.182
REMARK  Name = 
REMARK  6 active torsions:
REMARK  status: ('A' for Active; 'I' for Inactive)
REMARK    1  A    between atoms: C_2  and  C_4
REMARK    2  A    between atoms: N_8  and  C_9
REMARK    3  A    between atoms: C_9  and  C_10
REMARK    4  A    between atoms: C_10  and  C_13
REMARK    5  A    between atoms: C_15  and  N_16
REMARK    6  A    between atoms: C_19  and  O_20
REMARK                            x       y       z     vdW  Elec       q    Type
REMARK                         _______ _______ _______ _____ _____    ______ ____
ROOT
ATOM      1  C   UNL     1      47.697   8.975  12.308  0.00  0.00    +0.000 C 
ATOM      2  F   UNL     1      47.815   9.655  13.488  0.00  0.00    +0.000 F 
ATOM      3  F   UNL     1      48.369   9.733  11.390  0.00  0.00    +0.000 F 
ENDROOT
BRANCH   1   4
ATOM      4  C   UNL     1      46.233   8.761  11.926  0.00  0.00    +0.000 A 
ATOM      5  C   UNL     1      45.714   7.469  11.859  0.00  0.00    +0.000 A 
ATOM      6  C   UNL     1      44.401   7.246  11.418  0.00  0.00    +0.000 A 
ATOM      7  C   UNL     1      43.641   8.376  11.112  0.00  0.00    +0.000 A 
ATOM      8  C   UNL     1      44.210   9.630  11.215  0.00  0.00    +0.000 A 
ATOM      9  N   UNL     1      45.480   9.849  11.603  0.00  0.00    +0.000 NA
BRANCH   6  10
ATOM     10  N   UNL     1      43.898   5.962  11.289  0.00  0.00    +0.000 N 
ATOM     11  C   UNL     1      44.672   4.882  10.678  0.00  0.00    +0.000 C 
ATOM     12  C   UNL     1      44.990   3.805  11.709  0.00  0.00    +0.000 C 
ATOM     13  C   UNL     1      43.744   3.345  12.463  0.00  0.00    +0.000 C 
ATOM     14  C   UNL     1      42.951   4.517  13.035  0.00  0.00    +0.000 C 
ATOM     15  C   UNL     1      42.661   5.583  11.979  0.00  0.00    +0.000 C 
BRANCH  13  16
ATOM     16  O   UNL     1      42.916   2.540  11.624  0.00  0.00    +0.000 OA
ATOM     17  H   UNL     1      41.987   2.794  11.754  0.00  0.00    +0.000 HD
ENDBRANCH  13  16
ENDBRANCH   6  10
ENDBRANCH   1   4
BRANCH   1  18
ATOM     18  C   UNL     1      48.412   7.612  12.447  0.00  0.00    +0.000 C 
BRANCH  18  23
ATOM     19  C   UNL     1      47.776   4.487  16.453  0.00  0.00    +0.000 A 
ATOM     20  C   UNL     1      47.091   4.609  15.254  0.00  0.00    +0.000 A 
ATOM     21  C   UNL     1      47.505   5.568  14.329  0.00  0.00    +0.000 A 
ATOM     22  C   UNL     1      48.579   6.407  14.622  0.00  0.00    +0.000 A 
ATOM     23  N   UNL     1      49.035   7.360  13.747  0.00  0.00    +0.000 N 
ATOM     24  N   UNL     1      49.244   6.303  15.789  0.00  0.00    +0.000 NA
ATOM     25  C   UNL     1      48.832   5.355  16.678  0.00  0.00    +0.000 A 
ATOM     26  H   UNL     1      49.714   8.011  14.131  0.00  0.00    +0.000 HD
BRANCH  19  28
ATOM     27  N   UNL     1      48.247   3.344  18.535  0.00  0.00    +0.000 N 
ATOM     28  C   UNL     1      47.386   3.509  17.485  0.00  0.00    +0.000 C 
ATOM     29  O   UNL     1      46.334   2.886  17.417  0.00  0.00    +0.000 OA
ATOM     30  H   UNL     1      47.944   2.726  19.278  0.00  0.00    +0.000 HD
ATOM     31  H   UNL     1      48.985   4.001  18.746  0.00  0.00    +0.000 HD
ENDBRANCH  19  28
ENDBRANCH  18  23
ENDBRANCH   1  18
TORSDOF 6
ENDMDL
MODEL 8
REMARK VINA RESULT:    -6.782      3.428      5.110
REMARK INTER + INTRA:         -10.144
REMARK INTER:                  -9.071
REMARK INTRA:                  -1.073
REMARK UNBOUND:                -1.182
REMARK  Name = 
REMARK  6 active torsions:
REMARK  status: ('A' for Active; 'I' for Inactive)
REMARK    1  A    between atoms: C_2  and  C_4
REMARK    2  A    between atoms: N_8  and  C_9
REMARK    3  A    between atoms: C_9  and  C_10
REMARK    4  A    between atoms: C_10  and  C_13
REMARK    5  A    between atoms: C_15  and  N_16
REMARK    6  A    between atoms: C_19  and  O_20
REMARK                            x       y       z     vdW  Elec       q    Type
REMARK                         _______ _______ _______ _____ _____    ______ ____
ROOT
ATOM      1  C   UNL     1      48.682   8.051  13.125  0.00  0.00    +0.000 C 
ATOM      2  F   UNL     1      48.811   7.307  11.985  0.00  0.00    +0.000 F 
ATOM      3  F   UNL     1      48.909   9.342  12.736  0.00  0.00    +0.000 F 
ENDROOT
BRANCH   1   4
ATOM      4  C   UNL     1      49.653   7.591  14.211  0.00  0.00    +0.000 A 
ATOM      5  C   UNL     1      49.213   6.732  15.217  0.00  0.00    +0.000 A 
ATOM      6  C   UNL     1      50.061   6.373  16.275  0.00  0.00    +0.000 A 
ATOM      7  C   UNL     1      51.364   6.872  16.231  0.00  0.00    +0.000 A 
ATOM      8  C   UNL     1      51.742   7.706  15.197  0.00  0.00    +0.000 A 
ATOM      9  N   UNL     1      50.923   8.082  14.198  0.00  0.00    +0.000 NA
BRANCH   6  10
ATOM     10  N   UNL     1      49.614   5.571  17.311  0.00  0.00    +0.000 N 
ATOM     11  C   UNL     1      48.251   5.666  17.834  0.00  0.00    +0.000 C 
ATOM     12  C   UNL     1      47.484   4.379  17.557  0.00  0.00    +0.000 C 
ATOM     13  C   UNL     1      48.253   3.140  18.012  0.00  0.00    +0.000 C 
ATOM     14  C   UNL     1      49.682   3.122  17.476  0.00  0.00    +0.000 C 
ATOM     15  C   UNL     1      50.418   4.431  17.760  0.00  0.00    +0.000 C 
BRANCH  13  16
ATOM     16  O   UNL     1      48.249   3.039  19.435  0.00  0.00    +0.000 OA
ATOM     17  H   UNL     1      47.674   3.730  19.803  0.00  0.00    +0.000 HD
ENDBRANCH  13  16
ENDBRANCH   6  10
ENDBRANCH   1   4
BRANCH   1  18
ATOM     18  C   UNL     1      47.226   7.933  13.631  0.00  0.00    +0.000 C 
BRANCH  18  23
ATOM     19  C   UNL     1      44.549   4.105  11.534  0.00  0.00    +0.000 A 
ATOM     20  C   UNL     1      45.497   4.129  12.544  0.00  0.00    +0.000 A 
ATOM     21  C   UNL     1      46.064   5.348  12.917  0.00  0.00    +0.000 A 
ATOM     22  C   UNL     1      45.696   6.522  12.261  0.00  0.00    +0.000 A 
ATOM     23  N   UNL     1      46.214   7.748  12.591  0.00  0.00    +0.000 N 
ATOM     24  N   UNL     1      44.784   6.506  11.270  0.00  0.00    +0.000 NA
ATOM     25  C   UNL     1      44.233   5.308  10.924  0.00  0.00    +0.000 A 
ATOM     26  H   UNL     1      45.992   8.500  11.944  0.00  0.00    +0.000 HD
BRANCH  19  28
ATOM     27  N   UNL     1      44.493   2.232  10.000  0.00  0.00    +0.000 N 
ATOM     28  C   UNL     1      43.920   2.853  11.075  0.00  0.00    +0.000 C 
ATOM     29  O   UNL     1      42.941   2.381  11.638  0.00  0.00    +0.000 OA
ATOM     30  H   UNL     1      44.103   1.337   9.731  0.00  0.00    +0.000 HD
ATOM     31  H   UNL     1      45.422   2.455   9.671  0.00  0.00    +0.000 HD
ENDBRANCH  19  28
ENDBRANCH  18  23
ENDBRANCH   1  18
TORSDOF 6
ENDMDL
MODEL 9
REMARK VINA RESULT:    -6.684      4.565      8.833
REMARK INTER + INTRA:         -10.015
REMARK INTER:                  -9.268
REMARK INTRA:                  -0.747
REMARK UNBOUND:                -1.182
REMARK  Name = 
REMARK  6 active torsions:
REMARK  status: ('A' for Active; 'I' for Inactive)
REMARK    1  A    between atoms: C_2  and  C_4
REMARK    2  A    between atoms: N_8  and  C_9
REMARK    3  A    between atoms: C_9  and  C_10
REMARK    4  A    between atoms: C_10  and  C_13
REMARK    5  A    between atoms: C_15  and  N_16
REMARK    6  A    between atoms: C_19  and  O_20
REMARK                            x       y       z     vdW  Elec       q    Type
REMARK                         _______ _______ _______ _____ _____    ______ ____
ROOT
ATOM      1  C   UNL     1      47.640   4.191  16.821  0.00  0.00    +0.000 C 
ATOM      2  F   UNL     1      47.101   2.964  16.554  0.00  0.00    +0.000 F 
ATOM      3  F   UNL     1      46.852   4.721  17.805  0.00  0.00    +0.000 F 
ENDROOT
BRANCH   1   4
ATOM      4  C   UNL     1      47.682   5.071  15.573  0.00  0.00    +0.000 A 
ATOM      5  C   UNL     1      46.794   4.834  14.525  0.00  0.00    +0.000 A 
ATOM      6  C   UNL     1      46.879   5.567  13.333  0.00  0.00    +0.000 A 
ATOM      7  C   UNL     1      47.849   6.570  13.281  0.00  0.00    +0.000 A 
ATOM      8  C   UNL     1      48.688   6.765  14.361  0.00  0.00    +0.000 A 
ATOM      9  N   UNL     1      48.634   6.041  15.493  0.00  0.00    +0.000 NA
BRANCH   6  10
ATOM     10  N   UNL     1      46.042   5.296  12.264  0.00  0.00    +0.000 N 
ATOM     11  C   UNL     1      45.245   4.071  12.192  0.00  0.00    +0.000 C 
ATOM     12  C   UNL     1      43.758   4.400  12.255  0.00  0.00    +0.000 C 
ATOM     13  C   UNL     1      43.363   5.474  11.243  0.00  0.00    +0.000 C 
ATOM     14  C   UNL     1      44.260   6.705  11.331  0.00  0.00    +0.000 C 
ATOM     15  C   UNL     1      45.743   6.339  11.279  0.00  0.00    +0.000 C 
BRANCH  13  16
ATOM     16  O   UNL     1      43.366   4.944   9.918  0.00  0.00    +0.000 OA
ATOM     17  H   UNL     1      43.600   4.001   9.952  0.00  0.00    +0.000 HD
ENDBRANCH  13  16
ENDBRANCH   6  10
ENDBRANCH   1   4
BRANCH   1  18
ATOM     18  C   UNL     1      49.068   3.995  17.380  0.00  0.00    +0.000 C 
BRANCH  18  23
ATOM     19  C   UNL     1      53.498   1.576  18.235  0.00  0.00    +0.000 A 
ATOM     20  C   UNL     1      53.080   2.869  18.508  0.00  0.00    +0.000 A 
ATOM     21  C   UNL     1      51.785   3.253  18.159  0.00  0.00    +0.000 A 
ATOM     22  C   UNL     1      50.935   2.351  17.521  0.00  0.00    +0.000 A 
ATOM     23  N   UNL     1      49.650   2.671  17.163  0.00  0.00    +0.000 N 
ATOM     24  N   UNL     1      51.337   1.096  17.242  0.00  0.00    +0.000 NA
ATOM     25  C   UNL     1      52.602   0.734  17.598  0.00  0.00    +0.000 A 
ATOM     26  H   UNL     1      49.185   1.992  16.568  0.00  0.00    +0.000 HD
BRANCH  19  28
ATOM     27  N   UNL     1      55.110   0.802  19.870  0.00  0.00    +0.000 N 
ATOM     28  C   UNL     1      54.857   1.104  18.560  0.00  0.00    +0.000 C 
ATOM     29  O   UNL     1      55.715   0.970  17.697  0.00  0.00    +0.000 OA
ATOM     30  H   UNL     1      56.020   0.411  20.079  0.00  0.00    +0.000 HD
ATOM     31  H   UNL     1      54.376   0.669  20.552  0.00  0.00    +0.000 HD
ENDBRANCH  19  28
ENDBRANCH  18  23
ENDBRANCH   1  18
TORSDOF 6
ENDMDL
