MODEL 1
REMARK VINA RESULT:    -9.284      0.000      0.000
REMARK INTER + INTRA:         -13.167
REMARK INTER:                 -12.540
REMARK INTRA:                  -0.627
REMARK UNBOUND:                -0.627
REMARK  Name = 
REMARK  10 active torsions:
REMARK  status: ('A' for Active; 'I' for Inactive)
REMARK    1  A    between atoms: C_1  and  C_2
REMARK    2  A    between atoms: N_4  and  C_5
REMARK    3  A    between atoms: C_7  and  C_8
REMARK    4  A    between atoms: C_8  and  C_9
REMARK    5  A    between atoms: C_9  and  C_10
REMARK    6  A    between atoms: C_9  and  C_11
REMARK    7  A    between atoms: C_9  and  C_12
REMARK    8  A    between atoms: C_12  and  N_13
REMARK    9  A    between atoms: C_17  and  C_18
REMARK   10  A    between atoms: C_28  and  C_29
REMARK                            x       y       z     vdW  Elec       q    Type
REMARK                         _______ _______ _______ _____ _____    ______ ____
ROOT
ATOM      1  C   UNL     1      44.114   5.140  12.007  0.00  0.00    +0.000 C 
ATOM      2  C   UNL     1      43.220   5.164  13.264  0.00  0.00    +0.000 C 
ATOM      3  C   UNL     1      44.453   6.574  11.550  0.00  0.00    +0.000 C 
ENDROOT
BRANCH   1   4
ATOM      4  C   UNL     1      45.428   4.343  12.293  0.00  0.00    +0.000 C 
BRANCH   4   7
ATOM      5  C   UNL     1      47.519   5.040  15.463  0.00  0.00    +0.000 A 
ATOM      6  C   UNL     1      46.603   4.482  14.548  0.00  0.00    +0.000 A 
ATOM      7  C   UNL     1      46.422   4.987  13.246  0.00  0.00    +0.000 A 
ATOM      8  C   UNL     1      47.181   6.095  12.851  0.00  0.00    +0.000 A 
ATOM      9  C   UNL     1      48.093   6.675  13.732  0.00  0.00    +0.000 A 
ATOM     10  C   UNL     1      48.250   6.151  15.017  0.00  0.00    +0.000 A 
ATOM     11  F   UNL     1      49.159   6.735  15.816  0.00  0.00    +0.000 F 
BRANCH   5  15
ATOM     12  C   UNL     1      50.381   3.486  17.570  0.00  0.00    +0.000 C 
ATOM     13  C   UNL     1      49.016   3.030  18.090  0.00  0.00    +0.000 C 
ATOM     14  C   UNL     1      47.933   3.105  16.987  0.00  0.00    +0.000 C 
ATOM     15  N   UNL     1      47.629   4.518  16.734  0.00  0.00    +0.000 N 
ATOM     16  C   UNL     1      47.190   5.248  17.928  0.00  0.00    +0.000 C 
ATOM     17  C   UNL     1      48.285   5.137  19.009  0.00  0.00    +0.000 C 
ATOM     18  C   UNL     1      47.817   5.763  20.315  0.00  0.00    +0.000 C 
ATOM     19  O   UNL     1      48.631   3.761  19.276  0.00  0.00    +0.000 OA
ENDBRANCH   5  15
ENDBRANCH   4   7
ENDBRANCH   1   4
BRANCH   1  20
ATOM     20  C   UNL     1      43.330   4.418  10.861  0.00  0.00    +0.000 C 
BRANCH  20  21
ATOM     21  N   UNL     1      43.892   4.746   9.559  0.00  0.00    +0.000 N 
ATOM     22  C   UNL     1      44.848   3.974   8.941  0.00  0.00    +0.000 A 
ATOM     23  C   UNL     1      44.953   2.587   9.048  0.00  0.00    +0.000 A 
ATOM     24  N   UNL     1      45.868   1.839   8.383  0.00  0.00    +0.000 NA
ATOM     25  C   UNL     1      46.686   2.552   7.558  0.00  0.00    +0.000 A 
ATOM     26  C   UNL     1      46.591   3.926   7.428  0.00  0.00    +0.000 A 
ATOM     27  N   UNL     1      45.677   4.659   8.121  0.00  0.00    +0.000 NA
ATOM     28  H   UNL     1      44.151   5.717   9.401  0.00  0.00    +0.000 HD
BRANCH  25  29
ATOM     29  C   UNL     1      47.702   1.795   6.783  0.00  0.00    +0.000 C 
ATOM     30  N   UNL     1      48.725   2.541   6.263  0.00  0.00    +0.000 N 
ATOM     31  O   UNL     1      47.631   0.583   6.615  0.00  0.00    +0.000 OA
ATOM     32  H   UNL     1      48.753   3.542   6.426  0.00  0.00    +0.000 HD
ATOM     33  H   UNL     1      49.451   2.091   5.726  0.00  0.00    +0.000 HD
ENDBRANCH  25  29
ENDBRANCH  20  21
ENDBRANCH   1  20
TORSDOF 6
ENDMDL
MODEL 2
REMARK VINA RESULT:    -8.556      2.678      4.327
REMARK INTER + INTRA:         -12.184
REMARK INTER:                 -11.658
REMARK INTRA:                  -0.526
REMARK UNBOUND:                -0.627
REMARK  Name = 
REMARK  10 active torsions:
REMARK  status: ('A' for Active; 'I' for Inactive)
REMARK    1  A    between atoms: C_1  and  C_2
REMARK    2  A    between atoms: N_4  and  C_5
REMARK    3  A    between atoms: C_7  and  C_8
REMARK    4  A    between atoms: C_8  and  C_9
REMARK    5  A    between atoms: C_9  and  C_10
REMARK    6  A    between atoms: C_9  and  C_11
REMARK    7  A    between atoms: C_9  and  C_12
REMARK    8  A    between atoms: C_12  and  N_13
REMARK    9  A    between atoms: C_17  and  C_18
REMARK   10  A    between atoms: C_28  and  C_29
REMARK                            x       y       z     vdW  Elec       q    Type
REMARK                         _______ _______ _______ _____ _____    ______ ____
ROOT
ATOM      1  C   UNL     1      44.061   5.351  11.952  0.00  0.00    +0.000 C 
ATOM      2  C   UNL     1      43.279   5.278  13.280  0.00  0.00    +0.000 C 
ATOM      3  C   UNL     1      44.290   6.819  11.533  0.00  0.00    +0.000 C 
ENDROOT
BRANCH   1   4
ATOM      4  C   UNL     1      45.432   4.613  12.091  0.00  0.00    +0.000 C 
BRANCH   4   7
ATOM      5  C   UNL     1      48.115   6.931  13.617  0.00  0.00    +0.000 A 
ATOM      6  C   UNL     1      47.187   6.342  12.735  0.00  0.00    +0.000 A 
ATOM      7  C   UNL     1      46.429   5.204  13.074  0.00  0.00    +0.000 A 
ATOM      8  C   UNL     1      46.616   4.632  14.338  0.00  0.00    +0.000 A 
ATOM      9  C   UNL     1      47.530   5.187  15.233  0.00  0.00    +0.000 A 
ATOM     10  C   UNL     1      48.267   6.316  14.868  0.00  0.00    +0.000 A 
ATOM     11  F   UNL     1      49.116   6.821  15.778  0.00  0.00    +0.000 F 
BRANCH   5  15
ATOM     12  C   UNL     1      50.828   7.599  10.927  0.00  0.00    +0.000 C 
ATOM     13  C   UNL     1      50.905   8.642  12.044  0.00  0.00    +0.000 C 
ATOM     14  C   UNL     1      50.305   8.104  13.366  0.00  0.00    +0.000 C 
ATOM     15  N   UNL     1      48.848   8.027  13.215  0.00  0.00    +0.000 N 
ATOM     16  C   UNL     1      48.226   9.306  12.857  0.00  0.00    +0.000 C 
ATOM     17  C   UNL     1      48.859   9.818  11.547  0.00  0.00    +0.000 C 
ATOM     18  C   UNL     1      48.343  11.210  11.209  0.00  0.00    +0.000 C 
ATOM     19  O   UNL     1      50.297   9.891  11.644  0.00  0.00    +0.000 OA
ENDBRANCH   5  15
ENDBRANCH   4   7
ENDBRANCH   1   4
BRANCH   1  20
ATOM     20  C   UNL     1      43.217   4.637  10.845  0.00  0.00    +0.000 C 
BRANCH  20  21
ATOM     21  N   UNL     1      43.817   4.824   9.532  0.00  0.00    +0.000 N 
ATOM     22  C   UNL     1      44.709   3.933   8.984  0.00  0.00    +0.000 A 
ATOM     23  C   UNL     1      44.695   2.553   9.189  0.00  0.00    +0.000 A 
ATOM     24  N   UNL     1      45.550   1.685   8.591  0.00  0.00    +0.000 NA
ATOM     25  C   UNL     1      46.432   2.268   7.731  0.00  0.00    +0.000 A 
ATOM     26  C   UNL     1      46.456   3.632   7.503  0.00  0.00    +0.000 A 
ATOM     27  N   UNL     1      45.600   4.486   8.130  0.00  0.00    +0.000 NA
ATOM     28  H   UNL     1      44.157   5.756   9.310  0.00  0.00    +0.000 HD
BRANCH  25  29
ATOM     29  C   UNL     1      47.387   1.375   7.026  0.00  0.00    +0.000 C 
ATOM     30  N   UNL     1      48.438   2.001   6.412  0.00  0.00    +0.000 N 
ATOM     31  O   UNL     1      47.246   0.158   6.991  0.00  0.00    +0.000 OA
ATOM     32  H   UNL     1      48.525   3.011   6.465  0.00  0.00    +0.000 HD
ATOM     33  H   UNL     1      49.126   1.455   5.916  0.00  0.00    +0.000 HD
ENDBRANCH  25  29
ENDBRANCH  20  21
ENDBRANCH   1  20
TORSDOF 6
ENDMDL
MODEL 3
REMARK VINA RESULT:    -8.273      1.628      2.312
REMARK INTER + INTRA:         -11.802
REMARK INTER:                 -11.554
REMARK INTRA:                  -0.248
REMARK UNBOUND:                -0.627
REMARK  Name = 
REMARK  10 active torsions:
REMARK  status: ('A' for Active; 'I' for Inactive)
REMARK    1  A    between atoms: C_1  and  C_2
REMARK    2  A    between atoms: N_4  and  C_5
REMARK    3  A    between atoms: C_7  and  C_8
REMARK    4  A    between atoms: C_8  and  C_9
REMARK    5  A    between atoms: C_9  and  C_10
REMARK    6  A    between atoms: C_9  and  C_11
REMARK    7  A    between atoms: C_9  and  C_12
REMARK    8  A    between atoms: C_12  and  N_13
REMARK    9  A    between atoms: C_17  and  C_18
REMARK   10  A    between atoms: C_28  and  C_29
REMARK                            x       y       z     vdW  Elec       q    Type
REMARK                         _______ _______ _______ _____ _____    ______ ____
ROOT
ATOM      1  C   UNL     1      44.453   4.949  12.001  0.00  0.00    +0.000 C 
ATOM      2  C   UNL     1      45.067   3.625  12.498  0.00  0.00    +0.000 C 
ATOM      3  C   UNL     1      43.779   5.710  13.163  0.00  0.00    +0.000 C 
ENDROOT
BRANCH   1   4
ATOM      4  C   UNL     1      45.555   5.843  11.343  0.00  0.00    +0.000 C 
BRANCH   4   7
ATOM      5  C   UNL     1      47.824   7.167  14.172  0.00  0.00    +0.000 A 
ATOM      6  C   UNL     1      47.112   6.317  13.302  0.00  0.00    +0.000 A 
ATOM      7  C   UNL     1      46.294   6.802  12.263  0.00  0.00    +0.000 A 
ATOM      8  C   UNL     1      46.177   8.187  12.098  0.00  0.00    +0.000 A 
ATOM      9  C   UNL     1      46.863   9.057  12.945  0.00  0.00    +0.000 A 
ATOM     10  C   UNL     1      47.668   8.546  13.966  0.00  0.00    +0.000 A 
ATOM     11  F   UNL     1      48.323   9.430  14.737  0.00  0.00    +0.000 F 
BRANCH   5  15
ATOM     12  C   UNL     1      49.409   8.527  17.440  0.00  0.00    +0.000 C 
ATOM     13  C   UNL     1      50.137   7.267  16.968  0.00  0.00    +0.000 C 
ATOM     14  C   UNL     1      49.969   7.049  15.445  0.00  0.00    +0.000 C 
ATOM     15  N   UNL     1      48.586   6.632  15.188  0.00  0.00    +0.000 N 
ATOM     16  C   UNL     1      48.190   5.425  15.922  0.00  0.00    +0.000 C 
ATOM     17  C   UNL     1      48.387   5.674  17.431  0.00  0.00    +0.000 C 
ATOM     18  C   UNL     1      48.119   4.403  18.225  0.00  0.00    +0.000 C 
ATOM     19  O   UNL     1      49.732   6.106  17.729  0.00  0.00    +0.000 OA
ENDBRANCH   5  15
ENDBRANCH   4   7
ENDBRANCH   1   4
BRANCH   1  20
ATOM     20  C   UNL     1      43.370   4.616  10.922  0.00  0.00    +0.000 C 
BRANCH  20  21
ATOM     21  N   UNL     1      43.888   4.833   9.579  0.00  0.00    +0.000 N 
ATOM     22  C   UNL     1      44.765   3.967   8.968  0.00  0.00    +0.000 A 
ATOM     23  C   UNL     1      44.790   2.586   9.154  0.00  0.00    +0.000 A 
ATOM     24  N   UNL     1      45.626   1.744   8.495  0.00  0.00    +0.000 NA
ATOM     25  C   UNL     1      46.445   2.356   7.593  0.00  0.00    +0.000 A 
ATOM     26  C   UNL     1      46.428   3.723   7.384  0.00  0.00    +0.000 A 
ATOM     27  N   UNL     1      45.593   4.550   8.072  0.00  0.00    +0.000 NA
ATOM     28  H   UNL     1      44.197   5.775   9.351  0.00  0.00    +0.000 HD
BRANCH  25  29
ATOM     29  C   UNL     1      47.376   1.492   6.821  0.00  0.00    +0.000 C 
ATOM     30  N   UNL     1      48.554   2.080   6.448  0.00  0.00    +0.000 N 
ATOM     31  O   UNL     1      47.108   0.331   6.533  0.00  0.00    +0.000 OA
ATOM     32  H   UNL     1      48.743   3.042   6.708  0.00  0.00    +0.000 HD
ATOM     33  H   UNL     1      49.233   1.550   5.922  0.00  0.00    +0.000 HD
ENDBRANCH  25  29
ENDBRANCH  20  21
ENDBRANCH   1  20
TORSDOF 6
ENDMDL
MODEL 4
REMARK VINA RESULT:    -7.919      3.397      4.360
REMARK INTER + INTRA:         -11.323
REMARK INTER:                 -10.726
REMARK INTRA:                  -0.597
REMARK UNBOUND:                -0.627
REMARK  Name = 
REMARK  10 active torsions:
REMARK  status: ('A' for Active; 'I' for Inactive)
REMARK    1  A    between atoms: C_1  and  C_2
REMARK    2  A    between atoms: N_4  and  C_5
REMARK    3  A    between atoms: C_7  and  C_8
REMARK    4  A    between atoms: C_8  and  C_9
REMARK    5  A    between atoms: C_9  and  C_10
REMARK    6  A    between atoms: C_9  and  C_11
REMARK    7  A    between atoms: C_9  and  C_12
REMARK    8  A    between atoms: C_12  and  N_13
REMARK    9  A    between atoms: C_17  and  C_18
REMARK   10  A    between atoms: C_28  and  C_29
REMARK                            x       y       z     vdW  Elec       q    Type
REMARK                         _______ _______ _______ _____ _____    ______ ____
ROOT
ATOM      1  C   UNL     1      44.093   4.760  11.897  0.00  0.00    +0.000 C 
ATOM      2  C   UNL     1      45.315   4.215  12.665  0.00  0.00    +0.000 C 
ATOM      3  C   UNL     1      43.004   5.246  12.877  0.00  0.00    +0.000 C 
ENDROOT
BRANCH   1   4
ATOM      4  C   UNL     1      44.526   5.929  10.952  0.00  0.00    +0.000 C 
BRANCH   4   7
ATOM      5  C   UNL     1      47.522   7.931  12.336  0.00  0.00    +0.000 A 
ATOM      6  C   UNL     1      46.727   6.916  11.767  0.00  0.00    +0.000 A 
ATOM      7  C   UNL     1      45.337   7.049  11.582  0.00  0.00    +0.000 A 
ATOM      8  C   UNL     1      44.723   8.238  11.991  0.00  0.00    +0.000 A 
ATOM      9  C   UNL     1      45.478   9.261  12.562  0.00  0.00    +0.000 A 
ATOM     10  C   UNL     1      46.855   9.099  12.733  0.00  0.00    +0.000 A 
ATOM     11  F   UNL     1      47.537  10.126  13.268  0.00  0.00    +0.000 F 
BRANCH   5  15
ATOM     12  C   UNL     1      50.731  10.024  11.734  0.00  0.00    +0.000 C 
ATOM     13  C   UNL     1      51.057   8.530  11.766  0.00  0.00    +0.000 C 
ATOM     14  C   UNL     1      49.823   7.670  11.401  0.00  0.00    +0.000 C 
ATOM     15  N   UNL     1      48.873   7.728  12.518  0.00  0.00    +0.000 N 
ATOM     16  C   UNL     1      49.441   7.286  13.796  0.00  0.00    +0.000 C 
ATOM     17  C   UNL     1      50.677   8.152  14.117  0.00  0.00    +0.000 C 
ATOM     18  C   UNL     1      51.381   7.642  15.365  0.00  0.00    +0.000 C 
ATOM     19  O   UNL     1      51.631   8.141  13.034  0.00  0.00    +0.000 OA
ENDBRANCH   5  15
ENDBRANCH   4   7
ENDBRANCH   1   4
BRANCH   1  20
ATOM     20  C   UNL     1      43.505   3.602  11.024  0.00  0.00    +0.000 C 
BRANCH  20  21
ATOM     21  N   UNL     1      44.534   2.630  10.687  0.00  0.00    +0.000 N 
ATOM     22  C   UNL     1      45.202   2.636   9.485  0.00  0.00    +0.000 A 
ATOM     23  C   UNL     1      45.518   3.777   8.747  0.00  0.00    +0.000 A 
ATOM     24  N   UNL     1      46.230   3.764   7.592  0.00  0.00    +0.000 NA
ATOM     25  C   UNL     1      46.652   2.527   7.205  0.00  0.00    +0.000 A 
ATOM     26  C   UNL     1      46.361   1.384   7.928  0.00  0.00    +0.000 A 
ATOM     27  N   UNL     1      45.627   1.420   9.075  0.00  0.00    +0.000 NA
ATOM     28  H   UNL     1      44.339   1.657  10.910  0.00  0.00    +0.000 HD
BRANCH  25  29
ATOM     29  C   UNL     1      47.454   2.439   5.958  0.00  0.00    +0.000 C 
ATOM     30  N   UNL     1      47.188   3.395   5.015  0.00  0.00    +0.000 N 
ATOM     31  O   UNL     1      48.298   1.568   5.779  0.00  0.00    +0.000 OA
ATOM     32  H   UNL     1      46.485   4.103   5.200  0.00  0.00    +0.000 HD
ATOM     33  H   UNL     1      47.697   3.396   4.145  0.00  0.00    +0.000 HD
ENDBRANCH  25  29
ENDBRANCH  20  21
ENDBRANCH   1  20
TORSDOF 6
ENDMDL
MODEL 5
REMARK VINA RESULT:    -7.744      2.349      8.986
REMARK INTER + INTRA:         -11.086
REMARK INTER:                 -10.658
REMARK INTRA:                  -0.428
REMARK UNBOUND:                -0.627
REMARK  Name = 
REMARK  10 active torsions:
REMARK  status: ('A' for Active; 'I' for Inactive)
REMARK    1  A    between atoms: C_1  and  C_2
REMARK    2  A    between atoms: N_4  and  C_5
REMARK    3  A    between atoms: C_7  and  C_8
REMARK    4  A    between atoms: C_8  and  C_9
REMARK    5  A    between atoms: C_9  and  C_10
REMARK    6  A    between atoms: C_9  and  C_11
REMARK    7  A    between atoms: C_9  and  C_12
REMARK    8  A    between atoms: C_12  and  N_13
REMARK    9  A    between atoms: C_17  and  C_18
REMARK   10  A    between atoms: C_28  and  C_29
REMARK                            x       y       z     vdW  Elec       q    Type
REMARK                         _______ _______ _______ _____ _____    ______ ____
ROOT
ATOM      1  C   UNL     1      46.427   7.260  12.485  0.00  0.00    +0.000 C 
ATOM      2  C   UNL     1      47.641   7.309  11.535  0.00  0.00    +0.000 C 
ATOM      3  C   UNL     1      46.351   8.542  13.342  0.00  0.00    +0.000 C 
ENDROOT
BRANCH   1   4
ATOM      4  C   UNL     1      45.107   7.083  11.666  0.00  0.00    +0.000 C 
BRANCH   4   7
ATOM      5  C   UNL     1      44.549   3.623  10.048  0.00  0.00    +0.000 A 
ATOM      6  C   UNL     1      44.966   4.948  10.285  0.00  0.00    +0.000 A 
ATOM      7  C   UNL     1      44.622   5.658  11.452  0.00  0.00    +0.000 A 
ATOM      8  C   UNL     1      43.825   5.020  12.409  0.00  0.00    +0.000 A 
ATOM      9  C   UNL     1      43.390   3.711  12.204  0.00  0.00    +0.000 A 
ATOM     10  C   UNL     1      43.748   3.032  11.037  0.00  0.00    +0.000 A 
ATOM     11  F   UNL     1      43.321   1.766  10.902  0.00  0.00    +0.000 F 
BRANCH   5  15
ATOM     12  C   UNL     1      47.205   4.205   7.281  0.00  0.00    +0.000 C 
ATOM     13  C   UNL     1      46.035   3.378   6.744  0.00  0.00    +0.000 C 
ATOM     14  C   UNL     1      44.742   3.625   7.558  0.00  0.00    +0.000 C 
ATOM     15  N   UNL     1      44.895   2.991   8.873  0.00  0.00    +0.000 N 
ATOM     16  C   UNL     1      45.185   1.555   8.802  0.00  0.00    +0.000 C 
ATOM     17  C   UNL     1      46.467   1.347   7.971  0.00  0.00    +0.000 C 
ATOM     18  C   UNL     1      46.732  -0.136   7.754  0.00  0.00    +0.000 C 
ATOM     19  O   UNL     1      46.369   1.973   6.674  0.00  0.00    +0.000 OA
ENDBRANCH   5  15
ENDBRANCH   4   7
ENDBRANCH   1   4
BRANCH   1  20
ATOM     20  C   UNL     1      46.595   6.028  13.436  0.00  0.00    +0.000 C 
BRANCH  20  21
ATOM     21  N   UNL     1      47.900   6.042  14.080  0.00  0.00    +0.000 N 
ATOM     22  C   UNL     1      48.103   5.594  15.365  0.00  0.00    +0.000 A 
ATOM     23  C   UNL     1      47.403   4.553  15.973  0.00  0.00    +0.000 A 
ATOM     24  N   UNL     1      47.661   4.089  17.222  0.00  0.00    +0.000 NA
ATOM     25  C   UNL     1      48.699   4.710  17.850  0.00  0.00    +0.000 A 
ATOM     26  C   UNL     1      49.414   5.736  17.260  0.00  0.00    +0.000 A 
ATOM     27  N   UNL     1      49.124   6.199  16.013  0.00  0.00    +0.000 NA
ATOM     28  H   UNL     1      48.459   6.884  13.970  0.00  0.00    +0.000 HD
BRANCH  25  29
ATOM     29  C   UNL     1      49.050   4.240  19.215  0.00  0.00    +0.000 C 
ATOM     30  N   UNL     1      48.398   3.114  19.637  0.00  0.00    +0.000 N 
ATOM     31  O   UNL     1      49.866   4.822  19.920  0.00  0.00    +0.000 OA
ATOM     32  H   UNL     1      47.731   2.657  19.025  0.00  0.00    +0.000 HD
ATOM     33  H   UNL     1      48.589   2.739  20.554  0.00  0.00    +0.000 HD
ENDBRANCH  25  29
ENDBRANCH  20  21
ENDBRANCH   1  20
TORSDOF 6
ENDMDL
MODEL 6
REMARK VINA RESULT:    -7.569      1.923      2.755
REMARK INTER + INTRA:         -10.850
REMARK INTER:                 -10.419
REMARK INTRA:                  -0.431
REMARK UNBOUND:                -0.627
REMARK  Name = 
REMARK  10 active torsions:
REMARK  status: ('A' for Active; 'I' for Inactive)
REMARK    1  A    between atoms: C_1  and  C_2
REMARK    2  A    between atoms: N_4  and  C_5
REMARK    3  A    between atoms: C_7  and  C_8
REMARK    4  A    between atoms: C_8  and  C_9
REMARK    5  A    between atoms: C_9  and  C_10
REMARK    6  A    between atoms: C_9  and  C_11
REMARK    7  A    between atoms: C_9  and  C_12
REMARK    8  A    between atoms: C_12  and  N_13
REMARK    9  A    between atoms: C_17  and  C_18
REMARK   10  A    between atoms: C_28  and  C_29
REMARK                            x       y       z     vdW  Elec       q    Type
REMARK                         _______ _______ _______ _____ _____    ______ ____
ROOT
ATOM      1  C   UNL     1      44.140   5.516  12.182  0.00  0.00    +0.000 C 
ATOM      2  C   UNL     1      43.064   5.199  13.241  0.00  0.00    +0.000 C 
ATOM      3  C   UNL     1      44.236   7.037  11.938  0.00  0.00    +0.000 C 
ENDROOT
BRANCH   1   4
ATOM      4  C   UNL     1      45.527   4.957  12.639  0.00  0.00    +0.000 C 
BRANCH   4   7
ATOM      5  C   UNL     1      48.501   7.071  13.899  0.00  0.00    +0.000 A 
ATOM      6  C   UNL     1      47.413   6.177  13.838  0.00  0.00    +0.000 A 
ATOM      7  C   UNL     1      46.686   5.941  12.655  0.00  0.00    +0.000 A 
ATOM      8  C   UNL     1      47.057   6.633  11.497  0.00  0.00    +0.000 A 
ATOM      9  C   UNL     1      48.125   7.530  11.523  0.00  0.00    +0.000 A 
ATOM     10  C   UNL     1      48.827   7.742  12.712  0.00  0.00    +0.000 A 
ATOM     11  F   UNL     1      49.861   8.599  12.674  0.00  0.00    +0.000 F 
BRANCH   5  15
ATOM     12  C   UNL     1      48.199   5.649  17.496  0.00  0.00    +0.000 C 
ATOM     13  C   UNL     1      48.879   7.020  17.510  0.00  0.00    +0.000 C 
ATOM     14  C   UNL     1      48.492   7.860  16.269  0.00  0.00    +0.000 C 
ATOM     15  N   UNL     1      49.155   7.281  15.095  0.00  0.00    +0.000 N 
ATOM     16  C   UNL     1      50.614   7.203  15.222  0.00  0.00    +0.000 C 
ATOM     17  C   UNL     1      50.959   6.374  16.477  0.00  0.00    +0.000 C 
ATOM     18  C   UNL     1      52.461   6.381  16.728  0.00  0.00    +0.000 C 
ATOM     19  O   UNL     1      50.312   6.898  17.656  0.00  0.00    +0.000 OA
ENDBRANCH   5  15
ENDBRANCH   4   7
ENDBRANCH   1   4
BRANCH   1  20
ATOM     20  C   UNL     1      43.734   4.816  10.843  0.00  0.00    +0.000 C 
BRANCH  20  21
ATOM     21  N   UNL     1      44.520   3.609  10.628  0.00  0.00    +0.000 N 
ATOM     22  C   UNL     1      45.214   3.367   9.465  0.00  0.00    +0.000 A 
ATOM     23  C   UNL     1      45.812   4.344   8.668  0.00  0.00    +0.000 A 
ATOM     24  N   UNL     1      46.542   4.077   7.556  0.00  0.00    +0.000 NA
ATOM     25  C   UNL     1      46.678   2.750   7.277  0.00  0.00    +0.000 A 
ATOM     26  C   UNL     1      46.104   1.765   8.060  0.00  0.00    +0.000 A 
ATOM     27  N   UNL     1      45.358   2.058   9.161  0.00  0.00    +0.000 NA
ATOM     28  H   UNL     1      44.096   2.728  10.907  0.00  0.00    +0.000 HD
BRANCH  25  29
ATOM     29  C   UNL     1      47.481   2.383   6.083  0.00  0.00    +0.000 C 
ATOM     30  N   UNL     1      47.243   3.127   4.959  0.00  0.00    +0.000 N 
ATOM     31  O   UNL     1      48.301   1.472   6.097  0.00  0.00    +0.000 OA
ATOM     32  H   UNL     1      46.559   3.876   4.986  0.00  0.00    +0.000 HD
ATOM     33  H   UNL     1      47.755   2.933   4.112  0.00  0.00    +0.000 HD
ENDBRANCH  25  29
ENDBRANCH  20  21
ENDBRANCH   1  20
TORSDOF 6
ENDMDL
MODEL 7
REMARK VINA RESULT:    -7.552      3.135      4.423
REMARK INTER + INTRA:         -10.827
REMARK INTER:                 -10.784
REMARK INTRA:                  -0.043
REMARK UNBOUND:                -0.627
REMARK  Name = 
REMARK  10 active torsions:
REMARK  status: ('A' for Active; 'I' for Inactive)
REMARK    1  A    between atoms: C_1  and  C_2
REMARK    2  A    between atoms: N_4  and  C_5
REMARK    3  A    between atoms: C_7  and  C_8
REMARK    4  A    between atoms: C_8  and  C_9
REMARK    5  A    between atoms: C_9  and  C_10
REMARK    6  A    between atoms: C_9  and  C_11
REMARK    7  A    between atoms: C_9  and  C_12
REMARK    8  A    between atoms: C_12  and  N_13
REMARK    9  A    between atoms: C_17  and  C_18
REMARK   10  A    between atoms: C_28  and  C_29
REMARK                            x       y       z     vdW  Elec       q    Type
REMARK                         _______ _______ _______ _____ _____    ______ ____
ROOT
ATOM      1  C   UNL     1      44.992   5.414  11.893  0.00  0.00    +0.000 C 
ATOM      2  C   UNL     1      46.096   5.832  10.901  0.00  0.00    +0.000 C 
ATOM      3  C   UNL     1      45.489   4.282  12.819  0.00  0.00    +0.000 C 
ENDROOT
BRANCH   1   4
ATOM      4  C   UNL     1      44.537   6.643  12.746  0.00  0.00    +0.000 C 
BRANCH   4   7
ATOM      5  C   UNL     1      47.373   9.260  12.847  0.00  0.00    +0.000 A 
ATOM      6  C   UNL     1      46.619   8.083  13.024  0.00  0.00    +0.000 A 
ATOM      7  C   UNL     1      45.305   7.938  12.538  0.00  0.00    +0.000 A 
ATOM      8  C   UNL     1      44.724   9.016  11.860  0.00  0.00    +0.000 A 
ATOM      9  C   UNL     1      45.440  10.198  11.671  0.00  0.00    +0.000 A 
ATOM     10  C   UNL     1      46.742  10.310  12.165  0.00  0.00    +0.000 A 
ATOM     11  F   UNL     1      47.393  11.463  11.935  0.00  0.00    +0.000 F 
BRANCH   5  15
ATOM     12  C   UNL     1      49.443   7.231  15.425  0.00  0.00    +0.000 C 
ATOM     13  C   UNL     1      49.985   8.656  15.296  0.00  0.00    +0.000 C 
ATOM     14  C   UNL     1      48.898   9.634  14.789  0.00  0.00    +0.000 C 
ATOM     15  N   UNL     1      48.644   9.350  13.372  0.00  0.00    +0.000 N 
ATOM     16  C   UNL     1      49.843   9.440  12.531  0.00  0.00    +0.000 C 
ATOM     17  C   UNL     1      50.907   8.466  13.076  0.00  0.00    +0.000 C 
ATOM     18  C   UNL     1      52.218   8.624  12.318  0.00  0.00    +0.000 C 
ATOM     19  O   UNL     1      51.174   8.697  14.475  0.00  0.00    +0.000 OA
ENDBRANCH   5  15
ENDBRANCH   4   7
ENDBRANCH   1   4
BRANCH   1  20
ATOM     20  C   UNL     1      43.766   4.891  11.074  0.00  0.00    +0.000 C 
BRANCH  20  21
ATOM     21  N   UNL     1      44.053   4.897   9.647  0.00  0.00    +0.000 N 
ATOM     22  C   UNL     1      44.877   3.973   9.047  0.00  0.00    +0.000 A 
ATOM     23  C   UNL     1      45.018   2.644   9.446  0.00  0.00    +0.000 A 
ATOM     24  N   UNL     1      45.793   1.734   8.803  0.00  0.00    +0.000 NA
ATOM     25  C   UNL     1      46.420   2.214   7.692  0.00  0.00    +0.000 A 
ATOM     26  C   UNL     1      46.284   3.524   7.272  0.00  0.00    +0.000 A 
ATOM     27  N   UNL     1      45.516   4.425   7.945  0.00  0.00    +0.000 NA
ATOM     28  H   UNL     1      44.262   5.797   9.223  0.00  0.00    +0.000 HD
BRANCH  25  29
ATOM     29  C   UNL     1      47.271   1.267   6.927  0.00  0.00    +0.000 C 
ATOM     30  N   UNL     1      48.333   1.826   6.269  0.00  0.00    +0.000 N 
ATOM     31  O   UNL     1      47.040   0.064   6.882  0.00  0.00    +0.000 OA
ATOM     32  H   UNL     1      48.496   2.825   6.331  0.00  0.00    +0.000 HD
ATOM     33  H   UNL     1      48.953   1.241   5.730  0.00  0.00    +0.000 HD
ENDBRANCH  25  29
ENDBRANCH  20  21
ENDBRANCH   1  20
TORSDOF 6
ENDMDL
MODEL 8
REMARK VINA RESULT:    -7.385      2.748      4.308
REMARK INTER + INTRA:         -10.603
REMARK INTER:                  -9.604
REMARK INTRA:                  -0.999
REMARK UNBOUND:                -0.627
REMARK  Name = 
REMARK  10 active torsions:
REMARK  status: ('A' for Active; 'I' for Inactive)
REMARK    1  A    between atoms: C_1  and  C_2
REMARK    2  A    between atoms: N_4  and  C_5
REMARK    3  A    between atoms: C_7  and  C_8
REMARK    4  A    between atoms: C_8  and  C_9
REMARK    5  A    between atoms: C_9  and  C_10
REMARK    6  A    between atoms: C_9  and  C_11
REMARK    7  A    between atoms: C_9  and  C_12
REMARK    8  A    between atoms: C_12  and  N_13
REMARK    9  A    between atoms: C_17  and  C_18
REMARK   10  A    between atoms: C_28  and  C_29
REMARK                            x       y       z     vdW  Elec       q    Type
REMARK                         _______ _______ _______ _____ _____    ______ ____
ROOT
ATOM      1  C   UNL     1      48.089   8.938  12.567  0.00  0.00    +0.000 C 
ATOM      2  C   UNL     1      48.364  10.140  11.641  0.00  0.00    +0.000 C 
ATOM      3  C   UNL     1      48.925   7.714  12.137  0.00  0.00    +0.000 C 
ENDROOT
BRANCH   1   4
ATOM      4  C   UNL     1      48.411   9.314  14.050  0.00  0.00    +0.000 C 
BRANCH   4   7
ATOM      5  C   UNL     1      49.476   6.416  16.367  0.00  0.00    +0.000 A 
ATOM      6  C   UNL     1      48.708   7.346  15.638  0.00  0.00    +0.000 A 
ATOM      7  C   UNL     1      49.285   8.341  14.825  0.00  0.00    +0.000 A 
ATOM      8  C   UNL     1      50.680   8.412  14.749  0.00  0.00    +0.000 A 
ATOM      9  C   UNL     1      51.471   7.511  15.461  0.00  0.00    +0.000 A 
ATOM     10  C   UNL     1      50.870   6.534  16.259  0.00  0.00    +0.000 A 
ATOM     11  F   UNL     1      51.680   5.679  16.904  0.00  0.00    +0.000 F 
BRANCH   5  15
ATOM     12  C   UNL     1      49.925   2.624  17.050  0.00  0.00    +0.000 C 
ATOM     13  C   UNL     1      48.507   3.075  17.406  0.00  0.00    +0.000 C 
ATOM     14  C   UNL     1      48.101   4.347  16.624  0.00  0.00    +0.000 C 
ATOM     15  N   UNL     1      48.853   5.484  17.168  0.00  0.00    +0.000 N 
ATOM     16  C   UNL     1      48.654   5.685  18.607  0.00  0.00    +0.000 C 
ATOM     17  C   UNL     1      49.052   4.393  19.350  0.00  0.00    +0.000 C 
ATOM     18  C   UNL     1      48.732   4.506  20.834  0.00  0.00    +0.000 C 
ATOM     19  O   UNL     1      48.349   3.243  18.833  0.00  0.00    +0.000 OA
ENDBRANCH   5  15
ENDBRANCH   4   7
ENDBRANCH   1   4
BRANCH   1  20
ATOM     20  C   UNL     1      46.571   8.574  12.461  0.00  0.00    +0.000 C 
BRANCH  20  21
ATOM     21  N   UNL     1      46.284   7.330  13.161  0.00  0.00    +0.000 N 
ATOM     22  C   UNL     1      45.673   6.257  12.556  0.00  0.00    +0.000 A 
ATOM     23  C   UNL     1      45.817   5.901  11.216  0.00  0.00    +0.000 A 
ATOM     24  N   UNL     1      45.251   4.802  10.654  0.00  0.00    +0.000 NA
ATOM     25  C   UNL     1      44.532   4.035  11.521  0.00  0.00    +0.000 A 
ATOM     26  C   UNL     1      44.386   4.363  12.856  0.00  0.00    +0.000 A 
ATOM     27  N   UNL     1      44.948   5.481  13.393  0.00  0.00    +0.000 NA
ATOM     28  H   UNL     1      45.888   7.408  14.094  0.00  0.00    +0.000 HD
BRANCH  25  29
ATOM     29  C   UNL     1      43.898   2.805  10.979  0.00  0.00    +0.000 C 
ATOM     30  N   UNL     1      44.488   2.280   9.861  0.00  0.00    +0.000 N 
ATOM     31  O   UNL     1      42.911   2.293  11.493  0.00  0.00    +0.000 OA
ATOM     32  H   UNL     1      45.308   2.729   9.465  0.00  0.00    +0.000 HD
ATOM     33  H   UNL     1      44.111   1.445   9.440  0.00  0.00    +0.000 HD
ENDBRANCH  25  29
ENDBRANCH  20  21
ENDBRANCH   1  20
TORSDOF 6
ENDMDL
MODEL 9
REMARK VINA RESULT:    -7.372      3.044      8.096
REMARK INTER + INTRA:         -10.585
REMARK INTER:                  -9.295
REMARK INTRA:                  -1.290
REMARK UNBOUND:                -0.627
REMARK  Name = 
REMARK  10 active torsions:
REMARK  status: ('A' for Active; 'I' for Inactive)
REMARK    1  A    between atoms: C_1  and  C_2
REMARK    2  A    between atoms: N_4  and  C_5
REMARK    3  A    between atoms: C_7  and  C_8
REMARK    4  A    between atoms: C_8  and  C_9
REMARK    5  A    between atoms: C_9  and  C_10
REMARK    6  A    between atoms: C_9  and  C_11
REMARK    7  A    between atoms: C_9  and  C_12
REMARK    8  A    between atoms: C_12  and  N_13
REMARK    9  A    between atoms: C_17  and  C_18
REMARK   10  A    between atoms: C_28  and  C_29
REMARK                            x       y       z     vdW  Elec       q    Type
REMARK                         _______ _______ _______ _____ _____    ______ ____
ROOT
ATOM      1  C   UNL     1      49.262   9.964  13.998  0.00  0.00    +0.000 C 
ATOM      2  C   UNL     1      50.691   9.565  14.419  0.00  0.00    +0.000 C 
ATOM      3  C   UNL     1      49.062  11.490  14.121  0.00  0.00    +0.000 C 
ENDROOT
BRANCH   1   4
ATOM      4  C   UNL     1      48.982   9.503  12.530  0.00  0.00    +0.000 C 
BRANCH   4   7
ATOM      5  C   UNL     1      45.899   7.327  11.720  0.00  0.00    +0.000 A 
ATOM      6  C   UNL     1      47.211   7.748  12.015  0.00  0.00    +0.000 A 
ATOM      7  C   UNL     1      47.553   9.101  12.202  0.00  0.00    +0.000 A 
ATOM      8  C   UNL     1      46.547  10.066  12.079  0.00  0.00    +0.000 A 
ATOM      9  C   UNL     1      45.238   9.684  11.783  0.00  0.00    +0.000 A 
ATOM     10  C   UNL     1      44.930   8.334  11.603  0.00  0.00    +0.000 A 
ATOM     11  F   UNL     1      43.649   8.022  11.342  0.00  0.00    +0.000 F 
BRANCH   5  15
ATOM     12  C   UNL     1      43.004   4.919  12.654  0.00  0.00    +0.000 C 
ATOM     13  C   UNL     1      44.296   4.140  12.399  0.00  0.00    +0.000 C 
ATOM     14  C   UNL     1      45.547   5.024  12.622  0.00  0.00    +0.000 C 
ATOM     15  N   UNL     1      45.632   5.989  11.520  0.00  0.00    +0.000 N 
ATOM     16  C   UNL     1      45.680   5.364  10.194  0.00  0.00    +0.000 C 
ATOM     17  C   UNL     1      44.429   4.480  10.016  0.00  0.00    +0.000 C 
ATOM     18  C   UNL     1      44.502   3.702   8.709  0.00  0.00    +0.000 C 
ATOM     19  O   UNL     1      44.293   3.526  11.091  0.00  0.00    +0.000 OA
ENDBRANCH   5  15
ENDBRANCH   4   7
ENDBRANCH   1   4
BRANCH   1  20
ATOM     20  C   UNL     1      48.249   9.246  14.950  0.00  0.00    +0.000 C 
BRANCH  20  21
ATOM     21  N   UNL     1      48.947   8.422  15.927  0.00  0.00    +0.000 N 
ATOM     22  C   UNL     1      48.666   7.089  16.117  0.00  0.00    +0.000 A 
ATOM     23  C   UNL     1      48.249   6.206  15.121  0.00  0.00    +0.000 A 
ATOM     24  N   UNL     1      48.035   4.881  15.320  0.00  0.00    +0.000 NA
ATOM     25  C   UNL     1      48.287   4.454  16.589  0.00  0.00    +0.000 A 
ATOM     26  C   UNL     1      48.713   5.310  17.588  0.00  0.00    +0.000 A 
ATOM     27  N   UNL     1      48.903   6.641  17.370  0.00  0.00    +0.000 NA
ATOM     28  H   UNL     1      49.095   8.826  16.848  0.00  0.00    +0.000 HD
BRANCH  25  29
ATOM     29  C   UNL     1      48.091   3.009  16.875  0.00  0.00    +0.000 C 
ATOM     30  N   UNL     1      47.033   2.706  17.688  0.00  0.00    +0.000 N 
ATOM     31  O   UNL     1      48.828   2.143  16.417  0.00  0.00    +0.000 OA
ATOM     32  H   UNL     1      46.442   3.450  18.045  0.00  0.00    +0.000 HD
ATOM     33  H   UNL     1      46.840   1.744  17.922  0.00  0.00    +0.000 HD
ENDBRANCH  25  29
ENDBRANCH  20  21
ENDBRANCH   1  20
TORSDOF 6
ENDMDL
