MODEL 1
REMARK VINA RESULT:    -9.072      0.000      0.000
REMARK INTER + INTRA:         -12.453
REMARK INTER:                 -11.724
REMARK INTRA:                  -0.729
REMARK UNBOUND:                -0.729
REMARK  Name = 
REMARK  5 active torsions:
REMARK  status: ('A' for Active; 'I' for Inactive)
REMARK    1  A    between atoms: C_2  and  C_4
REMARK    2  A    between atoms: C_7  and  C_8
REMARK    3  A    between atoms: C_8  and  C_9
REMARK    4  A    between atoms: C_9  and  C_10
REMARK    5  A    between atoms: C_14  and  C_15
REMARK                            x       y       z     vdW  Elec       q    Type
REMARK                         _______ _______ _______ _____ _____    ______ ____
ROOT
ATOM      1  C   UNL     1      44.016   4.621  11.704  0.00  0.00    +0.000 C 
ATOM      2  C   UNL     1      43.388   3.368  12.311  0.00  0.00    +0.000 C 
ATOM      3  C   UNL     1      42.817   4.708  12.649  0.00  0.00    +0.000 C 
ENDROOT
BRANCH   1   4
ATOM      4  C   UNL     1      45.387   5.023  12.235  0.00  0.00    +0.000 A 
ATOM      5  N   UNL     1      46.025   4.184  13.070  0.00  0.00    +0.000 NA
ATOM      6  C   UNL     1      47.191   4.603  13.584  0.00  0.00    +0.000 A 
ATOM      7  C   UNL     1      47.742   5.832  13.319  0.00  0.00    +0.000 A 
ATOM      8  C   UNL     1      47.037   6.646  12.455  0.00  0.00    +0.000 A 
ATOM      9  N   UNL     1      45.872   6.242  11.904  0.00  0.00    +0.000 NA
BRANCH   8  10
ATOM     10  C   UNL     1      47.470   8.016  12.106  0.00  0.00    +0.000 A 
ATOM     11  C   UNL     1      48.793   8.304  11.715  0.00  0.00    +0.000 A 
ATOM     12  C   UNL     1      49.204   9.610  11.425  0.00  0.00    +0.000 A 
ATOM     13  C   UNL     1      48.294  10.659  11.511  0.00  0.00    +0.000 A 
ATOM     14  C   UNL     1      46.982  10.392  11.877  0.00  0.00    +0.000 A 
ATOM     15  F   UNL     1      46.103  11.398  11.956  0.00  0.00    +0.000 F 
ATOM     16  C   UNL     1      46.569   9.094  12.169  0.00  0.00    +0.000 A 
ENDBRANCH   8  10
ENDBRANCH   1   4
BRANCH   1  17
ATOM     17  C   UNL     1      43.819   4.773  10.206  0.00  0.00    +0.000 C 
BRANCH  17  21
ATOM     18  C   UNL     1      46.424   2.452   7.739  0.00  0.00    +0.000 A 
ATOM     19  C   UNL     1      45.633   1.785   8.676  0.00  0.00    +0.000 A 
ATOM     20  C   UNL     1      44.762   2.516   9.485  0.00  0.00    +0.000 A 
ATOM     21  C   UNL     1      44.682   3.898   9.327  0.00  0.00    +0.000 A 
ATOM     22  N   UNL     1      45.471   4.560   8.438  0.00  0.00    +0.000 NA
ATOM     23  C   UNL     1      46.322   3.833   7.673  0.00  0.00    +0.000 A 
BRANCH  18  25
ATOM     24  N   UNL     1      48.481   2.455   6.448  0.00  0.00    +0.000 N 
ATOM     25  C   UNL     1      47.378   1.754   6.851  0.00  0.00    +0.000 C 
ATOM     26  O   UNL     1      47.209   0.590   6.514  0.00  0.00    +0.000 OA
ATOM     27  H   UNL     1      49.171   1.945   5.911  0.00  0.00    +0.000 HD
ATOM     28  H   UNL     1      48.774   3.313   6.895  0.00  0.00    +0.000 HD
ENDBRANCH  18  25
ENDBRANCH  17  21
ENDBRANCH   1  17
TORSDOF 5
ENDMDL
MODEL 2
REMARK VINA RESULT:    -9.056      0.928      1.322
REMARK INTER + INTRA:         -12.433
REMARK INTER:                 -11.722
REMARK INTRA:                  -0.711
REMARK UNBOUND:                -0.729
REMARK  Name = 
REMARK  5 active torsions:
REMARK  status: ('A' for Active; 'I' for Inactive)
REMARK    1  A    between atoms: C_2  and  C_4
REMARK    2  A    between atoms: C_7  and  C_8
REMARK    3  A    between atoms: C_8  and  C_9
REMARK    4  A    between atoms: C_9  and  C_10
REMARK    5  A    between atoms: C_14  and  C_15
REMARK                            x       y       z     vdW  Elec       q    Type
REMARK                         _______ _______ _______ _____ _____    ______ ____
ROOT
ATOM      1  C   UNL     1      44.006   4.697  11.690  0.00  0.00    +0.000 C 
ATOM      2  C   UNL     1      43.365   3.449  12.293  0.00  0.00    +0.000 C 
ATOM      3  C   UNL     1      42.798   4.794  12.620  0.00  0.00    +0.000 C 
ENDROOT
BRANCH   1   4
ATOM      4  C   UNL     1      45.374   5.094  12.235  0.00  0.00    +0.000 A 
ATOM      5  N   UNL     1      46.005   4.247  13.067  0.00  0.00    +0.000 NA
ATOM      6  C   UNL     1      47.167   4.660  13.594  0.00  0.00    +0.000 A 
ATOM      7  C   UNL     1      47.720   5.893  13.345  0.00  0.00    +0.000 A 
ATOM      8  C   UNL     1      47.022   6.714  12.484  0.00  0.00    +0.000 A 
ATOM      9  N   UNL     1      45.861   6.316  11.920  0.00  0.00    +0.000 NA
BRANCH   8  10
ATOM     10  C   UNL     1      47.458   8.088  12.151  0.00  0.00    +0.000 A 
ATOM     11  C   UNL     1      46.578   9.186  12.214  0.00  0.00    +0.000 A 
ATOM     12  C   UNL     1      46.990  10.476  11.860  0.00  0.00    +0.000 A 
ATOM     13  C   UNL     1      48.299  10.698  11.442  0.00  0.00    +0.000 A 
ATOM     14  C   UNL     1      49.185   9.630  11.391  0.00  0.00    +0.000 A 
ATOM     15  F   UNL     1      50.446   9.840  10.996  0.00  0.00    +0.000 F 
ATOM     16  C   UNL     1      48.780   8.344  11.742  0.00  0.00    +0.000 A 
ENDBRANCH   8  10
ENDBRANCH   1   4
BRANCH   1  17
ATOM     17  C   UNL     1      43.828   4.846  10.188  0.00  0.00    +0.000 C 
BRANCH  17  21
ATOM     18  C   UNL     1      46.465   2.521   7.761  0.00  0.00    +0.000 A 
ATOM     19  C   UNL     1      45.654   1.854   8.681  0.00  0.00    +0.000 A 
ATOM     20  C   UNL     1      44.773   2.587   9.477  0.00  0.00    +0.000 A 
ATOM     21  C   UNL     1      44.702   3.970   9.322  0.00  0.00    +0.000 A 
ATOM     22  N   UNL     1      45.509   4.630   8.449  0.00  0.00    +0.000 NA
ATOM     23  C   UNL     1      46.370   3.902   7.697  0.00  0.00    +0.000 A 
BRANCH  18  25
ATOM     24  N   UNL     1      48.514   2.536   6.458  0.00  0.00    +0.000 N 
ATOM     25  C   UNL     1      47.431   1.821   6.887  0.00  0.00    +0.000 C 
ATOM     26  O   UNL     1      47.289   0.644   6.584  0.00  0.00    +0.000 OA
ATOM     27  H   UNL     1      49.215   2.028   5.931  0.00  0.00    +0.000 HD
ATOM     28  H   UNL     1      48.789   3.413   6.879  0.00  0.00    +0.000 HD
ENDBRANCH  18  25
ENDBRANCH  17  21
ENDBRANCH   1  17
TORSDOF 5
ENDMDL
MODEL 3
REMARK VINA RESULT:    -9.020      2.609      3.976
REMARK INTER + INTRA:         -12.386
REMARK INTER:                 -12.139
REMARK INTRA:                  -0.248
REMARK UNBOUND:                -0.729
REMARK  Name = 
REMARK  5 active torsions:
REMARK  status: ('A' for Active; 'I' for Inactive)
REMARK    1  A    between atoms: C_2  and  C_4
REMARK    2  A    between atoms: C_7  and  C_8
REMARK    3  A    between atoms: C_8  and  C_9
REMARK    4  A    between atoms: C_9  and  C_10
REMARK    5  A    between atoms: C_14  and  C_15
REMARK                            x       y       z     vdW  Elec       q    Type
REMARK                         _______ _______ _______ _____ _____    ______ ____
ROOT
ATOM      1  C   UNL     1      44.158   4.757  11.730  0.00  0.00    +0.000 C 
ATOM      2  C   UNL     1      43.807   3.423  12.384  0.00  0.00    +0.000 C 
ATOM      3  C   UNL     1      42.998   4.635  12.717  0.00  0.00    +0.000 C 
ENDROOT
BRANCH   1   4
ATOM      4  C   UNL     1      45.442   5.432  12.201  0.00  0.00    +0.000 A 
ATOM      5  N   UNL     1      46.094   6.239  11.347  0.00  0.00    +0.000 NA
ATOM      6  C   UNL     1      47.262   6.752  11.761  0.00  0.00    +0.000 A 
ATOM      7  C   UNL     1      47.821   6.478  12.986  0.00  0.00    +0.000 A 
ATOM      8  C   UNL     1      47.102   5.642  13.814  0.00  0.00    +0.000 A 
ATOM      9  N   UNL     1      45.912   5.130  13.432  0.00  0.00    +0.000 NA
BRANCH   8  10
ATOM     10  C   UNL     1      47.588   5.213  15.143  0.00  0.00    +0.000 A 
ATOM     11  C   UNL     1      48.589   5.922  15.837  0.00  0.00    +0.000 A 
ATOM     12  C   UNL     1      49.070   5.486  17.077  0.00  0.00    +0.000 A 
ATOM     13  C   UNL     1      48.554   4.331  17.655  0.00  0.00    +0.000 A 
ATOM     14  C   UNL     1      47.555   3.628  16.994  0.00  0.00    +0.000 A 
ATOM     15  F   UNL     1      47.052   2.520  17.551  0.00  0.00    +0.000 F 
ATOM     16  C   UNL     1      47.073   4.058  15.760  0.00  0.00    +0.000 A 
ENDBRANCH   8  10
ENDBRANCH   1   4
BRANCH   1  17
ATOM     17  C   UNL     1      43.885   4.830  10.237  0.00  0.00    +0.000 C 
BRANCH  17  21
ATOM     18  C   UNL     1      46.472   2.493   7.766  0.00  0.00    +0.000 A 
ATOM     19  C   UNL     1      45.700   1.834   8.725  0.00  0.00    +0.000 A 
ATOM     20  C   UNL     1      44.836   2.570   9.536  0.00  0.00    +0.000 A 
ATOM     21  C   UNL     1      44.742   3.949   9.358  0.00  0.00    +0.000 A 
ATOM     22  N   UNL     1      45.511   4.603   8.447  0.00  0.00    +0.000 NA
ATOM     23  C   UNL     1      46.357   3.871   7.681  0.00  0.00    +0.000 A 
BRANCH  18  25
ATOM     24  N   UNL     1      48.515   2.488   6.456  0.00  0.00    +0.000 N 
ATOM     25  C   UNL     1      47.417   1.789   6.874  0.00  0.00    +0.000 C 
ATOM     26  O   UNL     1      47.246   0.622   6.547  0.00  0.00    +0.000 OA
ATOM     27  H   UNL     1      49.201   1.975   5.915  0.00  0.00    +0.000 HD
ATOM     28  H   UNL     1      48.812   3.349   6.893  0.00  0.00    +0.000 HD
ENDBRANCH  18  25
ENDBRANCH  17  21
ENDBRANCH   1  17
TORSDOF 5
ENDMDL
MODEL 4
REMARK VINA RESULT:    -8.886      1.032      1.369
REMARK INTER + INTRA:         -12.213
REMARK INTER:                 -11.646
REMARK INTRA:                  -0.567
REMARK UNBOUND:                -0.729
REMARK  Name = 
REMARK  5 active torsions:
REMARK  status: ('A' for Active; 'I' for Inactive)
REMARK    1  A    between atoms: C_2  and  C_4
REMARK    2  A    between atoms: C_7  and  C_8
REMARK    3  A    between atoms: C_8  and  C_9
REMARK    4  A    between atoms: C_9  and  C_10
REMARK    5  A    between atoms: C_14  and  C_15
REMARK                            x       y       z     vdW  Elec       q    Type
REMARK                         _______ _______ _______ _____ _____    ______ ____
ROOT
ATOM      1  C   UNL     1      43.881   4.734  11.527  0.00  0.00    +0.000 C 
ATOM      2  C   UNL     1      42.639   5.129  12.324  0.00  0.00    +0.000 C 
ATOM      3  C   UNL     1      43.079   5.988  11.182  0.00  0.00    +0.000 C 
ENDROOT
BRANCH   1   4
ATOM      4  C   UNL     1      45.225   4.903  12.227  0.00  0.00    +0.000 A 
ATOM      5  N   UNL     1      45.554   4.039  13.203  0.00  0.00    +0.000 NA
ATOM      6  C   UNL     1      46.705   4.263  13.855  0.00  0.00    +0.000 A 
ATOM      7  C   UNL     1      47.534   5.325  13.590  0.00  0.00    +0.000 A 
ATOM      8  C   UNL     1      47.138   6.175  12.578  0.00  0.00    +0.000 A 
ATOM      9  N   UNL     1      45.996   5.961  11.888  0.00  0.00    +0.000 NA
BRANCH   8  10
ATOM     10  C   UNL     1      47.895   7.389  12.203  0.00  0.00    +0.000 A 
ATOM     11  C   UNL     1      49.271   7.348  11.901  0.00  0.00    +0.000 A 
ATOM     12  C   UNL     1      49.987   8.509  11.586  0.00  0.00    +0.000 A 
ATOM     13  C   UNL     1      49.338   9.739  11.558  0.00  0.00    +0.000 A 
ATOM     14  C   UNL     1      47.979   9.797  11.837  0.00  0.00    +0.000 A 
ATOM     15  F   UNL     1      47.351  10.978  11.806  0.00  0.00    +0.000 F 
ATOM     16  C   UNL     1      47.262   8.645  12.152  0.00  0.00    +0.000 A 
ENDBRANCH   8  10
ENDBRANCH   1   4
BRANCH   1  17
ATOM     17  C   UNL     1      43.729   3.476  10.687  0.00  0.00    +0.000 C 
BRANCH  17  21
ATOM     18  C   UNL     1      46.503   2.731   7.524  0.00  0.00    +0.000 A 
ATOM     19  C   UNL     1      46.065   4.042   7.724  0.00  0.00    +0.000 A 
ATOM     20  C   UNL     1      45.171   4.317   8.759  0.00  0.00    +0.000 A 
ATOM     21  C   UNL     1      44.747   3.280   9.588  0.00  0.00    +0.000 A 
ATOM     22  N   UNL     1      45.145   1.996   9.382  0.00  0.00    +0.000 NA
ATOM     23  C   UNL     1      46.002   1.748   8.361  0.00  0.00    +0.000 A 
BRANCH  18  25
ATOM     24  N   UNL     1      47.393   3.089   5.293  0.00  0.00    +0.000 N 
ATOM     25  C   UNL     1      47.442   2.354   6.446  0.00  0.00    +0.000 C 
ATOM     26  O   UNL     1      48.250   1.447   6.585  0.00  0.00    +0.000 OA
ATOM     27  H   UNL     1      48.095   2.881   4.593  0.00  0.00    +0.000 HD
ATOM     28  H   UNL     1      46.923   3.981   5.236  0.00  0.00    +0.000 HD
ENDBRANCH  18  25
ENDBRANCH  17  21
ENDBRANCH   1  17
TORSDOF 5
ENDMDL
MODEL 5
REMARK VINA RESULT:    -8.378      1.820      2.528
REMARK INTER + INTRA:         -11.556
REMARK INTER:                 -10.805
REMARK INTRA:                  -0.751
REMARK UNBOUND:                -0.729
REMARK  Name = 
REMARK  5 active torsions:
REMARK  status: ('A' for Active; 'I' for Inactive)
REMARK    1  A    between atoms: C_2  and  C_4
REMARK    2  A    between atoms: C_7  and  C_8
REMARK    3  A    between atoms: C_8  and  C_9
REMARK    4  A    between atoms: C_9  and  C_10
REMARK    5  A    between atoms: C_14  and  C_15
REMARK                            x       y       z     vdW  Elec       q    Type
REMARK                         _______ _______ _______ _____ _____    ______ ____
ROOT
ATOM      1  C   UNL     1      44.379   4.728  11.601  0.00  0.00    +0.000 C 
ATOM      2  C   UNL     1      45.247   3.648  12.244  0.00  0.00    +0.000 C 
ATOM      3  C   UNL     1      43.929   3.991  12.862  0.00  0.00    +0.000 C 
ENDROOT
BRANCH   1   4
ATOM      4  C   UNL     1      44.866   6.166  11.737  0.00  0.00    +0.000 A 
ATOM      5  N   UNL     1      44.030   7.163  11.399  0.00  0.00    +0.000 NA
ATOM      6  C   UNL     1      44.515   8.413  11.451  0.00  0.00    +0.000 A 
ATOM      7  C   UNL     1      45.807   8.713  11.806  0.00  0.00    +0.000 A 
ATOM      8  C   UNL     1      46.614   7.644  12.140  0.00  0.00    +0.000 A 
ATOM      9  N   UNL     1      46.146   6.377  12.119  0.00  0.00    +0.000 NA
BRANCH   8  10
ATOM     10  C   UNL     1      48.042   7.795  12.498  0.00  0.00    +0.000 A 
ATOM     11  C   UNL     1      48.463   7.972  13.831  0.00  0.00    +0.000 A 
ATOM     12  C   UNL     1      49.812   8.153  14.155  0.00  0.00    +0.000 A 
ATOM     13  C   UNL     1      50.774   8.152  13.150  0.00  0.00    +0.000 A 
ATOM     14  C   UNL     1      50.380   7.962  11.833  0.00  0.00    +0.000 A 
ATOM     15  F   UNL     1      51.303   7.954  10.864  0.00  0.00    +0.000 F 
ATOM     16  C   UNL     1      49.038   7.782  11.504  0.00  0.00    +0.000 A 
ENDBRANCH   8  10
ENDBRANCH   1   4
BRANCH   1  17
ATOM     17  C   UNL     1      43.792   4.357  10.250  0.00  0.00    +0.000 C 
BRANCH  17  21
ATOM     18  C   UNL     1      46.629   2.739   7.494  0.00  0.00    +0.000 A 
ATOM     19  C   UNL     1      45.912   1.853   8.301  0.00  0.00    +0.000 A 
ATOM     20  C   UNL     1      44.969   2.353   9.200  0.00  0.00    +0.000 A 
ATOM     21  C   UNL     1      44.743   3.726   9.259  0.00  0.00    +0.000 A 
ATOM     22  N   UNL     1      45.457   4.598   8.498  0.00  0.00    +0.000 NA
ATOM     23  C   UNL     1      46.381   4.094   7.643  0.00  0.00    +0.000 A 
BRANCH  18  25
ATOM     24  N   UNL     1      47.797   3.039   5.387  0.00  0.00    +0.000 N 
ATOM     25  C   UNL     1      47.651   2.293   6.523  0.00  0.00    +0.000 C 
ATOM     26  O   UNL     1      48.359   1.318   6.737  0.00  0.00    +0.000 OA
ATOM     27  H   UNL     1      48.555   2.779   4.767  0.00  0.00    +0.000 HD
ATOM     28  H   UNL     1      47.413   3.969   5.293  0.00  0.00    +0.000 HD
ENDBRANCH  18  25
ENDBRANCH  17  21
ENDBRANCH   1  17
TORSDOF 5
ENDMDL
MODEL 6
REMARK VINA RESULT:    -8.062      3.730      7.254
REMARK INTER + INTRA:         -11.147
REMARK INTER:                 -10.955
REMARK INTRA:                  -0.193
REMARK UNBOUND:                -0.729
REMARK  Name = 
REMARK  5 active torsions:
REMARK  status: ('A' for Active; 'I' for Inactive)
REMARK    1  A    between atoms: C_2  and  C_4
REMARK    2  A    between atoms: C_7  and  C_8
REMARK    3  A    between atoms: C_8  and  C_9
REMARK    4  A    between atoms: C_9  and  C_10
REMARK    5  A    between atoms: C_14  and  C_15
REMARK                            x       y       z     vdW  Elec       q    Type
REMARK                         _______ _______ _______ _____ _____    ______ ____
ROOT
ATOM      1  C   UNL     1      46.160   7.311  12.112  0.00  0.00    +0.000 C 
ATOM      2  C   UNL     1      46.186   8.742  11.579  0.00  0.00    +0.000 C 
ATOM      3  C   UNL     1      45.536   8.465  12.897  0.00  0.00    +0.000 C 
ENDROOT
BRANCH   1   4
ATOM      4  C   UNL     1      45.231   6.334  11.400  0.00  0.00    +0.000 A 
ATOM      5  N   UNL     1      43.959   6.231  11.823  0.00  0.00    +0.000 NA
ATOM      6  C   UNL     1      43.190   5.305  11.232  0.00  0.00    +0.000 A 
ATOM      7  C   UNL     1      43.640   4.459  10.248  0.00  0.00    +0.000 A 
ATOM      8  C   UNL     1      44.955   4.615   9.860  0.00  0.00    +0.000 A 
ATOM      9  N   UNL     1      45.746   5.555  10.422  0.00  0.00    +0.000 NA
BRANCH   8  10
ATOM     10  C   UNL     1      45.604   3.751   8.850  0.00  0.00    +0.000 A 
ATOM     11  C   UNL     1      46.263   4.285   7.724  0.00  0.00    +0.000 A 
ATOM     12  C   UNL     1      46.840   3.459   6.753  0.00  0.00    +0.000 A 
ATOM     13  C   UNL     1      46.778   2.076   6.891  0.00  0.00    +0.000 A 
ATOM     14  C   UNL     1      46.148   1.532   8.003  0.00  0.00    +0.000 A 
ATOM     15  F   UNL     1      46.091   0.203   8.142  0.00  0.00    +0.000 F 
ATOM     16  C   UNL     1      45.571   2.350   8.972  0.00  0.00    +0.000 A 
ENDBRANCH   8  10
ENDBRANCH   1   4
BRANCH   1  17
ATOM     17  C   UNL     1      47.514   6.755  12.519  0.00  0.00    +0.000 C 
BRANCH  17  21
ATOM     18  C   UNL     1      47.520   4.237  15.972  0.00  0.00    +0.000 A 
ATOM     19  C   UNL     1      46.751   3.849  14.872  0.00  0.00    +0.000 A 
ATOM     20  C   UNL     1      46.742   4.645  13.726  0.00  0.00    +0.000 A 
ATOM     21  C   UNL     1      47.519   5.801  13.692  0.00  0.00    +0.000 A 
ATOM     22  N   UNL     1      48.247   6.202  14.768  0.00  0.00    +0.000 NA
ATOM     23  C   UNL     1      48.229   5.424  15.878  0.00  0.00    +0.000 A 
BRANCH  18  25
ATOM     24  N   UNL     1      48.715   3.570  17.977  0.00  0.00    +0.000 N 
ATOM     25  C   UNL     1      47.578   3.456  17.226  0.00  0.00    +0.000 C 
ATOM     26  O   UNL     1      46.640   2.763  17.596  0.00  0.00    +0.000 OA
ATOM     27  H   UNL     1      48.714   3.101  18.875  0.00  0.00    +0.000 HD
ATOM     28  H   UNL     1      49.391   4.306  17.834  0.00  0.00    +0.000 HD
ENDBRANCH  18  25
ENDBRANCH  17  21
ENDBRANCH   1  17
TORSDOF 5
ENDMDL
MODEL 7
REMARK VINA RESULT:    -7.735      3.574      7.302
REMARK INTER + INTRA:         -10.725
REMARK INTER:                 -10.471
REMARK INTRA:                  -0.254
REMARK UNBOUND:                -0.729
REMARK  Name = 
REMARK  5 active torsions:
REMARK  status: ('A' for Active; 'I' for Inactive)
REMARK    1  A    between atoms: C_2  and  C_4
REMARK    2  A    between atoms: C_7  and  C_8
REMARK    3  A    between atoms: C_8  and  C_9
REMARK    4  A    between atoms: C_9  and  C_10
REMARK    5  A    between atoms: C_14  and  C_15
REMARK                            x       y       z     vdW  Elec       q    Type
REMARK                         _______ _______ _______ _____ _____    ______ ____
ROOT
ATOM      1  C   UNL     1      46.189   7.296  12.309  0.00  0.00    +0.000 C 
ATOM      2  C   UNL     1      46.239   8.721  11.762  0.00  0.00    +0.000 C 
ATOM      3  C   UNL     1      45.663   8.480  13.121  0.00  0.00    +0.000 C 
ENDROOT
BRANCH   1   4
ATOM      4  C   UNL     1      45.178   6.353  11.665  0.00  0.00    +0.000 A 
ATOM      5  N   UNL     1      43.925   6.324  12.152  0.00  0.00    +0.000 NA
ATOM      6  C   UNL     1      43.084   5.426  11.619  0.00  0.00    +0.000 A 
ATOM      7  C   UNL     1      43.442   4.538  10.635  0.00  0.00    +0.000 A 
ATOM      8  C   UNL     1      44.742   4.619  10.180  0.00  0.00    +0.000 A 
ATOM      9  N   UNL     1      45.605   5.529  10.682  0.00  0.00    +0.000 NA
BRANCH   8  10
ATOM     10  C   UNL     1      45.296   3.704   9.159  0.00  0.00    +0.000 A 
ATOM     11  C   UNL     1      45.347   2.309   9.355  0.00  0.00    +0.000 A 
ATOM     12  C   UNL     1      45.909   1.455   8.399  0.00  0.00    +0.000 A 
ATOM     13  C   UNL     1      46.426   1.978   7.219  0.00  0.00    +0.000 A 
ATOM     14  C   UNL     1      46.369   3.348   7.000  0.00  0.00    +0.000 A 
ATOM     15  F   UNL     1      46.860   3.854   5.863  0.00  0.00    +0.000 F 
ATOM     16  C   UNL     1      45.812   4.203   7.949  0.00  0.00    +0.000 A 
ENDBRANCH   8  10
ENDBRANCH   1   4
BRANCH   1  17
ATOM     17  C   UNL     1      47.542   6.688  12.636  0.00  0.00    +0.000 C 
BRANCH  17  21
ATOM     18  C   UNL     1      47.860   4.433  16.251  0.00  0.00    +0.000 A 
ATOM     19  C   UNL     1      48.492   5.676  16.190  0.00  0.00    +0.000 A 
ATOM     20  C   UNL     1      48.393   6.441  15.027  0.00  0.00    +0.000 A 
ATOM     21  C   UNL     1      47.645   5.959  13.955  0.00  0.00    +0.000 A 
ATOM     22  N   UNL     1      47.050   4.736  13.995  0.00  0.00    +0.000 NA
ATOM     23  C   UNL     1      47.172   4.002  15.128  0.00  0.00    +0.000 A 
BRANCH  18  25
ATOM     24  N   UNL     1      46.838   2.763  17.687  0.00  0.00    +0.000 N 
ATOM     25  C   UNL     1      47.923   3.558  17.441  0.00  0.00    +0.000 C 
ATOM     26  O   UNL     1      48.913   3.519  18.159  0.00  0.00    +0.000 OA
ATOM     27  H   UNL     1      46.921   2.106  18.453  0.00  0.00    +0.000 HD
ATOM     28  H   UNL     1      46.122   2.589  16.996  0.00  0.00    +0.000 HD
ENDBRANCH  18  25
ENDBRANCH  17  21
ENDBRANCH   1  17
TORSDOF 5
ENDMDL
MODEL 8
REMARK VINA RESULT:    -7.140      3.922      7.223
REMARK INTER + INTRA:          -9.956
REMARK INTER:                  -9.160
REMARK INTRA:                  -0.796
REMARK UNBOUND:                -0.729
REMARK  Name = 
REMARK  5 active torsions:
REMARK  status: ('A' for Active; 'I' for Inactive)
REMARK    1  A    between atoms: C_2  and  C_4
REMARK    2  A    between atoms: C_7  and  C_8
REMARK    3  A    between atoms: C_8  and  C_9
REMARK    4  A    between atoms: C_9  and  C_10
REMARK    5  A    between atoms: C_14  and  C_15
REMARK                            x       y       z     vdW  Elec       q    Type
REMARK                         _______ _______ _______ _____ _____    ______ ____
ROOT
ATOM      1  C   UNL     1      44.547   6.516  11.762  0.00  0.00    +0.000 C 
ATOM      2  C   UNL     1      45.007   7.516  10.703  0.00  0.00    +0.000 C 
ATOM      3  C   UNL     1      43.623   7.625  11.259  0.00  0.00    +0.000 C 
ENDROOT
BRANCH   1   4
ATOM      4  C   UNL     1      44.291   5.089  11.290  0.00  0.00    +0.000 A 
ATOM      5  N   UNL     1      43.486   4.303  12.026  0.00  0.00    +0.000 NA
ATOM      6  C   UNL     1      43.346   3.030  11.629  0.00  0.00    +0.000 A 
ATOM      7  C   UNL     1      43.991   2.497  10.540  0.00  0.00    +0.000 A 
ATOM      8  C   UNL     1      44.802   3.356   9.828  0.00  0.00    +0.000 A 
ATOM      9  N   UNL     1      44.944   4.650  10.190  0.00  0.00    +0.000 NA
BRANCH   8  10
ATOM     10  C   UNL     1      45.602   2.926   8.660  0.00  0.00    +0.000 A 
ATOM     11  C   UNL     1      46.028   3.835   7.671  0.00  0.00    +0.000 A 
ATOM     12  C   UNL     1      46.751   3.412   6.550  0.00  0.00    +0.000 A 
ATOM     13  C   UNL     1      47.071   2.067   6.396  0.00  0.00    +0.000 A 
ATOM     14  C   UNL     1      46.674   1.159   7.369  0.00  0.00    +0.000 A 
ATOM     15  F   UNL     1      46.984  -0.135   7.228  0.00  0.00    +0.000 F 
ATOM     16  C   UNL     1      45.954   1.575   8.487  0.00  0.00    +0.000 A 
ENDBRANCH   8  10
ENDBRANCH   1   4
BRANCH   1  17
ATOM     17  C   UNL     1      45.236   6.650  13.109  0.00  0.00    +0.000 C 
BRANCH  17  21
ATOM     18  C   UNL     1      49.264   8.072  13.229  0.00  0.00    +0.000 A 
ATOM     19  C   UNL     1      49.033   6.779  12.754  0.00  0.00    +0.000 A 
ATOM     20  C   UNL     1      47.726   6.294  12.690  0.00  0.00    +0.000 A 
ATOM     21  C   UNL     1      46.673   7.118  13.081  0.00  0.00    +0.000 A 
ATOM     22  N   UNL     1      46.891   8.367  13.572  0.00  0.00    +0.000 NA
ATOM     23  C   UNL     1      48.169   8.814  13.641  0.00  0.00    +0.000 A 
BRANCH  18  25
ATOM     24  N   UNL     1      51.573   7.905  13.960  0.00  0.00    +0.000 N 
ATOM     25  C   UNL     1      50.617   8.658  13.336  0.00  0.00    +0.000 C 
ATOM     26  O   UNL     1      50.883   9.754  12.862  0.00  0.00    +0.000 OA
ATOM     27  H   UNL     1      52.516   8.274  13.955  0.00  0.00    +0.000 HD
ATOM     28  H   UNL     1      51.458   6.917  14.139  0.00  0.00    +0.000 HD
ENDBRANCH  18  25
ENDBRANCH  17  21
ENDBRANCH   1  17
TORSDOF 5
ENDMDL
MODEL 9
REMARK VINA RESULT:    -7.128      3.624      7.314
REMARK INTER + INTRA:          -9.941
REMARK INTER:                  -9.606
REMARK INTRA:                  -0.335
REMARK UNBOUND:                -0.729
REMARK  Name = 
REMARK  5 active torsions:
REMARK  status: ('A' for Active; 'I' for Inactive)
REMARK    1  A    between atoms: C_2  and  C_4
REMARK    2  A    between atoms: C_7  and  C_8
REMARK    3  A    between atoms: C_8  and  C_9
REMARK    4  A    between atoms: C_9  and  C_10
REMARK    5  A    between atoms: C_14  and  C_15
REMARK                            x       y       z     vdW  Elec       q    Type
REMARK                         _______ _______ _______ _____ _____    ______ ____
ROOT
ATOM      1  C   UNL     1      48.523   7.982  12.554  0.00  0.00    +0.000 C 
ATOM      2  C   UNL     1      49.608   7.273  11.746  0.00  0.00    +0.000 C 
ATOM      3  C   UNL     1      49.477   8.760  11.648  0.00  0.00    +0.000 C 
ENDROOT
BRANCH   1   4
ATOM      4  C   UNL     1      47.084   7.782  12.091  0.00  0.00    +0.000 A 
ATOM      5  N   UNL     1      46.162   8.693  12.446  0.00  0.00    +0.000 NA
ATOM      6  C   UNL     1      44.892   8.447  12.093  0.00  0.00    +0.000 A 
ATOM      7  C   UNL     1      44.495   7.319  11.418  0.00  0.00    +0.000 A 
ATOM      8  C   UNL     1      45.490   6.423  11.083  0.00  0.00    +0.000 A 
ATOM      9  N   UNL     1      46.781   6.656  11.405  0.00  0.00    +0.000 NA
BRANCH   8  10
ATOM     10  C   UNL     1      45.221   5.140  10.399  0.00  0.00    +0.000 A 
ATOM     11  C   UNL     1      44.583   4.066  11.050  0.00  0.00    +0.000 A 
ATOM     12  C   UNL     1      44.368   2.842  10.405  0.00  0.00    +0.000 A 
ATOM     13  C   UNL     1      44.780   2.669   9.088  0.00  0.00    +0.000 A 
ATOM     14  C   UNL     1      45.395   3.722   8.425  0.00  0.00    +0.000 A 
ATOM     15  F   UNL     1      45.787   3.561   7.155  0.00  0.00    +0.000 F 
ATOM     16  C   UNL     1      45.612   4.942   9.062  0.00  0.00    +0.000 A 
ENDBRANCH   8  10
ENDBRANCH   1   4
BRANCH   1  17
ATOM     17  C   UNL     1      48.738   7.972  14.058  0.00  0.00    +0.000 C 
BRANCH  17  21
ATOM     18  C   UNL     1      47.843   4.423  16.264  0.00  0.00    +0.000 A 
ATOM     19  C   UNL     1      47.189   4.628  15.047  0.00  0.00    +0.000 A 
ATOM     20  C   UNL     1      47.473   5.771  14.299  0.00  0.00    +0.000 A 
ATOM     21  C   UNL     1      48.421   6.677  14.769  0.00  0.00    +0.000 A 
ATOM     22  N   UNL     1      49.041   6.501  15.967  0.00  0.00    +0.000 NA
ATOM     23  C   UNL     1      48.739   5.392  16.687  0.00  0.00    +0.000 A 
BRANCH  18  25
ATOM     24  N   UNL     1      48.689   2.564  17.576  0.00  0.00    +0.000 N 
ATOM     25  C   UNL     1      47.594   3.245  17.121  0.00  0.00    +0.000 C 
ATOM     26  O   UNL     1      46.461   2.908  17.438  0.00  0.00    +0.000 OA
ATOM     27  H   UNL     1      48.515   1.810  18.230  0.00  0.00    +0.000 HD
ATOM     28  H   UNL     1      49.622   2.948  17.541  0.00  0.00    +0.000 HD
ENDBRANCH  18  25
ENDBRANCH  17  21
ENDBRANCH   1  17
TORSDOF 5
ENDMDL
