MODEL 1
REMARK VINA RESULT:    -9.308      0.000      0.000
REMARK INTER + INTRA:         -12.403
REMARK INTER:                 -11.485
REMARK INTRA:                  -0.918
REMARK UNBOUND:                -0.918
REMARK  Name = 
REMARK  4 active torsions:
REMARK  status: ('A' for Active; 'I' for Inactive)
REMARK    1  A    between atoms: C_2  and  C_4
REMARK    2  A    between atoms: N_8  and  C_9
REMARK    3  A    between atoms: C_9  and  C_10
REMARK    4  A    between atoms: C_14  and  C_15
REMARK                            x       y       z     vdW  Elec       q    Type
REMARK                         _______ _______ _______ _____ _____    ______ ____
ROOT
ATOM      1  C   UNL     1      43.431   4.845  10.987  0.00  0.00    +0.000 C 
ENDROOT
BRANCH   1   6
ATOM      2  C   UNL     1      46.416   2.283   7.699  0.00  0.00    +0.000 A 
ATOM      3  C   UNL     1      45.654   1.803   8.756  0.00  0.00    +0.000 A 
ATOM      4  C   UNL     1      44.793   2.675   9.424  0.00  0.00    +0.000 A 
ATOM      5  C   UNL     1      44.722   4.010   9.044  0.00  0.00    +0.000 A 
ATOM      6  N   UNL     1      43.844   4.911   9.602  0.00  0.00    +0.000 N 
ATOM      7  N   UNL     1      45.465   4.487   8.026  0.00  0.00    +0.000 NA
ATOM      8  C   UNL     1      46.300   3.627   7.383  0.00  0.00    +0.000 A 
ATOM      9  H   UNL     1      44.045   5.836   9.235  0.00  0.00    +0.000 HD
BRANCH   2  11
ATOM     10  N   UNL     1      48.471   2.019   6.436  0.00  0.00    +0.000 N 
ATOM     11  C   UNL     1      47.333   1.425   6.924  0.00  0.00    +0.000 C 
ATOM     12  O   UNL     1      47.112   0.237   6.745  0.00  0.00    +0.000 OA
ATOM     13  H   UNL     1      49.137   1.404   5.983  0.00  0.00    +0.000 HD
ATOM     14  H   UNL     1      48.811   2.907   6.774  0.00  0.00    +0.000 HD
ENDBRANCH   2  11
ENDBRANCH   1   6
BRANCH   1  15
ATOM     15  C   UNL     1      44.518   5.232  11.961  0.00  0.00    +0.000 A 
ATOM     16  C   UNL     1      44.948   4.350  12.958  0.00  0.00    +0.000 A 
ATOM     17  C   UNL     1      46.057   4.663  13.740  0.00  0.00    +0.000 A 
ATOM     18  C   UNL     1      46.764   5.850  13.517  0.00  0.00    +0.000 A 
ATOM     19  C   UNL     1      46.379   6.752  12.511  0.00  0.00    +0.000 A 
ATOM     20  C   UNL     1      45.221   6.436  11.774  0.00  0.00    +0.000 A 
BRANCH  19  21
ATOM     21  C   UNL     1      47.217   7.917  12.134  0.00  0.00    +0.000 A 
ATOM     22  C   UNL     1      46.715   9.230  12.235  0.00  0.00    +0.000 A 
ATOM     23  C   UNL     1      47.530  10.350  12.027  0.00  0.00    +0.000 A 
ATOM     24  C   UNL     1      48.873  10.180  11.718  0.00  0.00    +0.000 A 
ATOM     25  C   UNL     1      49.379   8.895  11.585  0.00  0.00    +0.000 A 
ATOM     26  F   UNL     1      50.677   8.725  11.302  0.00  0.00    +0.000 F 
ATOM     27  C   UNL     1      48.570   7.776  11.774  0.00  0.00    +0.000 A 
ENDBRANCH  19  21
ENDBRANCH   1  15
TORSDOF 4
ENDMDL
MODEL 2
REMARK VINA RESULT:    -9.262      1.077      1.453
REMARK INTER + INTRA:         -12.346
REMARK INTER:                 -11.416
REMARK INTRA:                  -0.930
REMARK UNBOUND:                -0.918
REMARK  Name = 
REMARK  4 active torsions:
REMARK  status: ('A' for Active; 'I' for Inactive)
REMARK    1  A    between atoms: C_2  and  C_4
REMARK    2  A    between atoms: N_8  and  C_9
REMARK    3  A    between atoms: C_9  and  C_10
REMARK    4  A    between atoms: C_14  and  C_15
REMARK                            x       y       z     vdW  Elec       q    Type
REMARK                         _______ _______ _______ _____ _____    ______ ____
ROOT
ATOM      1  C   UNL     1      43.402   4.771  11.088  0.00  0.00    +0.000 C 
ENDROOT
BRANCH   1   6
ATOM      2  C   UNL     1      46.353   2.286   7.711  0.00  0.00    +0.000 A 
ATOM      3  C   UNL     1      45.618   1.784   8.777  0.00  0.00    +0.000 A 
ATOM      4  C   UNL     1      44.760   2.637   9.472  0.00  0.00    +0.000 A 
ATOM      5  C   UNL     1      44.664   3.975   9.110  0.00  0.00    +0.000 A 
ATOM      6  N   UNL     1      43.787   4.858   9.696  0.00  0.00    +0.000 N 
ATOM      7  N   UNL     1      45.382   4.473   8.083  0.00  0.00    +0.000 NA
ATOM      8  C   UNL     1      46.214   3.632   7.414  0.00  0.00    +0.000 A 
ATOM      9  H   UNL     1      43.969   5.790   9.336  0.00  0.00    +0.000 HD
BRANCH   2  11
ATOM     10  N   UNL     1      48.357   2.076   6.359  0.00  0.00    +0.000 N 
ATOM     11  C   UNL     1      47.265   1.449   6.908  0.00  0.00    +0.000 C 
ATOM     12  O   UNL     1      47.081   0.251   6.758  0.00  0.00    +0.000 OA
ATOM     13  H   UNL     1      49.024   1.478   5.884  0.00  0.00    +0.000 HD
ATOM     14  H   UNL     1      48.678   2.981   6.667  0.00  0.00    +0.000 HD
ENDBRANCH   2  11
ENDBRANCH   1   6
BRANCH   1  15
ATOM     15  C   UNL     1      44.516   5.119  12.046  0.00  0.00    +0.000 A 
ATOM     16  C   UNL     1      45.063   4.159  12.903  0.00  0.00    +0.000 A 
ATOM     17  C   UNL     1      46.193   4.458  13.661  0.00  0.00    +0.000 A 
ATOM     18  C   UNL     1      46.803   5.712  13.551  0.00  0.00    +0.000 A 
ATOM     19  C   UNL     1      46.299   6.697  12.684  0.00  0.00    +0.000 A 
ATOM     20  C   UNL     1      45.124   6.386  11.973  0.00  0.00    +0.000 A 
BRANCH  19  21
ATOM     21  C   UNL     1      47.033   7.957  12.412  0.00  0.00    +0.000 A 
ATOM     22  C   UNL     1      48.394   7.935  12.046  0.00  0.00    +0.000 A 
ATOM     23  C   UNL     1      49.069   9.094  11.641  0.00  0.00    +0.000 A 
ATOM     24  C   UNL     1      48.391  10.305  11.588  0.00  0.00    +0.000 A 
ATOM     25  C   UNL     1      47.059  10.352  11.971  0.00  0.00    +0.000 A 
ATOM     26  F   UNL     1      46.397  11.515  11.908  0.00  0.00    +0.000 F 
ATOM     27  C   UNL     1      46.386   9.206  12.392  0.00  0.00    +0.000 A 
ENDBRANCH  19  21
ENDBRANCH   1  15
TORSDOF 4
ENDMDL
MODEL 3
REMARK VINA RESULT:    -8.356      2.421      3.631
REMARK INTER + INTRA:         -11.228
REMARK INTER:                 -10.377
REMARK INTRA:                  -0.851
REMARK UNBOUND:                -0.918
REMARK  Name = 
REMARK  4 active torsions:
REMARK  status: ('A' for Active; 'I' for Inactive)
REMARK    1  A    between atoms: C_2  and  C_4
REMARK    2  A    between atoms: N_8  and  C_9
REMARK    3  A    between atoms: C_9  and  C_10
REMARK    4  A    between atoms: C_14  and  C_15
REMARK                            x       y       z     vdW  Elec       q    Type
REMARK                         _______ _______ _______ _____ _____    ______ ____
ROOT
ATOM      1  C   UNL     1      43.708   5.258  11.046  0.00  0.00    +0.000 C 
ENDROOT
BRANCH   1   6
ATOM      2  C   UNL     1      46.227   2.034   7.956  0.00  0.00    +0.000 A 
ATOM      3  C   UNL     1      45.648   1.795   9.196  0.00  0.00    +0.000 A 
ATOM      4  C   UNL     1      44.875   2.795   9.787  0.00  0.00    +0.000 A 
ATOM      5  C   UNL     1      44.711   4.018   9.149  0.00  0.00    +0.000 A 
ATOM      6  N   UNL     1      43.904   5.023   9.632  0.00  0.00    +0.000 N 
ATOM      7  N   UNL     1      45.277   4.262   7.950  0.00  0.00    +0.000 NA
ATOM      8  C   UNL     1      46.028   3.280   7.384  0.00  0.00    +0.000 A 
ATOM      9  H   UNL     1      44.022   5.847   9.050  0.00  0.00    +0.000 HD
BRANCH   2  11
ATOM     10  N   UNL     1      46.807  -0.290   7.568  0.00  0.00    +0.000 N 
ATOM     11  C   UNL     1      47.039   1.025   7.248  0.00  0.00    +0.000 C 
ATOM     12  O   UNL     1      47.859   1.335   6.398  0.00  0.00    +0.000 OA
ATOM     13  H   UNL     1      47.304  -0.979   7.014  0.00  0.00    +0.000 HD
ATOM     14  H   UNL     1      45.979  -0.595   8.058  0.00  0.00    +0.000 HD
ENDBRANCH   2  11
ENDBRANCH   1   6
BRANCH   1  15
ATOM     15  C   UNL     1      44.772   6.131  11.667  0.00  0.00    +0.000 A 
ATOM     16  C   UNL     1      44.780   7.516  11.472  0.00  0.00    +0.000 A 
ATOM     17  C   UNL     1      45.670   8.319  12.180  0.00  0.00    +0.000 A 
ATOM     18  C   UNL     1      46.545   7.749  13.111  0.00  0.00    +0.000 A 
ATOM     19  C   UNL     1      46.554   6.365  13.354  0.00  0.00    +0.000 A 
ATOM     20  C   UNL     1      45.682   5.572  12.582  0.00  0.00    +0.000 A 
BRANCH  19  21
ATOM     21  C   UNL     1      47.335   5.764  14.463  0.00  0.00    +0.000 A 
ATOM     22  C   UNL     1      48.391   6.475  15.069  0.00  0.00    +0.000 A 
ATOM     23  C   UNL     1      49.046   5.994  16.210  0.00  0.00    +0.000 A 
ATOM     24  C   UNL     1      48.652   4.787  16.776  0.00  0.00    +0.000 A 
ATOM     25  C   UNL     1      47.633   4.059  16.177  0.00  0.00    +0.000 A 
ATOM     26  F   UNL     1      47.240   2.903  16.726  0.00  0.00    +0.000 F 
ATOM     27  C   UNL     1      46.990   4.525  15.031  0.00  0.00    +0.000 A 
ENDBRANCH  19  21
ENDBRANCH   1  15
TORSDOF 4
ENDMDL
MODEL 4
REMARK VINA RESULT:    -8.096      5.171      7.923
REMARK INTER + INTRA:         -10.907
REMARK INTER:                 -10.330
REMARK INTRA:                  -0.577
REMARK UNBOUND:                -0.918
REMARK  Name = 
REMARK  4 active torsions:
REMARK  status: ('A' for Active; 'I' for Inactive)
REMARK    1  A    between atoms: C_2  and  C_4
REMARK    2  A    between atoms: N_8  and  C_9
REMARK    3  A    between atoms: C_9  and  C_10
REMARK    4  A    between atoms: C_14  and  C_15
REMARK                            x       y       z     vdW  Elec       q    Type
REMARK                         _______ _______ _______ _____ _____    ______ ____
ROOT
ATOM      1  C   UNL     1      45.996   5.183  13.824  0.00  0.00    +0.000 C 
ENDROOT
BRANCH   1   6
ATOM      2  C   UNL     1      49.504   3.728  17.268  0.00  0.00    +0.000 A 
ATOM      3  C   UNL     1      48.945   4.982  17.054  0.00  0.00    +0.000 A 
ATOM      4  C   UNL     1      47.887   5.108  16.154  0.00  0.00    +0.000 A 
ATOM      5  C   UNL     1      47.419   3.994  15.467  0.00  0.00    +0.000 A 
ATOM      6  N   UNL     1      46.333   4.025  14.622  0.00  0.00    +0.000 N 
ATOM      7  N   UNL     1      47.963   2.776  15.660  0.00  0.00    +0.000 NA
ATOM      8  C   UNL     1      48.993   2.665  16.540  0.00  0.00    +0.000 A 
ATOM      9  H   UNL     1      46.246   3.122  14.166  0.00  0.00    +0.000 HD
BRANCH   2  11
ATOM     10  N   UNL     1      51.330   2.342  18.063  0.00  0.00    +0.000 N 
ATOM     11  C   UNL     1      50.610   3.500  18.218  0.00  0.00    +0.000 C 
ATOM     12  O   UNL     1      50.894   4.312  19.086  0.00  0.00    +0.000 OA
ATOM     13  H   UNL     1      52.141   2.236  18.662  0.00  0.00    +0.000 HD
ATOM     14  H   UNL     1      51.296   1.787  17.222  0.00  0.00    +0.000 HD
ENDBRANCH   2  11
ENDBRANCH   1   6
BRANCH   1  15
ATOM     15  C   UNL     1      45.035   4.882  12.698  0.00  0.00    +0.000 A 
ATOM     16  C   UNL     1      43.764   5.464  12.653  0.00  0.00    +0.000 A 
ATOM     17  C   UNL     1      42.958   5.301  11.529  0.00  0.00    +0.000 A 
ATOM     18  C   UNL     1      43.423   4.576  10.427  0.00  0.00    +0.000 A 
ATOM     19  C   UNL     1      44.703   3.995  10.422  0.00  0.00    +0.000 A 
ATOM     20  C   UNL     1      45.474   4.129  11.594  0.00  0.00    +0.000 A 
BRANCH  19  21
ATOM     21  C   UNL     1      45.288   3.387   9.202  0.00  0.00    +0.000 A 
ATOM     22  C   UNL     1      45.790   4.196   8.162  0.00  0.00    +0.000 A 
ATOM     23  C   UNL     1      46.478   3.652   7.070  0.00  0.00    +0.000 A 
ATOM     24  C   UNL     1      46.685   2.280   6.997  0.00  0.00    +0.000 A 
ATOM     25  C   UNL     1      46.173   1.465   7.997  0.00  0.00    +0.000 A 
ATOM     26  F   UNL     1      46.382   0.143   7.938  0.00  0.00    +0.000 F 
ATOM     27  C   UNL     1      45.472   1.998   9.077  0.00  0.00    +0.000 A 
ENDBRANCH  19  21
ENDBRANCH   1  15
TORSDOF 4
ENDMDL
MODEL 5
REMARK VINA RESULT:    -7.918      4.024      7.086
REMARK INTER + INTRA:         -10.687
REMARK INTER:                  -9.857
REMARK INTRA:                  -0.830
REMARK UNBOUND:                -0.918
REMARK  Name = 
REMARK  4 active torsions:
REMARK  status: ('A' for Active; 'I' for Inactive)
REMARK    1  A    between atoms: C_2  and  C_4
REMARK    2  A    between atoms: N_8  and  C_9
REMARK    3  A    between atoms: C_9  and  C_10
REMARK    4  A    between atoms: C_14  and  C_15
REMARK                            x       y       z     vdW  Elec       q    Type
REMARK                         _______ _______ _______ _____ _____    ______ ____
ROOT
ATOM      1  C   UNL     1      44.519   6.627  11.898  0.00  0.00    +0.000 C 
ENDROOT
BRANCH   1   6
ATOM      2  C   UNL     1      49.427   7.769  12.847  0.00  0.00    +0.000 A 
ATOM      3  C   UNL     1      48.629   8.132  11.769  0.00  0.00    +0.000 A 
ATOM      4  C   UNL     1      47.267   7.830  11.800  0.00  0.00    +0.000 A 
ATOM      5  C   UNL     1      46.728   7.156  12.889  0.00  0.00    +0.000 A 
ATOM      6  N   UNL     1      45.384   6.892  13.027  0.00  0.00    +0.000 N 
ATOM      7  N   UNL     1      47.496   6.792  13.935  0.00  0.00    +0.000 NA
ATOM      8  C   UNL     1      48.822   7.091  13.893  0.00  0.00    +0.000 A 
ATOM      9  H   UNL     1      45.247   6.309  13.847  0.00  0.00    +0.000 HD
BRANCH   2  11
ATOM     10  N   UNL     1      51.531   7.703  14.053  0.00  0.00    +0.000 N 
ATOM     11  C   UNL     1      50.870   8.070  12.907  0.00  0.00    +0.000 C 
ATOM     12  O   UNL     1      51.461   8.593  11.974  0.00  0.00    +0.000 OA
ATOM     13  H   UNL     1      52.537   7.831  14.050  0.00  0.00    +0.000 HD
ATOM     14  H   UNL     1      51.146   7.051  14.719  0.00  0.00    +0.000 HD
ENDBRANCH   2  11
ENDBRANCH   1   6
BRANCH   1  15
ATOM     15  C   UNL     1      44.414   5.161  11.549  0.00  0.00    +0.000 A 
ATOM     16  C   UNL     1      43.478   4.331  12.174  0.00  0.00    +0.000 A 
ATOM     17  C   UNL     1      43.288   3.027  11.725  0.00  0.00    +0.000 A 
ATOM     18  C   UNL     1      44.012   2.545  10.630  0.00  0.00    +0.000 A 
ATOM     19  C   UNL     1      44.945   3.354   9.959  0.00  0.00    +0.000 A 
ATOM     20  C   UNL     1      45.157   4.650  10.470  0.00  0.00    +0.000 A 
BRANCH  19  21
ATOM     21  C   UNL     1      45.584   2.932   8.688  0.00  0.00    +0.000 A 
ATOM     22  C   UNL     1      45.977   3.886   7.727  0.00  0.00    +0.000 A 
ATOM     23  C   UNL     1      46.712   3.528   6.589  0.00  0.00    +0.000 A 
ATOM     24  C   UNL     1      47.077   2.202   6.391  0.00  0.00    +0.000 A 
ATOM     25  C   UNL     1      46.675   1.245   7.312  0.00  0.00    +0.000 A 
ATOM     26  F   UNL     1      47.037  -0.032   7.133  0.00  0.00    +0.000 F 
ATOM     27  C   UNL     1      45.928   1.592   8.436  0.00  0.00    +0.000 A 
ENDBRANCH  19  21
ENDBRANCH   1  15
TORSDOF 4
ENDMDL
MODEL 6
REMARK VINA RESULT:    -7.911      2.626      3.143
REMARK INTER + INTRA:         -10.679
REMARK INTER:                  -9.890
REMARK INTRA:                  -0.789
REMARK UNBOUND:                -0.918
REMARK  Name = 
REMARK  4 active torsions:
REMARK  status: ('A' for Active; 'I' for Inactive)
REMARK    1  A    between atoms: C_2  and  C_4
REMARK    2  A    between atoms: N_8  and  C_9
REMARK    3  A    between atoms: C_9  and  C_10
REMARK    4  A    between atoms: C_14  and  C_15
REMARK                            x       y       z     vdW  Elec       q    Type
REMARK                         _______ _______ _______ _____ _____    ______ ____
ROOT
ATOM      1  C   UNL     1      43.593   4.059  11.111  0.00  0.00    +0.000 C 
ENDROOT
BRANCH   1   6
ATOM      2  C   UNL     1      46.658   2.572   7.280  0.00  0.00    +0.000 A 
ATOM      3  C   UNL     1      46.406   3.849   7.763  0.00  0.00    +0.000 A 
ATOM      4  C   UNL     1      45.647   3.999   8.924  0.00  0.00    +0.000 A 
ATOM      5  C   UNL     1      45.134   2.881   9.570  0.00  0.00    +0.000 A 
ATOM      6  N   UNL     1      44.442   2.942  10.758  0.00  0.00    +0.000 N 
ATOM      7  N   UNL     1      45.365   1.638   9.103  0.00  0.00    +0.000 NA
ATOM      8  C   UNL     1      46.106   1.504   7.971  0.00  0.00    +0.000 A 
ATOM      9  H   UNL     1      44.087   2.018  10.980  0.00  0.00    +0.000 HD
BRANCH   2  11
ATOM     10  N   UNL     1      47.284   3.175   5.015  0.00  0.00    +0.000 N 
ATOM     11  C   UNL     1      47.470   2.321   6.074  0.00  0.00    +0.000 C 
ATOM     12  O   UNL     1      48.291   1.418   6.023  0.00  0.00    +0.000 OA
ATOM     13  H   UNL     1      47.908   3.050   4.225  0.00  0.00    +0.000 HD
ATOM     14  H   UNL     1      46.821   4.066   5.108  0.00  0.00    +0.000 HD
ENDBRANCH   2  11
ENDBRANCH   1   6
BRANCH   1  15
ATOM     15  C   UNL     1      44.319   5.165  11.839  0.00  0.00    +0.000 A 
ATOM     16  C   UNL     1      45.397   4.890  12.688  0.00  0.00    +0.000 A 
ATOM     17  C   UNL     1      46.152   5.932  13.220  0.00  0.00    +0.000 A 
ATOM     18  C   UNL     1      45.855   7.258  12.891  0.00  0.00    +0.000 A 
ATOM     19  C   UNL     1      44.795   7.576  12.024  0.00  0.00    +0.000 A 
ATOM     20  C   UNL     1      44.014   6.506  11.545  0.00  0.00    +0.000 A 
BRANCH  19  21
ATOM     21  C   UNL     1      44.580   8.952  11.514  0.00  0.00    +0.000 A 
ATOM     22  C   UNL     1      45.496   9.983  11.809  0.00  0.00    +0.000 A 
ATOM     23  C   UNL     1      45.396  11.250  11.222  0.00  0.00    +0.000 A 
ATOM     24  C   UNL     1      44.375  11.514  10.317  0.00  0.00    +0.000 A 
ATOM     25  C   UNL     1      43.447  10.522  10.036  0.00  0.00    +0.000 A 
ATOM     26  F   UNL     1      42.469  10.767   9.154  0.00  0.00    +0.000 F 
ATOM     27  C   UNL     1      43.531   9.264  10.631  0.00  0.00    +0.000 A 
ENDBRANCH  19  21
ENDBRANCH   1  15
TORSDOF 4
ENDMDL
MODEL 7
REMARK VINA RESULT:    -7.878      4.227      7.245
REMARK INTER + INTRA:         -10.638
REMARK INTER:                 -10.505
REMARK INTRA:                  -0.133
REMARK UNBOUND:                -0.918
REMARK  Name = 
REMARK  4 active torsions:
REMARK  status: ('A' for Active; 'I' for Inactive)
REMARK    1  A    between atoms: C_2  and  C_4
REMARK    2  A    between atoms: N_8  and  C_9
REMARK    3  A    between atoms: C_9  and  C_10
REMARK    4  A    between atoms: C_14  and  C_15
REMARK                            x       y       z     vdW  Elec       q    Type
REMARK                         _______ _______ _______ _____ _____    ______ ____
ROOT
ATOM      1  C   UNL     1      46.071   7.339  11.768  0.00  0.00    +0.000 C 
ENDROOT
BRANCH   1   6
ATOM      2  C   UNL     1      47.444   4.451  15.775  0.00  0.00    +0.000 A 
ATOM      3  C   UNL     1      46.393   4.279  14.883  0.00  0.00    +0.000 A 
ATOM      4  C   UNL     1      46.306   5.114  13.769  0.00  0.00    +0.000 A 
ATOM      5  C   UNL     1      47.247   6.117  13.573  0.00  0.00    +0.000 A 
ATOM      6  N   UNL     1      47.272   6.929  12.463  0.00  0.00    +0.000 N 
ATOM      7  N   UNL     1      48.265   6.297  14.440  0.00  0.00    +0.000 NA
ATOM      8  C   UNL     1      48.340   5.477  15.522  0.00  0.00    +0.000 A 
ATOM      9  H   UNL     1      47.984   7.641  12.591  0.00  0.00    +0.000 HD
BRANCH   2  11
ATOM     10  N   UNL     1      48.878   3.580  17.528  0.00  0.00    +0.000 N 
ATOM     11  C   UNL     1      47.626   3.598  16.966  0.00  0.00    +0.000 C 
ATOM     12  O   UNL     1      46.704   2.959  17.450  0.00  0.00    +0.000 OA
ATOM     13  H   UNL     1      48.972   3.063  18.395  0.00  0.00    +0.000 HD
ATOM     14  H   UNL     1      49.578   4.276  17.322  0.00  0.00    +0.000 HD
ENDBRANCH   2  11
ENDBRANCH   1   6
BRANCH   1  15
ATOM     15  C   UNL     1      45.227   6.183  11.286  0.00  0.00    +0.000 A 
ATOM     16  C   UNL     1      43.856   6.123  11.556  0.00  0.00    +0.000 A 
ATOM     17  C   UNL     1      43.069   5.136  10.969  0.00  0.00    +0.000 A 
ATOM     18  C   UNL     1      43.638   4.214  10.084  0.00  0.00    +0.000 A 
ATOM     19  C   UNL     1      45.007   4.254   9.767  0.00  0.00    +0.000 A 
ATOM     20  C   UNL     1      45.789   5.228  10.419  0.00  0.00    +0.000 A 
BRANCH  19  21
ATOM     21  C   UNL     1      45.593   3.412   8.695  0.00  0.00    +0.000 A 
ATOM     22  C   UNL     1      46.238   4.000   7.588  0.00  0.00    +0.000 A 
ATOM     23  C   UNL     1      46.927   3.231   6.641  0.00  0.00    +0.000 A 
ATOM     24  C   UNL     1      46.988   1.851   6.785  0.00  0.00    +0.000 A 
ATOM     25  C   UNL     1      46.334   1.251   7.852  0.00  0.00    +0.000 A 
ATOM     26  F   UNL     1      46.403  -0.078   8.003  0.00  0.00    +0.000 F 
ATOM     27  C   UNL     1      45.633   2.010   8.788  0.00  0.00    +0.000 A 
ENDBRANCH  19  21
ENDBRANCH   1  15
TORSDOF 4
ENDMDL
MODEL 8
REMARK VINA RESULT:    -7.687      3.921      7.190
REMARK INTER + INTRA:         -10.403
REMARK INTER:                  -9.509
REMARK INTRA:                  -0.894
REMARK UNBOUND:                -0.918
REMARK  Name = 
REMARK  4 active torsions:
REMARK  status: ('A' for Active; 'I' for Inactive)
REMARK    1  A    between atoms: C_2  and  C_4
REMARK    2  A    between atoms: N_8  and  C_9
REMARK    3  A    between atoms: C_9  and  C_10
REMARK    4  A    between atoms: C_14  and  C_15
REMARK                            x       y       z     vdW  Elec       q    Type
REMARK                         _______ _______ _______ _____ _____    ______ ____
ROOT
ATOM      1  C   UNL     1      45.813   4.651  13.641  0.00  0.00    +0.000 C 
ENDROOT
BRANCH   1   6
ATOM      2  C   UNL     1      47.818   9.099  12.064  0.00  0.00    +0.000 A 
ATOM      3  C   UNL     1      46.671   8.864  12.812  0.00  0.00    +0.000 A 
ATOM      4  C   UNL     1      46.403   7.569  13.256  0.00  0.00    +0.000 A 
ATOM      5  C   UNL     1      47.265   6.528  12.931  0.00  0.00    +0.000 A 
ATOM      6  N   UNL     1      47.110   5.242  13.394  0.00  0.00    +0.000 N 
ATOM      7  N   UNL     1      48.375   6.745  12.197  0.00  0.00    +0.000 NA
ATOM      8  C   UNL     1      48.626   8.011  11.770  0.00  0.00    +0.000 A 
ATOM      9  H   UNL     1      47.799   4.646  12.946  0.00  0.00    +0.000 HD
BRANCH   2  11
ATOM     10  N   UNL     1      47.305  11.458  11.829  0.00  0.00    +0.000 N 
ATOM     11  C   UNL     1      48.190  10.440  11.575  0.00  0.00    +0.000 C 
ATOM     12  O   UNL     1      49.246  10.648  10.996  0.00  0.00    +0.000 OA
ATOM     13  H   UNL     1      47.609  12.390  11.569  0.00  0.00    +0.000 HD
ATOM     14  H   UNL     1      46.568  11.382  12.513  0.00  0.00    +0.000 HD
ENDBRANCH   2  11
ENDBRANCH   1   6
BRANCH   1  15
ATOM     15  C   UNL     1      44.967   4.509  12.397  0.00  0.00    +0.000 A 
ATOM     16  C   UNL     1      43.785   5.240  12.235  0.00  0.00    +0.000 A 
ATOM     17  C   UNL     1      43.108   5.216  11.019  0.00  0.00    +0.000 A 
ATOM     18  C   UNL     1      43.617   4.481   9.943  0.00  0.00    +0.000 A 
ATOM     19  C   UNL     1      44.813   3.751  10.057  0.00  0.00    +0.000 A 
ATOM     20  C   UNL     1      45.446   3.749  11.315  0.00  0.00    +0.000 A 
BRANCH  19  21
ATOM     21  C   UNL     1      45.467   3.122   8.884  0.00  0.00    +0.000 A 
ATOM     22  C   UNL     1      46.012   3.912   7.851  0.00  0.00    +0.000 A 
ATOM     23  C   UNL     1      46.762   3.351   6.810  0.00  0.00    +0.000 A 
ATOM     24  C   UNL     1      46.988   1.981   6.781  0.00  0.00    +0.000 A 
ATOM     25  C   UNL     1      46.436   1.183   7.773  0.00  0.00    +0.000 A 
ATOM     26  F   UNL     1      46.663  -0.137   7.758  0.00  0.00    +0.000 F 
ATOM     27  C   UNL     1      45.674   1.733   8.802  0.00  0.00    +0.000 A 
ENDBRANCH  19  21
ENDBRANCH   1  15
TORSDOF 4
ENDMDL
MODEL 9
REMARK VINA RESULT:    -7.453      1.916      2.582
REMARK INTER + INTRA:         -10.113
REMARK INTER:                 -10.082
REMARK INTRA:                  -0.031
REMARK UNBOUND:                -0.918
REMARK  Name = 
REMARK  4 active torsions:
REMARK  status: ('A' for Active; 'I' for Inactive)
REMARK    1  A    between atoms: C_2  and  C_4
REMARK    2  A    between atoms: N_8  and  C_9
REMARK    3  A    between atoms: C_9  and  C_10
REMARK    4  A    between atoms: C_14  and  C_15
REMARK                            x       y       z     vdW  Elec       q    Type
REMARK                         _______ _______ _______ _____ _____    ______ ____
ROOT
ATOM      1  C   UNL     1      43.447   3.759  10.908  0.00  0.00    +0.000 C 
ENDROOT
BRANCH   1   6
ATOM      2  C   UNL     1      46.711   2.555   7.142  0.00  0.00    +0.000 A 
ATOM      3  C   UNL     1      46.209   3.796   7.511  0.00  0.00    +0.000 A 
ATOM      4  C   UNL     1      45.447   3.902   8.675  0.00  0.00    +0.000 A 
ATOM      5  C   UNL     1      45.180   2.772   9.438  0.00  0.00    +0.000 A 
ATOM      6  N   UNL     1      44.502   2.808  10.635  0.00  0.00    +0.000 N 
ATOM      7  N   UNL     1      45.655   1.561   9.083  0.00  0.00    +0.000 NA
ATOM      8  C   UNL     1      46.396   1.471   7.946  0.00  0.00    +0.000 A 
ATOM      9  H   UNL     1      44.346   1.857  10.953  0.00  0.00    +0.000 HD
BRANCH   2  11
ATOM     10  N   UNL     1      47.440   3.305   4.953  0.00  0.00    +0.000 N 
ATOM     11  C   UNL     1      47.545   2.357   5.941  0.00  0.00    +0.000 C 
ATOM     12  O   UNL     1      48.313   1.413   5.835  0.00  0.00    +0.000 OA
ATOM     13  H   UNL     1      48.081   3.210   4.173  0.00  0.00    +0.000 HD
ATOM     14  H   UNL     1      47.027   4.212   5.109  0.00  0.00    +0.000 HD
ENDBRANCH   2  11
ENDBRANCH   1   6
BRANCH   1  15
ATOM     15  C   UNL     1      43.939   5.177  11.074  0.00  0.00    +0.000 A 
ATOM     16  C   UNL     1      43.053   6.260  11.052  0.00  0.00    +0.000 A 
ATOM     17  C   UNL     1      43.504   7.539  11.367  0.00  0.00    +0.000 A 
ATOM     18  C   UNL     1      44.838   7.747  11.732  0.00  0.00    +0.000 A 
ATOM     19  C   UNL     1      45.754   6.683  11.789  0.00  0.00    +0.000 A 
ATOM     20  C   UNL     1      45.284   5.410  11.411  0.00  0.00    +0.000 A 
BRANCH  19  21
ATOM     21  C   UNL     1      47.117   6.846  12.351  0.00  0.00    +0.000 A 
ATOM     22  C   UNL     1      48.102   7.578  11.656  0.00  0.00    +0.000 A 
ATOM     23  C   UNL     1      49.346   7.871  12.229  0.00  0.00    +0.000 A 
ATOM     24  C   UNL     1      49.632   7.440  13.518  0.00  0.00    +0.000 A 
ATOM     25  C   UNL     1      48.687   6.694  14.207  0.00  0.00    +0.000 A 
ATOM     26  F   UNL     1      48.952   6.289  15.456  0.00  0.00    +0.000 F 
ATOM     27  C   UNL     1      47.453   6.384  13.636  0.00  0.00    +0.000 A 
ENDBRANCH  19  21
ENDBRANCH   1  15
TORSDOF 4
ENDMDL
