MODEL 1
REMARK VINA RESULT:    -9.173      0.000      0.000
REMARK INTER + INTRA:         -12.870
REMARK INTER:                 -11.855
REMARK INTRA:                  -1.015
REMARK UNBOUND:                -1.015
REMARK  Name = 
REMARK  5 active torsions:
REMARK  status: ('A' for Active; 'I' for Inactive)
REMARK    1  A    between atoms: C_2  and  C_3
REMARK    2  A    between atoms: C_6  and  C_7
REMARK    3  A    between atoms: C_11  and  C_12
REMARK    4  A    between atoms: C_12  and  N_13
REMARK    5  A    between atoms: C_17  and  C_18
REMARK                            x       y       z     vdW  Elec       q    Type
REMARK                         _______ _______ _______ _____ _____    ______ ____
ROOT
ATOM      1  C   UNL     1      43.887   5.133  11.172  0.00  0.00    +0.000 C 
ATOM      2  C   UNL     1      42.612   5.824  11.639  0.00  0.00    +0.000 C 
ATOM      3  C   UNL     1      42.709   4.338  11.714  0.00  0.00    +0.000 C 
ENDROOT
BRANCH   1   4
ATOM      4  N   UNL     1      44.184   5.146   9.728  0.00  0.00    +0.000 N 
ATOM      5  C   UNL     1      44.983   4.186   9.090  0.00  0.00    +0.000 A 
ATOM      6  C   UNL     1      44.956   2.833   9.416  0.00  0.00    +0.000 A 
ATOM      7  C   UNL     1      45.707   1.919   8.674  0.00  0.00    +0.000 A 
ATOM      8  C   UNL     1      46.484   2.378   7.617  0.00  0.00    +0.000 A 
ATOM      9  C   UNL     1      46.454   3.737   7.346  0.00  0.00    +0.000 A 
ATOM     10  N   UNL     1      45.728   4.640   8.059  0.00  0.00    +0.000 NA
ATOM     11  H   UNL     1      44.474   6.042   9.339  0.00  0.00    +0.000 HD
BRANCH   8  12
ATOM     12  C   UNL     1      47.300   1.487   6.766  0.00  0.00    +0.000 C 
ATOM     13  N   UNL     1      48.292   2.063   6.020  0.00  0.00    +0.000 N 
ATOM     14  O   UNL     1      47.083   0.285   6.707  0.00  0.00    +0.000 OA
ATOM     15  H   UNL     1      48.364   3.058   5.867  0.00  0.00    +0.000 HD
ATOM     16  H   UNL     1      48.784   1.455   5.377  0.00  0.00    +0.000 HD
ENDBRANCH   8  12
ENDBRANCH   1   4
BRANCH   1  21
ATOM     17  C   UNL     1      47.207   6.565  12.529  0.00  0.00    +0.000 A 
ATOM     18  C   UNL     1      47.428   5.723  13.629  0.00  0.00    +0.000 A 
ATOM     19  C   UNL     1      46.518   4.715  13.952  0.00  0.00    +0.000 A 
ATOM     20  C   UNL     1      45.377   4.521  13.172  0.00  0.00    +0.000 A 
ATOM     21  C   UNL     1      45.117   5.328  12.054  0.00  0.00    +0.000 A 
ATOM     22  C   UNL     1      46.040   6.349  11.772  0.00  0.00    +0.000 A 
BRANCH  17  26
ATOM     23  C   UNL     1      49.933   9.599  11.354  0.00  0.00    +0.000 A 
ATOM     24  C   UNL     1      48.614   9.964  11.581  0.00  0.00    +0.000 A 
ATOM     25  C   UNL     1      47.712   8.979  11.990  0.00  0.00    +0.000 A 
ATOM     26  C   UNL     1      48.135   7.655  12.165  0.00  0.00    +0.000 A 
ATOM     27  C   UNL     1      49.494   7.417  11.934  0.00  0.00    +0.000 A 
ATOM     28  N   UNL     1      50.396   8.343  11.526  0.00  0.00    +0.000 NA
BRANCH  23  30
ATOM     29  N   UNL     1      51.637  11.371  10.508  0.00  0.00    +0.000 NA
ATOM     30  C   UNL     1      50.893  10.566  10.889  0.00  0.00    +0.000 C 
ENDBRANCH  23  30
ENDBRANCH  17  26
ENDBRANCH   1  21
TORSDOF 5
ENDMDL
MODEL 2
REMARK VINA RESULT:    -8.684      2.842      4.554
REMARK INTER + INTRA:         -12.238
REMARK INTER:                 -11.412
REMARK INTRA:                  -0.826
REMARK UNBOUND:                -1.015
REMARK  Name = 
REMARK  5 active torsions:
REMARK  status: ('A' for Active; 'I' for Inactive)
REMARK    1  A    between atoms: C_2  and  C_3
REMARK    2  A    between atoms: C_6  and  C_7
REMARK    3  A    between atoms: C_11  and  C_12
REMARK    4  A    between atoms: C_12  and  N_13
REMARK    5  A    between atoms: C_17  and  C_18
REMARK                            x       y       z     vdW  Elec       q    Type
REMARK                         _______ _______ _______ _____ _____    ______ ____
ROOT
ATOM      1  C   UNL     1      44.158   4.912  11.383  0.00  0.00    +0.000 C 
ATOM      2  C   UNL     1      42.862   5.312  12.078  0.00  0.00    +0.000 C 
ATOM      3  C   UNL     1      43.364   3.916  12.214  0.00  0.00    +0.000 C 
ENDROOT
BRANCH   1   4
ATOM      4  N   UNL     1      44.151   4.836   9.911  0.00  0.00    +0.000 N 
ATOM      5  C   UNL     1      44.964   3.963   9.173  0.00  0.00    +0.000 A 
ATOM      6  C   UNL     1      45.247   2.661   9.577  0.00  0.00    +0.000 A 
ATOM      7  C   UNL     1      45.985   1.815   8.746  0.00  0.00    +0.000 A 
ATOM      8  C   UNL     1      46.439   2.293   7.522  0.00  0.00    +0.000 A 
ATOM      9  C   UNL     1      46.111   3.597   7.184  0.00  0.00    +0.000 A 
ATOM     10  N   UNL     1      45.393   4.433   7.982  0.00  0.00    +0.000 NA
ATOM     11  H   UNL     1      44.193   5.726   9.417  0.00  0.00    +0.000 HD
BRANCH   8  12
ATOM     12  C   UNL     1      47.213   1.469   6.569  0.00  0.00    +0.000 C 
ATOM     13  N   UNL     1      48.151   2.107   5.804  0.00  0.00    +0.000 N 
ATOM     14  O   UNL     1      47.008   0.270   6.447  0.00  0.00    +0.000 OA
ATOM     15  H   UNL     1      48.202   3.110   5.710  0.00  0.00    +0.000 HD
ATOM     16  H   UNL     1      48.611   1.548   5.096  0.00  0.00    +0.000 HD
ENDBRANCH   8  12
ENDBRANCH   1   4
BRANCH   1  21
ATOM     17  C   UNL     1      47.060   5.629  13.829  0.00  0.00    +0.000 A 
ATOM     18  C   UNL     1      47.791   6.579  13.100  0.00  0.00    +0.000 A 
ATOM     19  C   UNL     1      47.376   6.980  11.829  0.00  0.00    +0.000 A 
ATOM     20  C   UNL     1      46.214   6.447  11.268  0.00  0.00    +0.000 A 
ATOM     21  C   UNL     1      45.440   5.503  11.962  0.00  0.00    +0.000 A 
ATOM     22  C   UNL     1      45.900   5.103  13.227  0.00  0.00    +0.000 A 
BRANCH  17  26
ATOM     23  C   UNL     1      48.209   4.451  17.741  0.00  0.00    +0.000 A 
ATOM     24  C   UNL     1      47.388   3.595  17.021  0.00  0.00    +0.000 A 
ATOM     25  C   UNL     1      47.021   3.961  15.723  0.00  0.00    +0.000 A 
ATOM     26  C   UNL     1      47.475   5.165  15.168  0.00  0.00    +0.000 A 
ATOM     27  C   UNL     1      48.319   5.927  15.981  0.00  0.00    +0.000 A 
ATOM     28  N   UNL     1      48.688   5.611  17.247  0.00  0.00    +0.000 NA
BRANCH  23  30
ATOM     29  N   UNL     1      48.858   3.925  20.204  0.00  0.00    +0.000 NA
ATOM     30  C   UNL     1      48.581   4.143  19.098  0.00  0.00    +0.000 C 
ENDBRANCH  23  30
ENDBRANCH  17  26
ENDBRANCH   1  21
TORSDOF 5
ENDMDL
MODEL 3
REMARK VINA RESULT:    -7.909      2.411      3.112
REMARK INTER + INTRA:         -11.235
REMARK INTER:                 -10.921
REMARK INTRA:                  -0.315
REMARK UNBOUND:                -1.015
REMARK  Name = 
REMARK  5 active torsions:
REMARK  status: ('A' for Active; 'I' for Inactive)
REMARK    1  A    between atoms: C_2  and  C_3
REMARK    2  A    between atoms: C_6  and  C_7
REMARK    3  A    between atoms: C_11  and  C_12
REMARK    4  A    between atoms: C_12  and  N_13
REMARK    5  A    between atoms: C_17  and  C_18
REMARK                            x       y       z     vdW  Elec       q    Type
REMARK                         _______ _______ _______ _____ _____    ______ ____
ROOT
ATOM      1  C   UNL     1      43.987   5.454  11.130  0.00  0.00    +0.000 C 
ATOM      2  C   UNL     1      42.610   5.184  11.726  0.00  0.00    +0.000 C 
ATOM      3  C   UNL     1      43.753   4.302  12.096  0.00  0.00    +0.000 C 
ENDROOT
BRANCH   1   4
ATOM      4  N   UNL     1      44.172   5.199   9.690  0.00  0.00    +0.000 N 
ATOM      5  C   UNL     1      44.923   4.131   9.179  0.00  0.00    +0.000 A 
ATOM      6  C   UNL     1      44.928   2.861   9.748  0.00  0.00    +0.000 A 
ATOM      7  C   UNL     1      45.623   1.818   9.131  0.00  0.00    +0.000 A 
ATOM      8  C   UNL     1      46.315   2.069   7.953  0.00  0.00    +0.000 A 
ATOM      9  C   UNL     1      46.258   3.356   7.440  0.00  0.00    +0.000 A 
ATOM     10  N   UNL     1      45.585   4.382   8.029  0.00  0.00    +0.000 NA
ATOM     11  H   UNL     1      44.429   6.006   9.122  0.00  0.00    +0.000 HD
BRANCH   8  12
ATOM     12  C   UNL     1      47.067   1.029   7.219  0.00  0.00    +0.000 C 
ATOM     13  N   UNL     1      46.793  -0.277   7.523  0.00  0.00    +0.000 N 
ATOM     14  O   UNL     1      47.918   1.320   6.391  0.00  0.00    +0.000 OA
ATOM     15  H   UNL     1      46.271  -0.559   8.339  0.00  0.00    +0.000 HD
ATOM     16  H   UNL     1      47.375  -0.975   7.076  0.00  0.00    +0.000 HD
ENDBRANCH   8  12
ENDBRANCH   1   4
BRANCH   1  21
ATOM     17  C   UNL     1      46.525   7.713  12.966  0.00  0.00    +0.000 A 
ATOM     18  C   UNL     1      46.053   8.985  12.609  0.00  0.00    +0.000 A 
ATOM     19  C   UNL     1      44.943   9.128  11.773  0.00  0.00    +0.000 A 
ATOM     20  C   UNL     1      44.277   8.000  11.291  0.00  0.00    +0.000 A 
ATOM     21  C   UNL     1      44.701   6.706  11.629  0.00  0.00    +0.000 A 
ATOM     22  C   UNL     1      45.836   6.598  12.451  0.00  0.00    +0.000 A 
BRANCH  17  26
ATOM     23  C   UNL     1      49.945   7.005  15.378  0.00  0.00    +0.000 A 
ATOM     24  C   UNL     1      49.830   8.243  14.762  0.00  0.00    +0.000 A 
ATOM     25  C   UNL     1      48.698   8.497  13.983  0.00  0.00    +0.000 A 
ATOM     26  C   UNL     1      47.705   7.519  13.832  0.00  0.00    +0.000 A 
ATOM     27  C   UNL     1      47.920   6.324  14.525  0.00  0.00    +0.000 A 
ATOM     28  N   UNL     1      49.009   6.038  15.280  0.00  0.00    +0.000 NA
BRANCH  23  30
ATOM     29  N   UNL     1      52.047   6.374  16.772  0.00  0.00    +0.000 NA
ATOM     30  C   UNL     1      51.112   6.677  16.155  0.00  0.00    +0.000 C 
ENDBRANCH  23  30
ENDBRANCH  17  26
ENDBRANCH   1  21
TORSDOF 5
ENDMDL
MODEL 4
REMARK VINA RESULT:    -6.964      1.782      2.447
REMARK INTER + INTRA:         -10.015
REMARK INTER:                 -10.027
REMARK INTRA:                   0.012
REMARK UNBOUND:                -1.015
REMARK  Name = 
REMARK  5 active torsions:
REMARK  status: ('A' for Active; 'I' for Inactive)
REMARK    1  A    between atoms: C_2  and  C_3
REMARK    2  A    between atoms: C_6  and  C_7
REMARK    3  A    between atoms: C_11  and  C_12
REMARK    4  A    between atoms: C_12  and  N_13
REMARK    5  A    between atoms: C_17  and  C_18
REMARK                            x       y       z     vdW  Elec       q    Type
REMARK                         _______ _______ _______ _____ _____    ______ ____
ROOT
ATOM      1  C   UNL     1      44.470   5.772  11.065  0.00  0.00    +0.000 C 
ATOM      2  C   UNL     1      43.155   5.398  11.740  0.00  0.00    +0.000 C 
ATOM      3  C   UNL     1      44.396   4.648  12.087  0.00  0.00    +0.000 C 
ENDROOT
BRANCH   1   4
ATOM      4  N   UNL     1      44.613   5.472   9.629  0.00  0.00    +0.000 N 
ATOM      5  C   UNL     1      45.231   4.315   9.134  0.00  0.00    +0.000 A 
ATOM      6  C   UNL     1      45.093   3.063   9.727  0.00  0.00    +0.000 A 
ATOM      7  C   UNL     1      45.658   1.936   9.126  0.00  0.00    +0.000 A 
ATOM      8  C   UNL     1      46.365   2.084   7.938  0.00  0.00    +0.000 A 
ATOM      9  C   UNL     1      46.453   3.359   7.402  0.00  0.00    +0.000 A 
ATOM     10  N   UNL     1      45.908   4.466   7.975  0.00  0.00    +0.000 NA
ATOM     11  H   UNL     1      44.956   6.233   9.045  0.00  0.00    +0.000 HD
BRANCH   8  12
ATOM     12  C   UNL     1      46.985   0.950   7.220  0.00  0.00    +0.000 C 
ATOM     13  N   UNL     1      46.667  -0.312   7.642  0.00  0.00    +0.000 N 
ATOM     14  O   UNL     1      47.771   1.129   6.301  0.00  0.00    +0.000 OA
ATOM     15  H   UNL     1      46.207  -0.504   8.519  0.00  0.00    +0.000 HD
ATOM     16  H   UNL     1      47.165  -1.074   7.199  0.00  0.00    +0.000 HD
ENDBRANCH   8  12
ENDBRANCH   1   4
BRANCH   1  21
ATOM     17  C   UNL     1      47.074   8.410  12.150  0.00  0.00    +0.000 A 
ATOM     18  C   UNL     1      46.263   9.548  12.269  0.00  0.00    +0.000 A 
ATOM     19  C   UNL     1      44.897   9.486  11.988  0.00  0.00    +0.000 A 
ATOM     20  C   UNL     1      44.314   8.280  11.598  0.00  0.00    +0.000 A 
ATOM     21  C   UNL     1      45.079   7.109  11.477  0.00  0.00    +0.000 A 
ATOM     22  C   UNL     1      46.455   7.213  11.741  0.00  0.00    +0.000 A 
BRANCH  17  26
ATOM     23  C   UNL     1      51.217   8.402  13.070  0.00  0.00    +0.000 A 
ATOM     24  C   UNL     1      50.837   8.034  11.787  0.00  0.00    +0.000 A 
ATOM     25  C   UNL     1      49.477   8.054  11.465  0.00  0.00    +0.000 A 
ATOM     26  C   UNL     1      48.525   8.438  12.420  0.00  0.00    +0.000 A 
ATOM     27  C   UNL     1      49.035   8.815  13.666  0.00  0.00    +0.000 A 
ATOM     28  N   UNL     1      50.344   8.798  14.019  0.00  0.00    +0.000 NA
BRANCH  23  30
ATOM     29  N   UNL     1      53.704   8.314  13.824  0.00  0.00    +0.000 NA
ATOM     30  C   UNL     1      52.601   8.357  13.467  0.00  0.00    +0.000 C 
ENDBRANCH  23  30
ENDBRANCH  17  26
ENDBRANCH   1  21
TORSDOF 5
ENDMDL
MODEL 5
REMARK VINA RESULT:    -6.943      5.221      8.734
REMARK INTER + INTRA:          -9.987
REMARK INTER:                  -9.046
REMARK INTRA:                  -0.941
REMARK UNBOUND:                -1.015
REMARK  Name = 
REMARK  5 active torsions:
REMARK  status: ('A' for Active; 'I' for Inactive)
REMARK    1  A    between atoms: C_2  and  C_3
REMARK    2  A    between atoms: C_6  and  C_7
REMARK    3  A    between atoms: C_11  and  C_12
REMARK    4  A    between atoms: C_12  and  N_13
REMARK    5  A    between atoms: C_17  and  C_18
REMARK                            x       y       z     vdW  Elec       q    Type
REMARK                         _______ _______ _______ _____ _____    ______ ____
ROOT
ATOM      1  C   UNL     1      49.435   7.327  17.081  0.00  0.00    +0.000 C 
ATOM      2  C   UNL     1      48.928   8.601  17.746  0.00  0.00    +0.000 C 
ATOM      3  C   UNL     1      50.394   8.336  17.694  0.00  0.00    +0.000 C 
ENDROOT
BRANCH   1   4
ATOM      4  N   UNL     1      49.160   6.046  17.757  0.00  0.00    +0.000 N 
ATOM      5  C   UNL     1      49.988   4.918  17.652  0.00  0.00    +0.000 A 
ATOM      6  C   UNL     1      51.377   4.992  17.622  0.00  0.00    +0.000 A 
ATOM      7  C   UNL     1      52.141   3.823  17.614  0.00  0.00    +0.000 A 
ATOM      8  C   UNL     1      51.497   2.591  17.625  0.00  0.00    +0.000 A 
ATOM      9  C   UNL     1      50.111   2.596  17.664  0.00  0.00    +0.000 A 
ATOM     10  N   UNL     1      49.353   3.726  17.673  0.00  0.00    +0.000 NA
ATOM     11  H   UNL     1      48.209   5.692  17.675  0.00  0.00    +0.000 HD
BRANCH   8  12
ATOM     12  C   UNL     1      52.218   1.301  17.634  0.00  0.00    +0.000 C 
ATOM     13  N   UNL     1      51.546   0.208  18.109  0.00  0.00    +0.000 N 
ATOM     14  O   UNL     1      53.377   1.214  17.256  0.00  0.00    +0.000 OA
ATOM     15  H   UNL     1      50.683   0.269  18.628  0.00  0.00    +0.000 HD
ATOM     16  H   UNL     1      52.079  -0.649  18.189  0.00  0.00    +0.000 HD
ENDBRANCH   8  12
ENDBRANCH   1   4
BRANCH   1  21
ATOM     17  C   UNL     1      48.127   6.359  13.579  0.00  0.00    +0.000 A 
ATOM     18  C   UNL     1      49.010   7.077  12.759  0.00  0.00    +0.000 A 
ATOM     19  C   UNL     1      50.008   7.881  13.314  0.00  0.00    +0.000 A 
ATOM     20  C   UNL     1      50.148   7.971  14.700  0.00  0.00    +0.000 A 
ATOM     21  C   UNL     1      49.299   7.262  15.563  0.00  0.00    +0.000 A 
ATOM     22  C   UNL     1      48.291   6.482  14.972  0.00  0.00    +0.000 A 
BRANCH  17  26
ATOM     23  C   UNL     1      44.960   3.912  12.165  0.00  0.00    +0.000 A 
ATOM     24  C   UNL     1      45.236   5.082  11.471  0.00  0.00    +0.000 A 
ATOM     25  C   UNL     1      46.291   5.885  11.913  0.00  0.00    +0.000 A 
ATOM     26  C   UNL     1      47.048   5.512  13.031  0.00  0.00    +0.000 A 
ATOM     27  C   UNL     1      46.693   4.298  13.628  0.00  0.00    +0.000 A 
ATOM     28  N   UNL     1      45.671   3.499  13.234  0.00  0.00    +0.000 NA
BRANCH  23  30
ATOM     29  N   UNL     1      42.979   2.368  11.494  0.00  0.00    +0.000 NA
ATOM     30  C   UNL     1      43.857   3.072  11.777  0.00  0.00    +0.000 C 
ENDBRANCH  23  30
ENDBRANCH  17  26
ENDBRANCH   1  21
TORSDOF 5
ENDMDL
MODEL 6
REMARK VINA RESULT:    -6.489      3.208      7.168
REMARK INTER + INTRA:          -9.401
REMARK INTER:                  -9.566
REMARK INTRA:                   0.165
REMARK UNBOUND:                -1.015
REMARK  Name = 
REMARK  5 active torsions:
REMARK  status: ('A' for Active; 'I' for Inactive)
REMARK    1  A    between atoms: C_2  and  C_3
REMARK    2  A    between atoms: C_6  and  C_7
REMARK    3  A    between atoms: C_11  and  C_12
REMARK    4  A    between atoms: C_12  and  N_13
REMARK    5  A    between atoms: C_17  and  C_18
REMARK                            x       y       z     vdW  Elec       q    Type
REMARK                         _______ _______ _______ _____ _____    ______ ____
ROOT
ATOM      1  C   UNL     1      45.948   7.822  12.426  0.00  0.00    +0.000 C 
ATOM      2  C   UNL     1      45.141   8.926  13.098  0.00  0.00    +0.000 C 
ATOM      3  C   UNL     1      45.826   9.205  11.803  0.00  0.00    +0.000 C 
ENDROOT
BRANCH   1   4
ATOM      4  N   UNL     1      47.202   7.398  13.073  0.00  0.00    +0.000 N 
ATOM      5  C   UNL     1      47.283   6.345  13.997  0.00  0.00    +0.000 A 
ATOM      6  C   UNL     1      46.551   5.168  13.877  0.00  0.00    +0.000 A 
ATOM      7  C   UNL     1      46.754   4.122  14.780  0.00  0.00    +0.000 A 
ATOM      8  C   UNL     1      47.684   4.278  15.801  0.00  0.00    +0.000 A 
ATOM      9  C   UNL     1      48.382   5.475  15.852  0.00  0.00    +0.000 A 
ATOM     10  N   UNL     1      48.196   6.502  14.980  0.00  0.00    +0.000 NA
ATOM     11  H   UNL     1      47.780   8.142  13.460  0.00  0.00    +0.000 HD
BRANCH   8  12
ATOM     12  C   UNL     1      47.979   3.224  16.795  0.00  0.00    +0.000 C 
ATOM     13  N   UNL     1      46.969   2.857  17.642  0.00  0.00    +0.000 N 
ATOM     14  O   UNL     1      49.088   2.715  16.877  0.00  0.00    +0.000 OA
ATOM     15  H   UNL     1      46.121   3.392  17.759  0.00  0.00    +0.000 HD
ATOM     16  H   UNL     1      47.210   2.198  18.372  0.00  0.00    +0.000 HD
ENDBRANCH   8  12
ENDBRANCH   1   4
BRANCH   1  21
ATOM     17  C   UNL     1      44.964   4.850  10.164  0.00  0.00    +0.000 A 
ATOM     18  C   UNL     1      43.693   4.540  10.672  0.00  0.00    +0.000 A 
ATOM     19  C   UNL     1      43.156   5.259  11.741  0.00  0.00    +0.000 A 
ATOM     20  C   UNL     1      43.874   6.311  12.313  0.00  0.00    +0.000 A 
ATOM     21  C   UNL     1      45.143   6.669  11.832  0.00  0.00    +0.000 A 
ATOM     22  C   UNL     1      45.665   5.909  10.773  0.00  0.00    +0.000 A 
BRANCH  17  26
ATOM     23  C   UNL     1      46.867   2.788   6.980  0.00  0.00    +0.000 A 
ATOM     24  C   UNL     1      46.168   2.036   7.913  0.00  0.00    +0.000 A 
ATOM     25  C   UNL     1      45.518   2.705   8.954  0.00  0.00    +0.000 A 
ATOM     26  C   UNL     1      45.575   4.103   9.047  0.00  0.00    +0.000 A 
ATOM     27  C   UNL     1      46.285   4.749   8.030  0.00  0.00    +0.000 A 
ATOM     28  N   UNL     1      46.936   4.135   7.013  0.00  0.00    +0.000 NA
BRANCH  23  30
ATOM     29  N   UNL     1      48.164   1.658   5.030  0.00  0.00    +0.000 NA
ATOM     30  C   UNL     1      47.590   2.145   5.913  0.00  0.00    +0.000 C 
ENDBRANCH  23  30
ENDBRANCH  17  26
ENDBRANCH   1  21
TORSDOF 5
ENDMDL
MODEL 7
REMARK VINA RESULT:    -6.301      2.999      7.217
REMARK INTER + INTRA:          -9.158
REMARK INTER:                  -8.740
REMARK INTRA:                  -0.417
REMARK UNBOUND:                -1.015
REMARK  Name = 
REMARK  5 active torsions:
REMARK  status: ('A' for Active; 'I' for Inactive)
REMARK    1  A    between atoms: C_2  and  C_3
REMARK    2  A    between atoms: C_6  and  C_7
REMARK    3  A    between atoms: C_11  and  C_12
REMARK    4  A    between atoms: C_12  and  N_13
REMARK    5  A    between atoms: C_17  and  C_18
REMARK                            x       y       z     vdW  Elec       q    Type
REMARK                         _______ _______ _______ _____ _____    ______ ____
ROOT
ATOM      1  C   UNL     1      45.109   8.173  12.184  0.00  0.00    +0.000 C 
ATOM      2  C   UNL     1      44.144   9.352  12.168  0.00  0.00    +0.000 C 
ATOM      3  C   UNL     1      45.217   9.271  11.137  0.00  0.00    +0.000 C 
ENDROOT
BRANCH   1   4
ATOM      4  N   UNL     1      46.078   8.095  13.292  0.00  0.00    +0.000 N 
ATOM      5  C   UNL     1      47.469   8.136  13.114  0.00  0.00    +0.000 A 
ATOM      6  C   UNL     1      48.094   8.953  12.177  0.00  0.00    +0.000 A 
ATOM      7  C   UNL     1      49.488   9.015  12.120  0.00  0.00    +0.000 A 
ATOM      8  C   UNL     1      50.238   8.244  13.000  0.00  0.00    +0.000 A 
ATOM      9  C   UNL     1      49.546   7.460  13.911  0.00  0.00    +0.000 A 
ATOM     10  N   UNL     1      48.189   7.390  13.980  0.00  0.00    +0.000 NA
ATOM     11  H   UNL     1      45.915   7.360  13.978  0.00  0.00    +0.000 HD
BRANCH   8  12
ATOM     12  C   UNL     1      51.716   8.253  13.026  0.00  0.00    +0.000 C 
ATOM     13  N   UNL     1      52.368   7.853  11.892  0.00  0.00    +0.000 N 
ATOM     14  O   UNL     1      52.335   8.580  14.029  0.00  0.00    +0.000 OA
ATOM     15  H   UNL     1      51.912   7.372  11.131  0.00  0.00    +0.000 HD
ATOM     16  H   UNL     1      53.376   7.781  11.953  0.00  0.00    +0.000 HD
ENDBRANCH   8  12
ENDBRANCH   1   4
BRANCH   1  21
ATOM     17  C   UNL     1      44.633   4.810  10.345  0.00  0.00    +0.000 A 
ATOM     18  C   UNL     1      43.477   4.325  10.977  0.00  0.00    +0.000 A 
ATOM     19  C   UNL     1      42.860   5.053  11.995  0.00  0.00    +0.000 A 
ATOM     20  C   UNL     1      43.379   6.287  12.392  0.00  0.00    +0.000 A 
ATOM     21  C   UNL     1      44.524   6.822  11.783  0.00  0.00    +0.000 A 
ATOM     22  C   UNL     1      45.136   6.052  10.780  0.00  0.00    +0.000 A 
BRANCH  17  26
ATOM     23  C   UNL     1      46.767   2.755   7.307  0.00  0.00    +0.000 A 
ATOM     24  C   UNL     1      46.051   1.997   8.223  0.00  0.00    +0.000 A 
ATOM     25  C   UNL     1      45.326   2.663   9.215  0.00  0.00    +0.000 A 
ATOM     26  C   UNL     1      45.326   4.063   9.277  0.00  0.00    +0.000 A 
ATOM     27  C   UNL     1      46.061   4.714   8.282  0.00  0.00    +0.000 A 
ATOM     28  N   UNL     1      46.784   4.104   7.311  0.00  0.00    +0.000 NA
BRANCH  23  30
ATOM     29  N   UNL     1      48.218   1.641   5.459  0.00  0.00    +0.000 NA
ATOM     30  C   UNL     1      47.566   2.118   6.292  0.00  0.00    +0.000 C 
ENDBRANCH  23  30
ENDBRANCH  17  26
ENDBRANCH   1  21
TORSDOF 5
ENDMDL
