MODEL 1
REMARK VINA RESULT:    -9.110      0.000      0.000
REMARK INTER + INTRA:         -12.086
REMARK INTER:                 -11.240
REMARK INTRA:                  -0.846
REMARK UNBOUND:                -0.846
REMARK  Name = 
REMARK  4 active torsions:
REMARK  status: ('A' for Active; 'I' for Inactive)
REMARK    1  A    between atoms: C_2  and  C_4
REMARK    2  A    between atoms: N_8  and  C_9
REMARK    3  A    between atoms: C_9  and  C_10
REMARK    4  A    between atoms: C_15  and  C_16
REMARK                            x       y       z     vdW  Elec       q    Type
REMARK                         _______ _______ _______ _____ _____    ______ ____
ROOT
ATOM      1  C   UNL     1      43.462   4.851  10.992  0.00  0.00    +0.000 C 
ENDROOT
BRANCH   1   6
ATOM      2  C   UNL     1      46.344   2.262   7.615  0.00  0.00    +0.000 A 
ATOM      3  C   UNL     1      45.689   1.791   8.749  0.00  0.00    +0.000 A 
ATOM      4  C   UNL     1      44.842   2.649   9.450  0.00  0.00    +0.000 A 
ATOM      5  C   UNL     1      44.673   3.960   9.018  0.00  0.00    +0.000 A 
ATOM      6  N   UNL     1      43.782   4.842   9.582  0.00  0.00    +0.000 N 
ATOM      7  N   UNL     1      45.324   4.433   7.935  0.00  0.00    +0.000 NA
ATOM      8  C   UNL     1      46.148   3.586   7.263  0.00  0.00    +0.000 A 
ATOM      9  H   UNL     1      43.916   5.748   9.146  0.00  0.00    +0.000 HD
BRANCH   2  11
ATOM     10  N   UNL     1      48.256   2.020   6.142  0.00  0.00    +0.000 N 
ATOM     11  C   UNL     1      47.213   1.408   6.782  0.00  0.00    +0.000 C 
ATOM     12  O   UNL     1      47.036   0.201   6.700  0.00  0.00    +0.000 OA
ATOM     13  H   UNL     1      48.911   1.410   5.668  0.00  0.00    +0.000 HD
ATOM     14  H   UNL     1      48.584   2.941   6.396  0.00  0.00    +0.000 HD
ENDBRANCH   2  11
ENDBRANCH   1   6
BRANCH   1  15
ATOM     15  C   UNL     1      44.671   5.111  11.861  0.00  0.00    +0.000 A 
ATOM     16  C   UNL     1      44.952   4.288  12.955  0.00  0.00    +0.000 A 
ATOM     17  C   UNL     1      46.009   4.599  13.807  0.00  0.00    +0.000 A 
ATOM     18  C   UNL     1      46.788   5.732  13.569  0.00  0.00    +0.000 A 
ATOM     19  F   UNL     1      47.756   6.008  14.456  0.00  0.00    +0.000 F 
ATOM     20  C   UNL     1      46.564   6.578  12.469  0.00  0.00    +0.000 A 
ATOM     21  C   UNL     1      45.493   6.231  11.619  0.00  0.00    +0.000 A 
BRANCH  20  22
ATOM     22  C   UNL     1      47.386   7.784  12.216  0.00  0.00    +0.000 A 
ATOM     23  C   UNL     1      46.917   9.083  12.459  0.00  0.00    +0.000 A 
ATOM     24  N   UNL     1      47.620  10.228  12.244  0.00  0.00    +0.000 NA
ATOM     25  C   UNL     1      48.873  10.084  11.763  0.00  0.00    +0.000 A 
ATOM     26  C   UNL     1      49.440   8.855  11.492  0.00  0.00    +0.000 A 
ATOM     27  F   UNL     1      50.690   8.768  11.020  0.00  0.00    +0.000 F 
ATOM     28  C   UNL     1      48.696   7.702  11.713  0.00  0.00    +0.000 A 
ENDBRANCH  20  22
ENDBRANCH   1  15
TORSDOF 4
ENDMDL
MODEL 2
REMARK VINA RESULT:    -8.891      2.212      3.946
REMARK INTER + INTRA:         -11.816
REMARK INTER:                 -11.024
REMARK INTRA:                  -0.791
REMARK UNBOUND:                -0.846
REMARK  Name = 
REMARK  4 active torsions:
REMARK  status: ('A' for Active; 'I' for Inactive)
REMARK    1  A    between atoms: C_2  and  C_4
REMARK    2  A    between atoms: N_8  and  C_9
REMARK    3  A    between atoms: C_9  and  C_10
REMARK    4  A    between atoms: C_15  and  C_16
REMARK                            x       y       z     vdW  Elec       q    Type
REMARK                         _______ _______ _______ _____ _____    ______ ____
ROOT
ATOM      1  C   UNL     1      43.564   4.879  11.068  0.00  0.00    +0.000 C 
ENDROOT
BRANCH   1   6
ATOM      2  C   UNL     1      46.399   2.294   7.649  0.00  0.00    +0.000 A 
ATOM      3  C   UNL     1      45.763   1.823   8.793  0.00  0.00    +0.000 A 
ATOM      4  C   UNL     1      44.925   2.679   9.506  0.00  0.00    +0.000 A 
ATOM      5  C   UNL     1      44.746   3.990   9.076  0.00  0.00    +0.000 A 
ATOM      6  N   UNL     1      43.861   4.869   9.653  0.00  0.00    +0.000 N 
ATOM      7  N   UNL     1      45.379   4.463   7.983  0.00  0.00    +0.000 NA
ATOM      8  C   UNL     1      46.195   3.618   7.298  0.00  0.00    +0.000 A 
ATOM      9  H   UNL     1      43.988   5.776   9.215  0.00  0.00    +0.000 HD
BRANCH   2  11
ATOM     10  N   UNL     1      48.282   2.057   6.138  0.00  0.00    +0.000 N 
ATOM     11  C   UNL     1      47.257   1.441   6.803  0.00  0.00    +0.000 C 
ATOM     12  O   UNL     1      47.088   0.233   6.731  0.00  0.00    +0.000 OA
ATOM     13  H   UNL     1      48.931   1.450   5.655  0.00  0.00    +0.000 HD
ATOM     14  H   UNL     1      48.609   2.982   6.380  0.00  0.00    +0.000 HD
ENDBRANCH   2  11
ENDBRANCH   1   6
BRANCH   1  15
ATOM     15  C   UNL     1      44.661   5.516  11.889  0.00  0.00    +0.000 A 
ATOM     16  C   UNL     1      45.143   6.788  11.570  0.00  0.00    +0.000 A 
ATOM     17  C   UNL     1      46.224   7.320  12.269  0.00  0.00    +0.000 A 
ATOM     18  C   UNL     1      46.824   6.583  13.291  0.00  0.00    +0.000 A 
ATOM     19  F   UNL     1      47.895   7.126  13.891  0.00  0.00    +0.000 F 
ATOM     20  C   UNL     1      46.363   5.311  13.670  0.00  0.00    +0.000 A 
ATOM     21  C   UNL     1      45.261   4.804  12.948  0.00  0.00    +0.000 A 
BRANCH  20  22
ATOM     22  C   UNL     1      47.001   4.524  14.750  0.00  0.00    +0.000 A 
ATOM     23  C   UNL     1      47.475   3.219  14.556  0.00  0.00    +0.000 A 
ATOM     24  N   UNL     1      48.066   2.445  15.506  0.00  0.00    +0.000 NA
ATOM     25  C   UNL     1      48.205   2.996  16.730  0.00  0.00    +0.000 A 
ATOM     26  C   UNL     1      47.781   4.274  17.034  0.00  0.00    +0.000 A 
ATOM     27  F   UNL     1      47.947   4.775  18.265  0.00  0.00    +0.000 F 
ATOM     28  C   UNL     1      47.172   5.039  16.046  0.00  0.00    +0.000 A 
ENDBRANCH  20  22
ENDBRANCH   1  15
TORSDOF 4
ENDMDL
MODEL 3
REMARK VINA RESULT:    -8.272      1.931      2.500
REMARK INTER + INTRA:         -11.053
REMARK INTER:                 -10.575
REMARK INTRA:                  -0.478
REMARK UNBOUND:                -0.846
REMARK  Name = 
REMARK  4 active torsions:
REMARK  status: ('A' for Active; 'I' for Inactive)
REMARK    1  A    between atoms: C_2  and  C_4
REMARK    2  A    between atoms: N_8  and  C_9
REMARK    3  A    between atoms: C_9  and  C_10
REMARK    4  A    between atoms: C_15  and  C_16
REMARK                            x       y       z     vdW  Elec       q    Type
REMARK                         _______ _______ _______ _____ _____    ______ ____
ROOT
ATOM      1  C   UNL     1      43.407   3.375  11.072  0.00  0.00    +0.000 C 
ENDROOT
BRANCH   1   6
ATOM      2  C   UNL     1      46.621   2.490   7.161  0.00  0.00    +0.000 A 
ATOM      3  C   UNL     1      46.039   3.688   7.561  0.00  0.00    +0.000 A 
ATOM      4  C   UNL     1      45.302   3.724   8.744  0.00  0.00    +0.000 A 
ATOM      5  C   UNL     1      45.147   2.566   9.498  0.00  0.00    +0.000 A 
ATOM      6  N   UNL     1      44.529   2.531  10.726  0.00  0.00    +0.000 N 
ATOM      7  N   UNL     1      45.685   1.394   9.105  0.00  0.00    +0.000 NA
ATOM      8  C   UNL     1      46.400   1.373   7.949  0.00  0.00    +0.000 A 
ATOM      9  H   UNL     1      44.468   1.562  11.020  0.00  0.00    +0.000 HD
BRANCH   2  11
ATOM     10  N   UNL     1      47.314   3.339   4.997  0.00  0.00    +0.000 N 
ATOM     11  C   UNL     1      47.464   2.374   5.954  0.00  0.00    +0.000 C 
ATOM     12  O   UNL     1      48.289   1.480   5.833  0.00  0.00    +0.000 OA
ATOM     13  H   UNL     1      47.974   3.316   4.230  0.00  0.00    +0.000 HD
ATOM     14  H   UNL     1      46.849   4.218   5.179  0.00  0.00    +0.000 HD
ENDBRANCH   2  11
ENDBRANCH   1   6
BRANCH   1  15
ATOM     15  C   UNL     1      43.822   4.794  11.385  0.00  0.00    +0.000 A 
ATOM     16  C   UNL     1      42.948   5.860  11.149  0.00  0.00    +0.000 A 
ATOM     17  C   UNL     1      43.379   7.170  11.344  0.00  0.00    +0.000 A 
ATOM     18  C   UNL     1      44.682   7.419  11.776  0.00  0.00    +0.000 A 
ATOM     19  F   UNL     1      45.054   8.703  11.894  0.00  0.00    +0.000 F 
ATOM     20  C   UNL     1      45.591   6.384  12.053  0.00  0.00    +0.000 A 
ATOM     21  C   UNL     1      45.122   5.068  11.855  0.00  0.00    +0.000 A 
BRANCH  20  22
ATOM     22  C   UNL     1      46.976   6.645  12.508  0.00  0.00    +0.000 A 
ATOM     23  C   UNL     1      47.437   6.275  13.781  0.00  0.00    +0.000 A 
ATOM     24  N   UNL     1      48.693   6.489  14.257  0.00  0.00    +0.000 NA
ATOM     25  C   UNL     1      49.557   7.103  13.423  0.00  0.00    +0.000 A 
ATOM     26  C   UNL     1      49.216   7.506  12.147  0.00  0.00    +0.000 A 
ATOM     27  F   UNL     1      50.114   8.108  11.357  0.00  0.00    +0.000 F 
ATOM     28  C   UNL     1      47.923   7.283  11.689  0.00  0.00    +0.000 A 
ENDBRANCH  20  22
ENDBRANCH   1  15
TORSDOF 4
ENDMDL
MODEL 4
REMARK VINA RESULT:    -7.692      3.951      7.362
REMARK INTER + INTRA:         -10.337
REMARK INTER:                 -10.022
REMARK INTRA:                  -0.315
REMARK UNBOUND:                -0.846
REMARK  Name = 
REMARK  4 active torsions:
REMARK  status: ('A' for Active; 'I' for Inactive)
REMARK    1  A    between atoms: C_2  and  C_4
REMARK    2  A    between atoms: N_8  and  C_9
REMARK    3  A    between atoms: C_9  and  C_10
REMARK    4  A    between atoms: C_15  and  C_16
REMARK                            x       y       z     vdW  Elec       q    Type
REMARK                         _______ _______ _______ _____ _____    ______ ____
ROOT
ATOM      1  C   UNL     1      44.982   6.649  11.332  0.00  0.00    +0.000 C 
ENDROOT
BRANCH   1   6
ATOM      2  C   UNL     1      47.871   5.377  15.388  0.00  0.00    +0.000 A 
ATOM      3  C   UNL     1      46.784   4.702  14.841  0.00  0.00    +0.000 A 
ATOM      4  C   UNL     1      46.231   5.160  13.646  0.00  0.00    +0.000 A 
ATOM      5  C   UNL     1      46.759   6.287  13.026  0.00  0.00    +0.000 A 
ATOM      6  N   UNL     1      46.348   6.746  11.797  0.00  0.00    +0.000 N 
ATOM      7  N   UNL     1      47.796   6.963  13.562  0.00  0.00    +0.000 NA
ATOM      8  C   UNL     1      48.324   6.507  14.728  0.00  0.00    +0.000 A 
ATOM      9  H   UNL     1      46.823   7.624  11.614  0.00  0.00    +0.000 HD
BRANCH   2  11
ATOM     10  N   UNL     1      47.774   4.731  17.724  0.00  0.00    +0.000 N 
ATOM     11  C   UNL     1      48.553   4.930  16.618  0.00  0.00    +0.000 C 
ATOM     12  O   UNL     1      49.755   4.706  16.638  0.00  0.00    +0.000 OA
ATOM     13  H   UNL     1      48.231   4.316  18.526  0.00  0.00    +0.000 HD
ATOM     14  H   UNL     1      46.768   4.647  17.672  0.00  0.00    +0.000 HD
ENDBRANCH   2  11
ENDBRANCH   1   6
BRANCH   1  15
ATOM     15  C   UNL     1      44.627   5.261  10.853  0.00  0.00    +0.000 A 
ATOM     16  C   UNL     1      43.670   4.497  11.529  0.00  0.00    +0.000 A 
ATOM     17  C   UNL     1      43.427   3.182  11.140  0.00  0.00    +0.000 A 
ATOM     18  C   UNL     1      44.138   2.627  10.075  0.00  0.00    +0.000 A 
ATOM     19  F   UNL     1      43.898   1.339   9.783  0.00  0.00    +0.000 F 
ATOM     20  C   UNL     1      45.091   3.358   9.346  0.00  0.00    +0.000 A 
ATOM     21  C   UNL     1      45.308   4.690   9.758  0.00  0.00    +0.000 A 
BRANCH  20  22
ATOM     22  C   UNL     1      45.850   2.771   8.218  0.00  0.00    +0.000 A 
ATOM     23  C   UNL     1      46.361   1.465   8.249  0.00  0.00    +0.000 A 
ATOM     24  N   UNL     1      47.066   0.870   7.249  0.00  0.00    +0.000 NA
ATOM     25  C   UNL     1      47.279   1.610   6.141  0.00  0.00    +0.000 A 
ATOM     26  C   UNL     1      46.819   2.903   5.997  0.00  0.00    +0.000 A 
ATOM     27  F   UNL     1      47.054   3.591   4.873  0.00  0.00    +0.000 F 
ATOM     28  C   UNL     1      46.108   3.488   7.038  0.00  0.00    +0.000 A 
ENDBRANCH  20  22
ENDBRANCH   1  15
TORSDOF 4
ENDMDL
MODEL 5
REMARK VINA RESULT:    -7.398      3.838      6.917
REMARK INTER + INTRA:          -9.974
REMARK INTER:                  -9.472
REMARK INTRA:                  -0.503
REMARK UNBOUND:                -0.846
REMARK  Name = 
REMARK  4 active torsions:
REMARK  status: ('A' for Active; 'I' for Inactive)
REMARK    1  A    between atoms: C_2  and  C_4
REMARK    2  A    between atoms: N_8  and  C_9
REMARK    3  A    between atoms: C_9  and  C_10
REMARK    4  A    between atoms: C_15  and  C_16
REMARK                            x       y       z     vdW  Elec       q    Type
REMARK                         _______ _______ _______ _____ _____    ______ ____
ROOT
ATOM      1  C   UNL     1      44.570   6.398  12.533  0.00  0.00    +0.000 C 
ENDROOT
BRANCH   1   6
ATOM      2  C   UNL     1      49.452   7.963  12.167  0.00  0.00    +0.000 A 
ATOM      3  C   UNL     1      48.299   8.572  11.682  0.00  0.00    +0.000 A 
ATOM      4  C   UNL     1      47.055   8.039  12.018  0.00  0.00    +0.000 A 
ATOM      5  C   UNL     1      46.983   6.904  12.819  0.00  0.00    +0.000 A 
ATOM      6  N   UNL     1      45.804   6.373  13.287  0.00  0.00    +0.000 N 
ATOM      7  N   UNL     1      48.095   6.292  13.274  0.00  0.00    +0.000 NA
ATOM      8  C   UNL     1      49.301   6.822  12.936  0.00  0.00    +0.000 A 
ATOM      9  H   UNL     1      46.018   5.506  13.768  0.00  0.00    +0.000 HD
BRANCH   2  11
ATOM     10  N   UNL     1      51.730   7.616  11.412  0.00  0.00    +0.000 N 
ATOM     11  C   UNL     1      50.805   8.493  11.908  0.00  0.00    +0.000 C 
ATOM     12  O   UNL     1      51.078   9.671  12.088  0.00  0.00    +0.000 OA
ATOM     13  H   UNL     1      52.618   8.013  11.130  0.00  0.00    +0.000 HD
ATOM     14  H   UNL     1      51.474   6.726  11.007  0.00  0.00    +0.000 HD
ENDBRANCH   2  11
ENDBRANCH   1   6
BRANCH   1  15
ATOM     15  C   UNL     1      44.300   5.096  11.815  0.00  0.00    +0.000 A 
ATOM     16  C   UNL     1      43.428   4.149  12.361  0.00  0.00    +0.000 A 
ATOM     17  C   UNL     1      43.267   2.912  11.742  0.00  0.00    +0.000 A 
ATOM     18  C   UNL     1      43.976   2.617  10.577  0.00  0.00    +0.000 A 
ATOM     19  F   UNL     1      43.821   1.389  10.059  0.00  0.00    +0.000 F 
ATOM     20  C   UNL     1      44.845   3.542   9.973  0.00  0.00    +0.000 A 
ATOM     21  C   UNL     1      44.979   4.789  10.618  0.00  0.00    +0.000 A 
BRANCH  20  22
ATOM     22  C   UNL     1      45.602   3.231   8.738  0.00  0.00    +0.000 A 
ATOM     23  C   UNL     1      45.959   4.213   7.803  0.00  0.00    +0.000 A 
ATOM     24  N   UNL     1      46.650   3.991   6.652  0.00  0.00    +0.000 NA
ATOM     25  C   UNL     1      47.019   2.716   6.408  0.00  0.00    +0.000 A 
ATOM     26  C   UNL     1      46.728   1.670   7.260  0.00  0.00    +0.000 A 
ATOM     27  F   UNL     1      47.123   0.424   6.972  0.00  0.00    +0.000 F 
ATOM     28  C   UNL     1      46.014   1.924   8.425  0.00  0.00    +0.000 A 
ENDBRANCH  20  22
ENDBRANCH   1  15
TORSDOF 4
ENDMDL
MODEL 6
REMARK VINA RESULT:    -7.195      3.724      7.225
REMARK INTER + INTRA:          -9.723
REMARK INTER:                  -9.325
REMARK INTRA:                  -0.398
REMARK UNBOUND:                -0.846
REMARK  Name = 
REMARK  4 active torsions:
REMARK  status: ('A' for Active; 'I' for Inactive)
REMARK    1  A    between atoms: C_2  and  C_4
REMARK    2  A    between atoms: N_8  and  C_9
REMARK    3  A    between atoms: C_9  and  C_10
REMARK    4  A    between atoms: C_15  and  C_16
REMARK                            x       y       z     vdW  Elec       q    Type
REMARK                         _______ _______ _______ _____ _____    ______ ____
ROOT
ATOM      1  C   UNL     1      44.908   7.587  12.185  0.00  0.00    +0.000 C 
ENDROOT
BRANCH   1   6
ATOM      2  C   UNL     1      49.935   8.261  13.019  0.00  0.00    +0.000 A 
ATOM      3  C   UNL     1      49.106   8.901  12.103  0.00  0.00    +0.000 A 
ATOM      4  C   UNL     1      47.734   8.659  12.143  0.00  0.00    +0.000 A 
ATOM      5  C   UNL     1      47.214   7.777  13.084  0.00  0.00    +0.000 A 
ATOM      6  N   UNL     1      45.869   7.559  13.266  0.00  0.00    +0.000 N 
ATOM      7  N   UNL     1      48.012   7.132  13.959  0.00  0.00    +0.000 NA
ATOM      8  C   UNL     1      49.348   7.376  13.907  0.00  0.00    +0.000 A 
ATOM      9  H   UNL     1      45.759   6.812  13.943  0.00  0.00    +0.000 HD
BRANCH   2  11
ATOM     10  N   UNL     1      52.084   7.849  14.066  0.00  0.00    +0.000 N 
ATOM     11  C   UNL     1      51.390   8.501  13.084  0.00  0.00    +0.000 C 
ATOM     12  O   UNL     1      51.958   9.217  12.273  0.00  0.00    +0.000 OA
ATOM     13  H   UNL     1      53.092   7.929  14.032  0.00  0.00    +0.000 HD
ATOM     14  H   UNL     1      51.701   7.061  14.570  0.00  0.00    +0.000 HD
ENDBRANCH   2  11
ENDBRANCH   1   6
BRANCH   1  15
ATOM     15  C   UNL     1      44.449   6.206  11.779  0.00  0.00    +0.000 A 
ATOM     16  C   UNL     1      43.501   5.518  12.542  0.00  0.00    +0.000 A 
ATOM     17  C   UNL     1      43.163   4.206  12.215  0.00  0.00    +0.000 A 
ATOM     18  C   UNL     1      43.769   3.580  11.125  0.00  0.00    +0.000 A 
ATOM     19  F   UNL     1      43.442   2.299  10.895  0.00  0.00    +0.000 F 
ATOM     20  C   UNL     1      44.707   4.235  10.310  0.00  0.00    +0.000 A 
ATOM     21  C   UNL     1      45.022   5.565  10.661  0.00  0.00    +0.000 A 
BRANCH  20  22
ATOM     22  C   UNL     1      45.356   3.572   9.155  0.00  0.00    +0.000 A 
ATOM     23  C   UNL     1      45.808   4.281   8.032  0.00  0.00    +0.000 A 
ATOM     24  N   UNL     1      46.407   3.731   6.942  0.00  0.00    +0.000 NA
ATOM     25  C   UNL     1      46.578   2.393   6.960  0.00  0.00    +0.000 A 
ATOM     26  C   UNL     1      46.178   1.596   8.013  0.00  0.00    +0.000 A 
ATOM     27  F   UNL     1      46.377   0.272   7.983  0.00  0.00    +0.000 F 
ATOM     28  C   UNL     1      45.561   2.183   9.111  0.00  0.00    +0.000 A 
ENDBRANCH  20  22
ENDBRANCH   1  15
TORSDOF 4
ENDMDL
MODEL 7
REMARK VINA RESULT:    -7.108      3.939      7.321
REMARK INTER + INTRA:          -9.616
REMARK INTER:                  -9.122
REMARK INTRA:                  -0.495
REMARK UNBOUND:                -0.846
REMARK  Name = 
REMARK  4 active torsions:
REMARK  status: ('A' for Active; 'I' for Inactive)
REMARK    1  A    between atoms: C_2  and  C_4
REMARK    2  A    between atoms: N_8  and  C_9
REMARK    3  A    between atoms: C_9  and  C_10
REMARK    4  A    between atoms: C_15  and  C_16
REMARK                            x       y       z     vdW  Elec       q    Type
REMARK                         _______ _______ _______ _____ _____    ______ ____
ROOT
ATOM      1  C   UNL     1      44.848   7.003  11.891  0.00  0.00    +0.000 C 
ENDROOT
BRANCH   1   6
ATOM      2  C   UNL     1      49.281   7.176  14.485  0.00  0.00    +0.000 A 
ATOM      3  C   UNL     1      48.211   6.301  14.639  0.00  0.00    +0.000 A 
ATOM      4  C   UNL     1      47.157   6.348  13.727  0.00  0.00    +0.000 A 
ATOM      5  C   UNL     1      47.183   7.272  12.688  0.00  0.00    +0.000 A 
ATOM      6  N   UNL     1      46.244   7.321  11.685  0.00  0.00    +0.000 N 
ATOM      7  N   UNL     1      48.203   8.142  12.546  0.00  0.00    +0.000 NA
ATOM      8  C   UNL     1      49.223   8.086  13.443  0.00  0.00    +0.000 A 
ATOM      9  H   UNL     1      46.438   8.133  11.110  0.00  0.00    +0.000 HD
BRANCH   2  11
ATOM     10  N   UNL     1      51.650   7.569  14.829  0.00  0.00    +0.000 N 
ATOM     11  C   UNL     1      50.463   7.157  15.370  0.00  0.00    +0.000 C 
ATOM     12  O   UNL     1      50.379   6.828  16.544  0.00  0.00    +0.000 OA
ATOM     13  H   UNL     1      52.427   7.662  15.472  0.00  0.00    +0.000 HD
ATOM     14  H   UNL     1      51.702   8.090  13.965  0.00  0.00    +0.000 HD
ENDBRANCH   2  11
ENDBRANCH   1   6
BRANCH   1  15
ATOM     15  C   UNL     1      44.482   5.629  11.381  0.00  0.00    +0.000 A 
ATOM     16  C   UNL     1      43.554   4.838  12.066  0.00  0.00    +0.000 A 
ATOM     17  C   UNL     1      43.303   3.535  11.644  0.00  0.00    +0.000 A 
ATOM     18  C   UNL     1      43.977   3.018  10.536  0.00  0.00    +0.000 A 
ATOM     19  F   UNL     1      43.732   1.739  10.212  0.00  0.00    +0.000 F 
ATOM     20  C   UNL     1      44.899   3.778   9.797  0.00  0.00    +0.000 A 
ATOM     21  C   UNL     1      45.125   5.097  10.244  0.00  0.00    +0.000 A 
BRANCH  20  22
ATOM     22  C   UNL     1      45.619   3.231   8.624  0.00  0.00    +0.000 A 
ATOM     23  C   UNL     1      45.990   4.024   7.528  0.00  0.00    +0.000 A 
ATOM     24  N   UNL     1      46.649   3.582   6.422  0.00  0.00    +0.000 NA
ATOM     25  C   UNL     1      46.968   2.271   6.396  0.00  0.00    +0.000 A 
ATOM     26  C   UNL     1      46.659   1.399   7.420  0.00  0.00    +0.000 A 
ATOM     27  F   UNL     1      47.005   0.108   7.346  0.00  0.00    +0.000 F 
ATOM     28  C   UNL     1      45.979   1.876   8.534  0.00  0.00    +0.000 A 
ENDBRANCH  20  22
ENDBRANCH   1  15
TORSDOF 4
ENDMDL
MODEL 8
REMARK VINA RESULT:    -7.009      1.928      2.980
REMARK INTER + INTRA:          -9.494
REMARK INTER:                  -8.885
REMARK INTRA:                  -0.609
REMARK UNBOUND:                -0.846
REMARK  Name = 
REMARK  4 active torsions:
REMARK  status: ('A' for Active; 'I' for Inactive)
REMARK    1  A    between atoms: C_2  and  C_4
REMARK    2  A    between atoms: N_8  and  C_9
REMARK    3  A    between atoms: C_9  and  C_10
REMARK    4  A    between atoms: C_15  and  C_16
REMARK                            x       y       z     vdW  Elec       q    Type
REMARK                         _______ _______ _______ _____ _____    ______ ____
ROOT
ATOM      1  C   UNL     1      43.491   5.438  10.963  0.00  0.00    +0.000 C 
ENDROOT
BRANCH   1   6
ATOM      2  C   UNL     1      46.301   2.650   7.685  0.00  0.00    +0.000 A 
ATOM      3  C   UNL     1      46.101   4.026   7.715  0.00  0.00    +0.000 A 
ATOM      4  C   UNL     1      45.406   4.589   8.785  0.00  0.00    +0.000 A 
ATOM      5  C   UNL     1      44.913   3.772   9.796  0.00  0.00    +0.000 A 
ATOM      6  N   UNL     1      44.311   4.247  10.937  0.00  0.00    +0.000 N 
ATOM      7  N   UNL     1      45.080   2.434   9.763  0.00  0.00    +0.000 NA
ATOM      8  C   UNL     1      45.757   1.899   8.713  0.00  0.00    +0.000 A 
ATOM      9  H   UNL     1      43.965   3.453  11.465  0.00  0.00    +0.000 HD
BRANCH   2  11
ATOM     10  N   UNL     1      47.608   2.771   5.645  0.00  0.00    +0.000 N 
ATOM     11  C   UNL     1      47.073   1.977   6.621  0.00  0.00    +0.000 C 
ATOM     12  O   UNL     1      47.261   0.769   6.633  0.00  0.00    +0.000 OA
ATOM     13  H   UNL     1      48.229   2.317   4.987  0.00  0.00    +0.000 HD
ATOM     14  H   UNL     1      47.699   3.772   5.748  0.00  0.00    +0.000 HD
ENDBRANCH   2  11
ENDBRANCH   1   6
BRANCH   1  15
ATOM     15  C   UNL     1      44.245   6.655  11.445  0.00  0.00    +0.000 A 
ATOM     16  C   UNL     1      43.839   7.939  11.072  0.00  0.00    +0.000 A 
ATOM     17  C   UNL     1      44.602   9.045  11.438  0.00  0.00    +0.000 A 
ATOM     18  C   UNL     1      45.772   8.871  12.179  0.00  0.00    +0.000 A 
ATOM     19  F   UNL     1      46.492   9.970  12.454  0.00  0.00    +0.000 F 
ATOM     20  C   UNL     1      46.211   7.605  12.602  0.00  0.00    +0.000 A 
ATOM     21  C   UNL     1      45.412   6.506  12.224  0.00  0.00    +0.000 A 
BRANCH  20  22
ATOM     22  C   UNL     1      47.455   7.417  13.385  0.00  0.00    +0.000 A 
ATOM     23  C   UNL     1      48.643   8.102  13.093  0.00  0.00    +0.000 A 
ATOM     24  N   UNL     1      49.815   7.971  13.770  0.00  0.00    +0.000 NA
ATOM     25  C   UNL     1      49.817   7.110  14.809  0.00  0.00    +0.000 A 
ATOM     26  C   UNL     1      48.705   6.387  15.191  0.00  0.00    +0.000 A 
ATOM     27  F   UNL     1      48.759   5.550  16.235  0.00  0.00    +0.000 F 
ATOM     28  C   UNL     1      47.522   6.534  14.476  0.00  0.00    +0.000 A 
ENDBRANCH  20  22
ENDBRANCH   1  15
TORSDOF 4
ENDMDL
MODEL 9
REMARK VINA RESULT:    -6.844      5.305      8.229
REMARK INTER + INTRA:          -9.291
REMARK INTER:                  -8.720
REMARK INTRA:                  -0.571
REMARK UNBOUND:                -0.846
REMARK  Name = 
REMARK  4 active torsions:
REMARK  status: ('A' for Active; 'I' for Inactive)
REMARK    1  A    between atoms: C_2  and  C_4
REMARK    2  A    between atoms: N_8  and  C_9
REMARK    3  A    between atoms: C_9  and  C_10
REMARK    4  A    between atoms: C_15  and  C_16
REMARK                            x       y       z     vdW  Elec       q    Type
REMARK                         _______ _______ _______ _____ _____    ______ ____
ROOT
ATOM      1  C   UNL     1      48.415   7.277  14.104  0.00  0.00    +0.000 C 
ENDROOT
BRANCH   1   6
ATOM      2  C   UNL     1      50.944   4.734  17.785  0.00  0.00    +0.000 A 
ATOM      3  C   UNL     1      51.302   5.907  17.128  0.00  0.00    +0.000 A 
ATOM      4  C   UNL     1      50.392   6.501  16.254  0.00  0.00    +0.000 A 
ATOM      5  C   UNL     1      49.151   5.911  16.040  0.00  0.00    +0.000 A 
ATOM      6  N   UNL     1      48.156   6.478  15.282  0.00  0.00    +0.000 N 
ATOM      7  N   UNL     1      48.806   4.760  16.653  0.00  0.00    +0.000 NA
ATOM      8  C   UNL     1      49.703   4.191  17.501  0.00  0.00    +0.000 A 
ATOM      9  H   UNL     1      47.394   5.812  15.212  0.00  0.00    +0.000 HD
BRANCH   2  11
ATOM     10  N   UNL     1      52.198   2.783  18.496  0.00  0.00    +0.000 N 
ATOM     11  C   UNL     1      51.822   4.069  18.769  0.00  0.00    +0.000 C 
ATOM     12  O   UNL     1      52.229   4.654  19.762  0.00  0.00    +0.000 OA
ATOM     13  H   UNL     1      52.889   2.377  19.115  0.00  0.00    +0.000 HD
ATOM     14  H   UNL     1      52.104   2.373  17.577  0.00  0.00    +0.000 HD
ENDBRANCH   2  11
ENDBRANCH   1   6
BRANCH   1  15
ATOM     15  C   UNL     1      47.208   7.395  13.203  0.00  0.00    +0.000 A 
ATOM     16  C   UNL     1      46.405   8.539  13.235  0.00  0.00    +0.000 A 
ATOM     17  C   UNL     1      45.238   8.593  12.475  0.00  0.00    +0.000 A 
ATOM     18  C   UNL     1      44.871   7.504  11.682  0.00  0.00    +0.000 A 
ATOM     19  F   UNL     1      43.710   7.595  11.017  0.00  0.00    +0.000 F 
ATOM     20  C   UNL     1      45.656   6.341  11.594  0.00  0.00    +0.000 A 
ATOM     21  C   UNL     1      46.836   6.322  12.368  0.00  0.00    +0.000 A 
BRANCH  20  22
ATOM     22  C   UNL     1      45.268   5.183  10.757  0.00  0.00    +0.000 A 
ATOM     23  C   UNL     1      44.522   4.105  11.257  0.00  0.00    +0.000 A 
ATOM     24  N   UNL     1      44.138   3.014  10.541  0.00  0.00    +0.000 NA
ATOM     25  C   UNL     1      44.507   2.984   9.244  0.00  0.00    +0.000 A 
ATOM     26  C   UNL     1      45.236   3.991   8.644  0.00  0.00    +0.000 A 
ATOM     27  F   UNL     1      45.572   3.914   7.350  0.00  0.00    +0.000 F 
ATOM     28  C   UNL     1      45.622   5.091   9.401  0.00  0.00    +0.000 A 
ENDBRANCH  20  22
ENDBRANCH   1  15
TORSDOF 4
ENDMDL
