MODEL 1
REMARK VINA RESULT:    -9.103      0.000      0.000
REMARK INTER + INTRA:         -12.193
REMARK INTER:                 -11.764
REMARK INTRA:                  -0.430
REMARK UNBOUND:                -0.430
REMARK  Name = 
REMARK  7 active torsions:
REMARK  status: ('A' for Active; 'I' for Inactive)
REMARK    1  A    between atoms: C_1  and  O_2
REMARK    2  A    between atoms: O_2  and  C_3
REMARK    3  A    between atoms: C_6  and  C_7
REMARK    4  A    between atoms: C_11  and  C_12
REMARK    5  A    between atoms: C_12  and  N_13
REMARK    6  A    between atoms: C_17  and  C_18
REMARK    7  A    between atoms: C_21  and  C_22
REMARK                            x       y       z     vdW  Elec       q    Type
REMARK                         _______ _______ _______ _____ _____    ______ ____
ROOT
ATOM      1  C   UNL     1      43.500   4.791  11.003  0.00  0.00    +0.000 C 
ENDROOT
BRANCH   1   2
ATOM      2  N   UNL     1      43.736   4.881   9.580  0.00  0.00    +0.000 N 
ATOM      3  C   UNL     1      44.559   3.887   9.075  0.00  0.00    +0.000 A 
ATOM      4  N   UNL     1      44.559   2.662   9.612  0.00  0.00    +0.000 NA
ATOM      5  C   UNL     1      45.369   1.745   9.039  0.00  0.00    +0.000 A 
ATOM      6  C   UNL     1      46.172   1.984   7.942  0.00  0.00    +0.000 A 
ATOM      7  C   UNL     1      46.128   3.284   7.465  0.00  0.00    +0.000 A 
ATOM      8  C   UNL     1      46.903   3.791   6.285  0.00  0.00    +0.000 C 
ATOM      9  N   UNL     1      45.325   4.229   8.033  0.00  0.00    +0.000 NA
ATOM     10  H   UNL     1      44.106   5.767   9.255  0.00  0.00    +0.000 HD
BRANCH   6  11
ATOM     11  C   UNL     1      47.032   0.909   7.402  0.00  0.00    +0.000 C 
ATOM     12  N   UNL     1      46.636  -0.387   7.602  0.00  0.00    +0.000 N 
ATOM     13  O   UNL     1      48.071   1.141   6.800  0.00  0.00    +0.000 OA
ATOM     14  H   UNL     1      45.732  -0.667   7.957  0.00  0.00    +0.000 HD
ATOM     15  H   UNL     1      47.210  -1.104   7.175  0.00  0.00    +0.000 HD
ENDBRANCH   6  11
ENDBRANCH   1   2
BRANCH   1  20
ATOM     16  C   UNL     1      46.346   5.456  13.495  0.00  0.00    +0.000 A 
ATOM     17  C   UNL     1      46.726   6.746  13.081  0.00  0.00    +0.000 A 
ATOM     18  C   UNL     1      46.037   7.423  12.069  0.00  0.00    +0.000 A 
ATOM     19  C   UNL     1      44.974   6.809  11.417  0.00  0.00    +0.000 A 
ATOM     20  C   UNL     1      44.593   5.508  11.764  0.00  0.00    +0.000 A 
ATOM     21  C   UNL     1      45.261   4.862  12.824  0.00  0.00    +0.000 A 
BRANCH  16  25
ATOM     22  C   UNL     1      48.403   3.366  16.577  0.00  0.00    +0.000 A 
ATOM     23  C   UNL     1      48.263   4.735  16.708  0.00  0.00    +0.000 A 
ATOM     24  C   UNL     1      47.578   5.433  15.712  0.00  0.00    +0.000 A 
ATOM     25  C   UNL     1      47.059   4.762  14.591  0.00  0.00    +0.000 A 
ATOM     26  C   UNL     1      47.268   3.379  14.579  0.00  0.00    +0.000 A 
ATOM     27  N   UNL     1      47.911   2.669  15.537  0.00  0.00    +0.000 NA
BRANCH  22  29
ATOM     28  C   UNL     1      50.346   2.185  17.100  0.00  0.00    +0.000 C 
ATOM     29  O   UNL     1      49.106   2.711  17.567  0.00  0.00    +0.000 OA
ENDBRANCH  22  29
ENDBRANCH  16  25
ENDBRANCH   1  20
TORSDOF 5
ENDMDL
MODEL 2
REMARK VINA RESULT:    -8.685      3.023      4.470
REMARK INTER + INTRA:         -11.653
REMARK INTER:                 -11.413
REMARK INTRA:                  -0.240
REMARK UNBOUND:                -0.430
REMARK  Name = 
REMARK  7 active torsions:
REMARK  status: ('A' for Active; 'I' for Inactive)
REMARK    1  A    between atoms: C_1  and  O_2
REMARK    2  A    between atoms: O_2  and  C_3
REMARK    3  A    between atoms: C_6  and  C_7
REMARK    4  A    between atoms: C_11  and  C_12
REMARK    5  A    between atoms: C_12  and  N_13
REMARK    6  A    between atoms: C_17  and  C_18
REMARK    7  A    between atoms: C_21  and  C_22
REMARK                            x       y       z     vdW  Elec       q    Type
REMARK                         _______ _______ _______ _____ _____    ______ ____
ROOT
ATOM      1  C   UNL     1      43.483   4.693  11.083  0.00  0.00    +0.000 C 
ENDROOT
BRANCH   1   2
ATOM      2  N   UNL     1      43.725   4.829   9.665  0.00  0.00    +0.000 N 
ATOM      3  C   UNL     1      44.548   3.851   9.130  0.00  0.00    +0.000 A 
ATOM      4  N   UNL     1      44.543   2.609   9.625  0.00  0.00    +0.000 NA
ATOM      5  C   UNL     1      45.353   1.709   9.025  0.00  0.00    +0.000 A 
ATOM      6  C   UNL     1      46.162   1.983   7.940  0.00  0.00    +0.000 A 
ATOM      7  C   UNL     1      46.122   3.299   7.506  0.00  0.00    +0.000 A 
ATOM      8  C   UNL     1      46.903   3.843   6.348  0.00  0.00    +0.000 C 
ATOM      9  N   UNL     1      45.319   4.226   8.103  0.00  0.00    +0.000 NA
ATOM     10  H   UNL     1      44.099   5.724   9.371  0.00  0.00    +0.000 HD
BRANCH   6  11
ATOM     11  C   UNL     1      47.021   0.925   7.368  0.00  0.00    +0.000 C 
ATOM     12  N   UNL     1      46.682  -0.378   7.618  0.00  0.00    +0.000 N 
ATOM     13  O   UNL     1      48.012   1.177   6.697  0.00  0.00    +0.000 OA
ATOM     14  H   UNL     1      45.811  -0.679   8.034  0.00  0.00    +0.000 HD
ATOM     15  H   UNL     1      47.251  -1.086   7.169  0.00  0.00    +0.000 HD
ENDBRANCH   6  11
ENDBRANCH   1   2
BRANCH   1  20
ATOM     16  C   UNL     1      46.626   6.482  12.377  0.00  0.00    +0.000 A 
ATOM     17  C   UNL     1      47.003   5.587  13.396  0.00  0.00    +0.000 A 
ATOM     18  C   UNL     1      46.308   4.394  13.619  0.00  0.00    +0.000 A 
ATOM     19  C   UNL     1      45.189   4.086  12.854  0.00  0.00    +0.000 A 
ATOM     20  C   UNL     1      44.750   4.969  11.862  0.00  0.00    +0.000 A 
ATOM     21  C   UNL     1      45.495   6.138  11.612  0.00  0.00    +0.000 A 
BRANCH  16  25
ATOM     22  C   UNL     1      48.732  10.114  11.697  0.00  0.00    +0.000 A 
ATOM     23  C   UNL     1      49.446   8.932  11.627  0.00  0.00    +0.000 A 
ATOM     24  C   UNL     1      48.765   7.731  11.833  0.00  0.00    +0.000 A 
ATOM     25  C   UNL     1      47.390   7.724  12.126  0.00  0.00    +0.000 A 
ATOM     26  C   UNL     1      46.787   8.985  12.167  0.00  0.00    +0.000 A 
ATOM     27  N   UNL     1      47.412  10.167  11.953  0.00  0.00    +0.000 NA
BRANCH  22  29
ATOM     28  C   UNL     1      50.498  11.138  10.567  0.00  0.00    +0.000 C 
ATOM     29  O   UNL     1      49.440  11.284  11.511  0.00  0.00    +0.000 OA
ENDBRANCH  22  29
ENDBRANCH  16  25
ENDBRANCH   1  20
TORSDOF 5
ENDMDL
MODEL 3
REMARK VINA RESULT:    -8.177      1.567      2.227
REMARK INTER + INTRA:         -10.997
REMARK INTER:                 -10.631
REMARK INTRA:                  -0.366
REMARK UNBOUND:                -0.430
REMARK  Name = 
REMARK  7 active torsions:
REMARK  status: ('A' for Active; 'I' for Inactive)
REMARK    1  A    between atoms: C_1  and  O_2
REMARK    2  A    between atoms: O_2  and  C_3
REMARK    3  A    between atoms: C_6  and  C_7
REMARK    4  A    between atoms: C_11  and  C_12
REMARK    5  A    between atoms: C_12  and  N_13
REMARK    6  A    between atoms: C_17  and  C_18
REMARK    7  A    between atoms: C_21  and  C_22
REMARK                            x       y       z     vdW  Elec       q    Type
REMARK                         _______ _______ _______ _____ _____    ______ ____
ROOT
ATOM      1  C   UNL     1      43.386   3.535  10.975  0.00  0.00    +0.000 C 
ENDROOT
BRANCH   1   2
ATOM      2  N   UNL     1      44.408   2.524  10.823  0.00  0.00    +0.000 N 
ATOM      3  C   UNL     1      45.099   2.589   9.624  0.00  0.00    +0.000 A 
ATOM      4  N   UNL     1      45.318   3.765   9.025  0.00  0.00    +0.000 NA
ATOM      5  C   UNL     1      46.028   3.741   7.875  0.00  0.00    +0.000 A 
ATOM      6  C   UNL     1      46.547   2.599   7.297  0.00  0.00    +0.000 A 
ATOM      7  C   UNL     1      46.254   1.425   7.971  0.00  0.00    +0.000 A 
ATOM      8  C   UNL     1      46.705   0.058   7.549  0.00  0.00    +0.000 C 
ATOM      9  N   UNL     1      45.531   1.423   9.129  0.00  0.00    +0.000 NA
ATOM     10  H   UNL     1      44.093   1.567  10.932  0.00  0.00    +0.000 HD
BRANCH   6  11
ATOM     11  C   UNL     1      47.299   2.685   6.027  0.00  0.00    +0.000 C 
ATOM     12  N   UNL     1      48.662   2.561   6.082  0.00  0.00    +0.000 N 
ATOM     13  O   UNL     1      46.748   2.869   4.951  0.00  0.00    +0.000 OA
ATOM     14  H   UNL     1      49.183   2.266   6.896  0.00  0.00    +0.000 HD
ATOM     15  H   UNL     1      49.150   2.565   5.194  0.00  0.00    +0.000 HD
ENDBRANCH   6  11
ENDBRANCH   1   2
BRANCH   1  20
ATOM     16  C   UNL     1      45.676   5.906  12.948  0.00  0.00    +0.000 A 
ATOM     17  C   UNL     1      45.218   7.141  12.452  0.00  0.00    +0.000 A 
ATOM     18  C   UNL     1      44.146   7.221  11.557  0.00  0.00    +0.000 A 
ATOM     19  C   UNL     1      43.530   6.060  11.102  0.00  0.00    +0.000 A 
ATOM     20  C   UNL     1      43.984   4.808  11.531  0.00  0.00    +0.000 A 
ATOM     21  C   UNL     1      45.027   4.749  12.476  0.00  0.00    +0.000 A 
BRANCH  16  25
ATOM     22  C   UNL     1      48.849   5.586  15.762  0.00  0.00    +0.000 A 
ATOM     23  C   UNL     1      48.785   6.731  14.990  0.00  0.00    +0.000 A 
ATOM     24  C   UNL     1      47.740   6.857  14.072  0.00  0.00    +0.000 A 
ATOM     25  C   UNL     1      46.787   5.834  13.922  0.00  0.00    +0.000 A 
ATOM     26  C   UNL     1      46.965   4.731  14.762  0.00  0.00    +0.000 A 
ATOM     27  N   UNL     1      47.954   4.585  15.676  0.00  0.00    +0.000 NA
BRANCH  22  29
ATOM     28  C   UNL     1      49.683   4.502  17.652  0.00  0.00    +0.000 C 
ATOM     29  O   UNL     1      49.907   5.484  16.643  0.00  0.00    +0.000 OA
ENDBRANCH  22  29
ENDBRANCH  16  25
ENDBRANCH   1  20
TORSDOF 5
ENDMDL
MODEL 4
REMARK VINA RESULT:    -8.137      1.277      1.494
REMARK INTER + INTRA:         -10.945
REMARK INTER:                 -10.526
REMARK INTRA:                  -0.419
REMARK UNBOUND:                -0.430
REMARK  Name = 
REMARK  7 active torsions:
REMARK  status: ('A' for Active; 'I' for Inactive)
REMARK    1  A    between atoms: C_1  and  O_2
REMARK    2  A    between atoms: O_2  and  C_3
REMARK    3  A    between atoms: C_6  and  C_7
REMARK    4  A    between atoms: C_11  and  C_12
REMARK    5  A    between atoms: C_12  and  N_13
REMARK    6  A    between atoms: C_17  and  C_18
REMARK    7  A    between atoms: C_21  and  C_22
REMARK                            x       y       z     vdW  Elec       q    Type
REMARK                         _______ _______ _______ _____ _____    ______ ____
ROOT
ATOM      1  C   UNL     1      43.769   4.975  11.103  0.00  0.00    +0.000 C 
ENDROOT
BRANCH   1   2
ATOM      2  N   UNL     1      43.872   4.982   9.661  0.00  0.00    +0.000 N 
ATOM      3  C   UNL     1      44.666   3.971   9.142  0.00  0.00    +0.000 A 
ATOM      4  N   UNL     1      44.740   2.782   9.748  0.00  0.00    +0.000 NA
ATOM      5  C   UNL     1      45.512   1.843   9.157  0.00  0.00    +0.000 A 
ATOM      6  C   UNL     1      46.206   2.027   7.978  0.00  0.00    +0.000 A 
ATOM      7  C   UNL     1      46.092   3.295   7.431  0.00  0.00    +0.000 A 
ATOM      8  C   UNL     1      46.745   3.741   6.157  0.00  0.00    +0.000 C 
ATOM      9  N   UNL     1      45.325   4.261   8.015  0.00  0.00    +0.000 NA
ATOM     10  H   UNL     1      44.193   5.851   9.252  0.00  0.00    +0.000 HD
BRANCH   6  11
ATOM     11  C   UNL     1      47.035   0.934   7.426  0.00  0.00    +0.000 C 
ATOM     12  N   UNL     1      46.631  -0.354   7.659  0.00  0.00    +0.000 N 
ATOM     13  O   UNL     1      48.056   1.146   6.785  0.00  0.00    +0.000 OA
ATOM     14  H   UNL     1      45.737  -0.618   8.048  0.00  0.00    +0.000 HD
ATOM     15  H   UNL     1      47.182  -1.084   7.223  0.00  0.00    +0.000 HD
ENDBRANCH   6  11
ENDBRANCH   1   2
BRANCH   1  20
ATOM     16  C   UNL     1      46.445   6.806  13.163  0.00  0.00    +0.000 A 
ATOM     17  C   UNL     1      46.254   8.116  12.685  0.00  0.00    +0.000 A 
ATOM     18  C   UNL     1      45.239   8.424  11.773  0.00  0.00    +0.000 A 
ATOM     19  C   UNL     1      44.413   7.418  11.283  0.00  0.00    +0.000 A 
ATOM     20  C   UNL     1      44.598   6.094  11.695  0.00  0.00    +0.000 A 
ATOM     21  C   UNL     1      45.588   5.811  12.657  0.00  0.00    +0.000 A 
BRANCH  16  25
ATOM     22  C   UNL     1      49.431   5.811  16.023  0.00  0.00    +0.000 A 
ATOM     23  C   UNL     1      49.598   6.974  15.295  0.00  0.00    +0.000 A 
ATOM     24  C   UNL     1      48.618   7.322  14.363  0.00  0.00    +0.000 A 
ATOM     25  C   UNL     1      47.499   6.498  14.155  0.00  0.00    +0.000 A 
ATOM     26  C   UNL     1      47.450   5.352  14.955  0.00  0.00    +0.000 A 
ATOM     27  N   UNL     1      48.371   4.995  15.880  0.00  0.00    +0.000 NA
BRANCH  22  29
ATOM     28  C   UNL     1      50.289   4.163  17.435  0.00  0.00    +0.000 C 
ATOM     29  O   UNL     1      50.429   5.484  16.919  0.00  0.00    +0.000 OA
ENDBRANCH  22  29
ENDBRANCH  16  25
ENDBRANCH   1  20
TORSDOF 5
ENDMDL
MODEL 5
REMARK VINA RESULT:    -7.806      1.920      8.722
REMARK INTER + INTRA:         -10.517
REMARK INTER:                  -9.980
REMARK INTRA:                  -0.538
REMARK UNBOUND:                -0.430
REMARK  Name = 
REMARK  7 active torsions:
REMARK  status: ('A' for Active; 'I' for Inactive)
REMARK    1  A    between atoms: C_1  and  O_2
REMARK    2  A    between atoms: O_2  and  C_3
REMARK    3  A    between atoms: C_6  and  C_7
REMARK    4  A    between atoms: C_11  and  C_12
REMARK    5  A    between atoms: C_12  and  N_13
REMARK    6  A    between atoms: C_17  and  C_18
REMARK    7  A    between atoms: C_21  and  C_22
REMARK                            x       y       z     vdW  Elec       q    Type
REMARK                         _______ _______ _______ _____ _____    ______ ____
ROOT
ATOM      1  C   UNL     1      46.169   5.134  14.131  0.00  0.00    +0.000 C 
ENDROOT
BRANCH   1   2
ATOM      2  N   UNL     1      46.720   3.898  14.639  0.00  0.00    +0.000 N 
ATOM      3  C   UNL     1      47.382   4.024  15.850  0.00  0.00    +0.000 A 
ATOM      4  N   UNL     1      46.985   4.926  16.754  0.00  0.00    +0.000 NA
ATOM      5  C   UNL     1      47.667   4.960  17.921  0.00  0.00    +0.000 A 
ATOM      6  C   UNL     1      48.720   4.127  18.239  0.00  0.00    +0.000 A 
ATOM      7  C   UNL     1      49.080   3.240  17.237  0.00  0.00    +0.000 A 
ATOM      8  C   UNL     1      50.186   2.233  17.340  0.00  0.00    +0.000 C 
ATOM      9  N   UNL     1      48.412   3.193  16.048  0.00  0.00    +0.000 NA
ATOM     10  H   UNL     1      47.345   3.408  14.009  0.00  0.00    +0.000 HD
BRANCH   6  11
ATOM     11  C   UNL     1      49.406   4.261  19.542  0.00  0.00    +0.000 C 
ATOM     12  N   UNL     1      48.731   3.856  20.664  0.00  0.00    +0.000 N 
ATOM     13  O   UNL     1      50.535   4.720  19.644  0.00  0.00    +0.000 OA
ATOM     14  H   UNL     1      47.864   3.337  20.661  0.00  0.00    +0.000 HD
ATOM     15  H   UNL     1      49.242   3.903  21.538  0.00  0.00    +0.000 HD
ENDBRANCH   6  11
ENDBRANCH   1   2
BRANCH   1  20
ATOM     16  C   UNL     1      44.771   4.057  10.720  0.00  0.00    +0.000 A 
ATOM     17  C   UNL     1      43.393   4.171  10.983  0.00  0.00    +0.000 A 
ATOM     18  C   UNL     1      42.918   4.654  12.207  0.00  0.00    +0.000 A 
ATOM     19  C   UNL     1      43.812   4.996  13.216  0.00  0.00    +0.000 A 
ATOM     20  C   UNL     1      45.189   4.853  13.014  0.00  0.00    +0.000 A 
ATOM     21  C   UNL     1      45.652   4.420  11.756  0.00  0.00    +0.000 A 
BRANCH  16  25
ATOM     22  C   UNL     1      46.225   2.792   6.928  0.00  0.00    +0.000 A 
ATOM     23  C   UNL     1      45.882   1.816   7.846  0.00  0.00    +0.000 A 
ATOM     24  C   UNL     1      45.389   2.216   9.089  0.00  0.00    +0.000 A 
ATOM     25  C   UNL     1      45.264   3.579   9.409  0.00  0.00    +0.000 A 
ATOM     26  C   UNL     1      45.644   4.463   8.394  0.00  0.00    +0.000 A 
ATOM     27  N   UNL     1      46.108   4.109   7.172  0.00  0.00    +0.000 NA
BRANCH  22  29
ATOM     28  C   UNL     1      48.150   2.234   5.734  0.00  0.00    +0.000 C 
ATOM     29  O   UNL     1      46.731   2.362   5.718  0.00  0.00    +0.000 OA
ENDBRANCH  22  29
ENDBRANCH  16  25
ENDBRANCH   1  20
TORSDOF 5
ENDMDL
MODEL 6
REMARK VINA RESULT:    -7.215      3.567      7.586
REMARK INTER + INTRA:          -9.754
REMARK INTER:                  -9.021
REMARK INTRA:                  -0.733
REMARK UNBOUND:                -0.430
REMARK  Name = 
REMARK  7 active torsions:
REMARK  status: ('A' for Active; 'I' for Inactive)
REMARK    1  A    between atoms: C_1  and  O_2
REMARK    2  A    between atoms: O_2  and  C_3
REMARK    3  A    between atoms: C_6  and  C_7
REMARK    4  A    between atoms: C_11  and  C_12
REMARK    5  A    between atoms: C_12  and  N_13
REMARK    6  A    between atoms: C_17  and  C_18
REMARK    7  A    between atoms: C_21  and  C_22
REMARK                            x       y       z     vdW  Elec       q    Type
REMARK                         _______ _______ _______ _____ _____    ______ ____
ROOT
ATOM      1  C   UNL     1      45.317   7.202  12.846  0.00  0.00    +0.000 C 
ENDROOT
BRANCH   1   2
ATOM      2  N   UNL     1      46.005   8.061  11.908  0.00  0.00    +0.000 N 
ATOM      3  C   UNL     1      47.374   8.146  12.113  0.00  0.00    +0.000 A 
ATOM      4  N   UNL     1      48.058   7.103  12.593  0.00  0.00    +0.000 NA
ATOM      5  C   UNL     1      49.393   7.262  12.732  0.00  0.00    +0.000 A 
ATOM      6  C   UNL     1      50.086   8.409  12.400  0.00  0.00    +0.000 A 
ATOM      7  C   UNL     1      49.296   9.447  11.932  0.00  0.00    +0.000 A 
ATOM      8  C   UNL     1      49.809  10.789  11.504  0.00  0.00    +0.000 C 
ATOM      9  N   UNL     1      47.945   9.313  11.792  0.00  0.00    +0.000 NA
ATOM     10  H   UNL     1      45.654   9.009  11.848  0.00  0.00    +0.000 HD
BRANCH   6  11
ATOM     11  C   UNL     1      51.548   8.481  12.606  0.00  0.00    +0.000 C 
ATOM     12  N   UNL     1      52.352   7.831  11.708  0.00  0.00    +0.000 N 
ATOM     13  O   UNL     1      52.049   9.086  13.544  0.00  0.00    +0.000 OA
ATOM     14  H   UNL     1      52.038   7.432  10.834  0.00  0.00    +0.000 HD
ATOM     15  H   UNL     1      53.352   7.941  11.836  0.00  0.00    +0.000 HD
ENDBRANCH   6  11
ENDBRANCH   1   2
BRANCH   1  20
ATOM     16  C   UNL     1      44.633   4.301  10.424  0.00  0.00    +0.000 A 
ATOM     17  C   UNL     1      43.341   3.939  10.849  0.00  0.00    +0.000 A 
ATOM     18  C   UNL     1      42.669   4.655  11.845  0.00  0.00    +0.000 A 
ATOM     19  C   UNL     1      43.291   5.730  12.470  0.00  0.00    +0.000 A 
ATOM     20  C   UNL     1      44.593   6.095  12.113  0.00  0.00    +0.000 A 
ATOM     21  C   UNL     1      45.234   5.399  11.069  0.00  0.00    +0.000 A 
BRANCH  16  25
ATOM     22  C   UNL     1      46.562   2.067   7.361  0.00  0.00    +0.000 A 
ATOM     23  C   UNL     1      46.566   3.446   7.254  0.00  0.00    +0.000 A 
ATOM     24  C   UNL     1      45.950   4.193   8.259  0.00  0.00    +0.000 A 
ATOM     25  C   UNL     1      45.322   3.558   9.345  0.00  0.00    +0.000 A 
ATOM     26  C   UNL     1      45.389   2.161   9.334  0.00  0.00    +0.000 A 
ATOM     27  N   UNL     1      45.994   1.407   8.386  0.00  0.00    +0.000 NA
BRANCH  22  29
ATOM     28  C   UNL     1      47.878   2.199   5.439  0.00  0.00    +0.000 C 
ATOM     29  O   UNL     1      47.159   1.358   6.338  0.00  0.00    +0.000 OA
ENDBRANCH  22  29
ENDBRANCH  16  25
ENDBRANCH   1  20
TORSDOF 5
ENDMDL
MODEL 7
REMARK VINA RESULT:    -7.090      2.819      7.956
REMARK INTER + INTRA:          -9.592
REMARK INTER:                  -8.856
REMARK INTRA:                  -0.736
REMARK UNBOUND:                -0.430
REMARK  Name = 
REMARK  7 active torsions:
REMARK  status: ('A' for Active; 'I' for Inactive)
REMARK    1  A    between atoms: C_1  and  O_2
REMARK    2  A    between atoms: O_2  and  C_3
REMARK    3  A    between atoms: C_6  and  C_7
REMARK    4  A    between atoms: C_11  and  C_12
REMARK    5  A    between atoms: C_12  and  N_13
REMARK    6  A    between atoms: C_17  and  C_18
REMARK    7  A    between atoms: C_21  and  C_22
REMARK                            x       y       z     vdW  Elec       q    Type
REMARK                         _______ _______ _______ _____ _____    ______ ____
ROOT
ATOM      1  C   UNL     1      45.456   7.346  12.762  0.00  0.00    +0.000 C 
ENDROOT
BRANCH   1   2
ATOM      2  N   UNL     1      46.829   7.401  12.313  0.00  0.00    +0.000 N 
ATOM      3  C   UNL     1      47.765   7.262  13.326  0.00  0.00    +0.000 A 
ATOM      4  N   UNL     1      47.508   6.498  14.393  0.00  0.00    +0.000 NA
ATOM      5  C   UNL     1      48.488   6.392  15.317  0.00  0.00    +0.000 A 
ATOM      6  C   UNL     1      49.724   7.000  15.224  0.00  0.00    +0.000 A 
ATOM      7  C   UNL     1      49.897   7.790  14.098  0.00  0.00    +0.000 A 
ATOM      8  C   UNL     1      51.147   8.549  13.767  0.00  0.00    +0.000 C 
ATOM      9  N   UNL     1      48.918   7.919  13.156  0.00  0.00    +0.000 NA
ATOM     10  H   UNL     1      47.082   8.229  11.787  0.00  0.00    +0.000 HD
BRANCH   6  11
ATOM     11  C   UNL     1      50.721   6.828  16.303  0.00  0.00    +0.000 C 
ATOM     12  N   UNL     1      50.731   7.750  17.315  0.00  0.00    +0.000 N 
ATOM     13  O   UNL     1      51.525   5.906  16.311  0.00  0.00    +0.000 OA
ATOM     14  H   UNL     1      50.020   8.452  17.465  0.00  0.00    +0.000 HD
ATOM     15  H   UNL     1      51.383   7.580  18.072  0.00  0.00    +0.000 HD
ENDBRANCH   6  11
ENDBRANCH   1   2
BRANCH   1  20
ATOM     16  C   UNL     1      44.717   4.423  10.383  0.00  0.00    +0.000 A 
ATOM     17  C   UNL     1      43.422   4.087  10.818  0.00  0.00    +0.000 A 
ATOM     18  C   UNL     1      42.765   4.828  11.806  0.00  0.00    +0.000 A 
ATOM     19  C   UNL     1      43.405   5.902  12.414  0.00  0.00    +0.000 A 
ATOM     20  C   UNL     1      44.712   6.241  12.047  0.00  0.00    +0.000 A 
ATOM     21  C   UNL     1      45.338   5.520  11.011  0.00  0.00    +0.000 A 
BRANCH  16  25
ATOM     22  C   UNL     1      46.601   2.117   7.345  0.00  0.00    +0.000 A 
ATOM     23  C   UNL     1      46.612   3.493   7.211  0.00  0.00    +0.000 A 
ATOM     24  C   UNL     1      46.011   4.264   8.208  0.00  0.00    +0.000 A 
ATOM     25  C   UNL     1      45.390   3.654   9.312  0.00  0.00    +0.000 A 
ATOM     26  C   UNL     1      45.449   2.258   9.329  0.00  0.00    +0.000 A 
ATOM     27  N   UNL     1      46.040   1.481   8.390  0.00  0.00    +0.000 NA
BRANCH  22  29
ATOM     28  C   UNL     1      47.823   2.209   5.360  0.00  0.00    +0.000 C 
ATOM     29  O   UNL     1      47.183   1.384   6.331  0.00  0.00    +0.000 OA
ENDBRANCH  22  29
ENDBRANCH  16  25
ENDBRANCH   1  20
TORSDOF 5
ENDMDL
MODEL 8
REMARK VINA RESULT:    -6.954      2.601      8.411
REMARK INTER + INTRA:          -9.416
REMARK INTER:                  -8.768
REMARK INTRA:                  -0.648
REMARK UNBOUND:                -0.430
REMARK  Name = 
REMARK  7 active torsions:
REMARK  status: ('A' for Active; 'I' for Inactive)
REMARK    1  A    between atoms: C_1  and  O_2
REMARK    2  A    between atoms: O_2  and  C_3
REMARK    3  A    between atoms: C_6  and  C_7
REMARK    4  A    between atoms: C_11  and  C_12
REMARK    5  A    between atoms: C_12  and  N_13
REMARK    6  A    between atoms: C_17  and  C_18
REMARK    7  A    between atoms: C_21  and  C_22
REMARK                            x       y       z     vdW  Elec       q    Type
REMARK                         _______ _______ _______ _____ _____    ______ ____
ROOT
ATOM      1  C   UNL     1      48.692   7.592  14.533  0.00  0.00    +0.000 C 
ENDROOT
BRANCH   1   2
ATOM      2  N   UNL     1      48.254   7.082  15.812  0.00  0.00    +0.000 N 
ATOM      3  C   UNL     1      49.144   6.205  16.412  0.00  0.00    +0.000 A 
ATOM      4  N   UNL     1      50.462   6.345  16.236  0.00  0.00    +0.000 NA
ATOM      5  C   UNL     1      51.260   5.466  16.882  0.00  0.00    +0.000 A 
ATOM      6  C   UNL     1      50.808   4.458  17.710  0.00  0.00    +0.000 A 
ATOM      7  C   UNL     1      49.430   4.372  17.817  0.00  0.00    +0.000 A 
ATOM      8  C   UNL     1      48.696   3.368  18.656  0.00  0.00    +0.000 C 
ATOM      9  N   UNL     1      48.604   5.242  17.167  0.00  0.00    +0.000 NA
ATOM     10  H   UNL     1      47.346   6.630  15.813  0.00  0.00    +0.000 HD
BRANCH   6  11
ATOM     11  C   UNL     1      51.771   3.541  18.358  0.00  0.00    +0.000 C 
ATOM     12  N   UNL     1      52.234   3.877  19.602  0.00  0.00    +0.000 N 
ATOM     13  O   UNL     1      52.161   2.515  17.819  0.00  0.00    +0.000 OA
ATOM     14  H   UNL     1      51.862   4.620  20.177  0.00  0.00    +0.000 HD
ATOM     15  H   UNL     1      52.848   3.206  20.050  0.00  0.00    +0.000 HD
ENDBRANCH   6  11
ENDBRANCH   1   2
BRANCH   1  20
ATOM     16  C   UNL     1      45.993   6.609  11.983  0.00  0.00    +0.000 A 
ATOM     17  C   UNL     1      45.267   7.814  11.932  0.00  0.00    +0.000 A 
ATOM     18  C   UNL     1      45.675   8.946  12.645  0.00  0.00    +0.000 A 
ATOM     19  C   UNL     1      46.799   8.889  13.462  0.00  0.00    +0.000 A 
ATOM     20  C   UNL     1      47.522   7.698  13.579  0.00  0.00    +0.000 A 
ATOM     21  C   UNL     1      47.131   6.584  12.810  0.00  0.00    +0.000 A 
BRANCH  16  25
ATOM     22  C   UNL     1      44.840   3.259   9.629  0.00  0.00    +0.000 A 
ATOM     23  C   UNL     1      44.718   3.155  11.003  0.00  0.00    +0.000 A 
ATOM     24  C   UNL     1      45.078   4.252  11.787  0.00  0.00    +0.000 A 
ATOM     25  C   UNL     1      45.573   5.427  11.197  0.00  0.00    +0.000 A 
ATOM     26  C   UNL     1      45.647   5.403   9.801  0.00  0.00    +0.000 A 
ATOM     27  N   UNL     1      45.289   4.365   9.009  0.00  0.00    +0.000 NA
BRANCH  22  29
ATOM     28  C   UNL     1      45.636   1.410   8.450  0.00  0.00    +0.000 C 
ATOM     29  O   UNL     1      44.497   2.148   8.885  0.00  0.00    +0.000 OA
ENDBRANCH  22  29
ENDBRANCH  16  25
ENDBRANCH   1  20
TORSDOF 5
ENDMDL
MODEL 9
REMARK VINA RESULT:    -6.877      2.781      8.658
REMARK INTER + INTRA:          -9.317
REMARK INTER:                  -8.630
REMARK INTRA:                  -0.686
REMARK UNBOUND:                -0.430
REMARK  Name = 
REMARK  7 active torsions:
REMARK  status: ('A' for Active; 'I' for Inactive)
REMARK    1  A    between atoms: C_1  and  O_2
REMARK    2  A    between atoms: O_2  and  C_3
REMARK    3  A    between atoms: C_6  and  C_7
REMARK    4  A    between atoms: C_11  and  C_12
REMARK    5  A    between atoms: C_12  and  N_13
REMARK    6  A    between atoms: C_17  and  C_18
REMARK    7  A    between atoms: C_21  and  C_22
REMARK                            x       y       z     vdW  Elec       q    Type
REMARK                         _______ _______ _______ _____ _____    ______ ____
ROOT
ATOM      1  C   UNL     1      49.281   7.613  14.066  0.00  0.00    +0.000 C 
ENDROOT
BRANCH   1   2
ATOM      2  N   UNL     1      49.219   8.162  15.402  0.00  0.00    +0.000 N 
ATOM      3  C   UNL     1      49.158   7.209  16.407  0.00  0.00    +0.000 A 
ATOM      4  N   UNL     1      49.768   6.028  16.266  0.00  0.00    +0.000 NA
ATOM      5  C   UNL     1      49.685   5.170  17.306  0.00  0.00    +0.000 A 
ATOM      6  C   UNL     1      49.032   5.437  18.493  0.00  0.00    +0.000 A 
ATOM      7  C   UNL     1      48.408   6.674  18.545  0.00  0.00    +0.000 A 
ATOM      8  C   UNL     1      47.641   7.199  19.721  0.00  0.00    +0.000 C 
ATOM      9  N   UNL     1      48.472   7.553  17.503  0.00  0.00    +0.000 NA
ATOM     10  H   UNL     1      48.465   8.818  15.569  0.00  0.00    +0.000 HD
BRANCH   6  11
ATOM     11  C   UNL     1      48.989   4.419  19.564  0.00  0.00    +0.000 C 
ATOM     12  N   UNL     1      48.348   3.238  19.297  0.00  0.00    +0.000 N 
ATOM     13  O   UNL     1      49.496   4.601  20.662  0.00  0.00    +0.000 OA
ATOM     14  H   UNL     1      48.031   2.946  18.383  0.00  0.00    +0.000 HD
ATOM     15  H   UNL     1      48.381   2.533  20.025  0.00  0.00    +0.000 HD
ENDBRANCH   6  11
ENDBRANCH   1   2
BRANCH   1  20
ATOM     16  C   UNL     1      46.158   6.519  12.116  0.00  0.00    +0.000 A 
ATOM     17  C   UNL     1      45.335   7.639  12.341  0.00  0.00    +0.000 A 
ATOM     18  C   UNL     1      45.796   8.757  13.043  0.00  0.00    +0.000 A 
ATOM     19  C   UNL     1      47.080   8.767  13.575  0.00  0.00    +0.000 A 
ATOM     20  C   UNL     1      47.915   7.656  13.417  0.00  0.00    +0.000 A 
ATOM     21  C   UNL     1      47.456   6.561  12.658  0.00  0.00    +0.000 A 
BRANCH  16  25
ATOM     22  C   UNL     1      44.814   3.220   9.792  0.00  0.00    +0.000 A 
ATOM     23  C   UNL     1      44.768   3.100  11.169  0.00  0.00    +0.000 A 
ATOM     24  C   UNL     1      45.192   4.181  11.945  0.00  0.00    +0.000 A 
ATOM     25  C   UNL     1      45.673   5.355  11.341  0.00  0.00    +0.000 A 
ATOM     26  C   UNL     1      45.667   5.348   9.943  0.00  0.00    +0.000 A 
ATOM     27  N   UNL     1      45.245   4.326   9.160  0.00  0.00    +0.000 NA
BRANCH  22  29
ATOM     28  C   UNL     1      45.505   1.427   8.470  0.00  0.00    +0.000 C 
ATOM     29  O   UNL     1      44.409   2.125   9.055  0.00  0.00    +0.000 OA
ENDBRANCH  22  29
ENDBRANCH  16  25
ENDBRANCH   1  20
TORSDOF 5
ENDMDL
