MODEL 1
REMARK VINA RESULT:    -9.141      0.000      0.000
REMARK INTER + INTRA:         -12.720
REMARK INTER:                 -11.813
REMARK INTRA:                  -0.907
REMARK UNBOUND:                -0.907
REMARK  Name = 
REMARK  5 active torsions:
REMARK  status: ('A' for Active; 'I' for Inactive)
REMARK    1  A    between atoms: C_2  and  C_4
REMARK    2  A    between atoms: N_8  and  C_9
REMARK    3  A    between atoms: C_9  and  C_10
REMARK    4  A    between atoms: C_10  and  C_13
REMARK    5  A    between atoms: C_17  and  C_18
REMARK                            x       y       z     vdW  Elec       q    Type
REMARK                         _______ _______ _______ _____ _____    ______ ____
ROOT
ATOM      1  C   UNL     1      43.646   4.661  12.228  0.00  0.00    +0.000 C 
ATOM      2  F   UNL     1      42.673   5.520  12.656  0.00  0.00    +0.000 F 
ATOM      3  F   UNL     1      43.422   3.497  12.915  0.00  0.00    +0.000 F 
ENDROOT
BRANCH   1   4
ATOM      4  C   UNL     1      45.034   5.217  12.484  0.00  0.00    +0.000 A 
ATOM      5  C   UNL     1      45.648   6.065  11.556  0.00  0.00    +0.000 A 
ATOM      6  C   UNL     1      46.912   6.585  11.817  0.00  0.00    +0.000 A 
ATOM      7  C   UNL     1      47.573   6.266  13.007  0.00  0.00    +0.000 A 
ATOM      8  C   UNL     1      46.982   5.436  13.976  0.00  0.00    +0.000 A 
ATOM      9  C   UNL     1      45.709   4.911  13.682  0.00  0.00    +0.000 A 
BRANCH   8  10
ATOM     10  C   UNL     1      47.658   5.144  15.258  0.00  0.00    +0.000 A 
ATOM     11  C   UNL     1      48.618   6.008  15.803  0.00  0.00    +0.000 A 
ATOM     12  N   UNL     1      49.266   5.824  16.983  0.00  0.00    +0.000 NA
ATOM     13  C   UNL     1      48.937   4.712  17.676  0.00  0.00    +0.000 A 
ATOM     14  C   UNL     1      48.006   3.793  17.237  0.00  0.00    +0.000 A 
ATOM     15  F   UNL     1      47.715   2.712  17.973  0.00  0.00    +0.000 F 
ATOM     16  C   UNL     1      47.365   4.003  16.021  0.00  0.00    +0.000 A 
ENDBRANCH   8  10
ENDBRANCH   1   4
BRANCH   1  17
ATOM     17  C   UNL     1      43.446   4.372  10.720  0.00  0.00    +0.000 C 
BRANCH  17  22
ATOM     18  C   UNL     1      46.573   2.560   7.315  0.00  0.00    +0.000 A 
ATOM     19  C   UNL     1      45.937   3.755   7.543  0.00  0.00    +0.000 A 
ATOM     20  N   UNL     1      45.041   3.947   8.537  0.00  0.00    +0.000 NA
ATOM     21  C   UNL     1      44.771   2.896   9.328  0.00  0.00    +0.000 A 
ATOM     22  N   UNL     1      43.850   3.017  10.344  0.00  0.00    +0.000 N 
ATOM     23  N   UNL     1      45.347   1.695   9.191  0.00  0.00    +0.000 NA
ATOM     24  C   UNL     1      46.219   1.542   8.166  0.00  0.00    +0.000 A 
ATOM     25  H   UNL     1      44.054   2.355  11.085  0.00  0.00    +0.000 HD
BRANCH  18  27
ATOM     26  N   UNL     1      47.509   3.198   5.170  0.00  0.00    +0.000 N 
ATOM     27  C   UNL     1      47.542   2.340   6.235  0.00  0.00    +0.000 C 
ATOM     28  O   UNL     1      48.373   1.444   6.303  0.00  0.00    +0.000 OA
ATOM     29  H   UNL     1      48.252   3.088   4.489  0.00  0.00    +0.000 HD
ATOM     30  H   UNL     1      47.031   4.088   5.189  0.00  0.00    +0.000 HD
ENDBRANCH  18  27
ENDBRANCH  17  22
ENDBRANCH   1  17
TORSDOF 5
ENDMDL
MODEL 2
REMARK VINA RESULT:    -8.825      2.649      3.956
REMARK INTER + INTRA:         -12.311
REMARK INTER:                 -11.450
REMARK INTRA:                  -0.861
REMARK UNBOUND:                -0.907
REMARK  Name = 
REMARK  5 active torsions:
REMARK  status: ('A' for Active; 'I' for Inactive)
REMARK    1  A    between atoms: C_2  and  C_4
REMARK    2  A    between atoms: N_8  and  C_9
REMARK    3  A    between atoms: C_9  and  C_10
REMARK    4  A    between atoms: C_10  and  C_13
REMARK    5  A    between atoms: C_17  and  C_18
REMARK                            x       y       z     vdW  Elec       q    Type
REMARK                         _______ _______ _______ _____ _____    ______ ____
ROOT
ATOM      1  C   UNL     1      43.630   4.670  12.434  0.00  0.00    +0.000 C 
ATOM      2  F   UNL     1      42.642   5.500  12.884  0.00  0.00    +0.000 F 
ATOM      3  F   UNL     1      43.351   3.449  12.989  0.00  0.00    +0.000 F 
ENDROOT
BRANCH   1   4
ATOM      4  C   UNL     1      45.006   5.176  12.826  0.00  0.00    +0.000 A 
ATOM      5  C   UNL     1      45.880   4.372  13.565  0.00  0.00    +0.000 A 
ATOM      6  C   UNL     1      47.147   4.842  13.897  0.00  0.00    +0.000 A 
ATOM      7  C   UNL     1      47.553   6.118  13.492  0.00  0.00    +0.000 A 
ATOM      8  C   UNL     1      46.713   6.949  12.730  0.00  0.00    +0.000 A 
ATOM      9  C   UNL     1      45.432   6.455  12.419  0.00  0.00    +0.000 A 
BRANCH   8  10
ATOM     10  C   UNL     1      47.164   8.275  12.255  0.00  0.00    +0.000 A 
ATOM     11  C   UNL     1      46.302   9.380  12.220  0.00  0.00    +0.000 A 
ATOM     12  N   UNL     1      46.644  10.633  11.820  0.00  0.00    +0.000 NA
ATOM     13  C   UNL     1      47.927  10.807  11.435  0.00  0.00    +0.000 A 
ATOM     14  C   UNL     1      48.861   9.791  11.431  0.00  0.00    +0.000 A 
ATOM     15  F   UNL     1      50.122  10.026  11.045  0.00  0.00    +0.000 F 
ATOM     16  C   UNL     1      48.481   8.517  11.836  0.00  0.00    +0.000 A 
ENDBRANCH   8  10
ENDBRANCH   1   4
BRANCH   1  17
ATOM     17  C   UNL     1      43.521   4.533  10.896  0.00  0.00    +0.000 C 
BRANCH  17  22
ATOM     18  C   UNL     1      46.505   2.628   7.413  0.00  0.00    +0.000 A 
ATOM     19  C   UNL     1      45.998   3.868   7.718  0.00  0.00    +0.000 A 
ATOM     20  N   UNL     1      45.107   4.087   8.710  0.00  0.00    +0.000 NA
ATOM     21  C   UNL     1      44.706   3.019   9.420  0.00  0.00    +0.000 A 
ATOM     22  N   UNL     1      43.782   3.170  10.429  0.00  0.00    +0.000 N 
ATOM     23  N   UNL     1      45.150   1.775   9.205  0.00  0.00    +0.000 NA
ATOM     24  C   UNL     1      46.022   1.598   8.184  0.00  0.00    +0.000 A 
ATOM     25  H   UNL     1      43.896   2.440  11.123  0.00  0.00    +0.000 HD
BRANCH  18  27
ATOM     26  N   UNL     1      47.487   3.258   5.287  0.00  0.00    +0.000 N 
ATOM     27  C   UNL     1      47.467   2.378   6.334  0.00  0.00    +0.000 C 
ATOM     28  O   UNL     1      48.247   1.437   6.387  0.00  0.00    +0.000 OA
ATOM     29  H   UNL     1      48.227   3.122   4.608  0.00  0.00    +0.000 HD
ATOM     30  H   UNL     1      47.058   4.172   5.322  0.00  0.00    +0.000 HD
ENDBRANCH  18  27
ENDBRANCH  17  22
ENDBRANCH   1  17
TORSDOF 5
ENDMDL
MODEL 3
REMARK VINA RESULT:    -8.806      2.500      4.220
REMARK INTER + INTRA:         -12.287
REMARK INTER:                 -11.439
REMARK INTRA:                  -0.848
REMARK UNBOUND:                -0.907
REMARK  Name = 
REMARK  5 active torsions:
REMARK  status: ('A' for Active; 'I' for Inactive)
REMARK    1  A    between atoms: C_2  and  C_4
REMARK    2  A    between atoms: N_8  and  C_9
REMARK    3  A    between atoms: C_9  and  C_10
REMARK    4  A    between atoms: C_10  and  C_13
REMARK    5  A    between atoms: C_17  and  C_18
REMARK                            x       y       z     vdW  Elec       q    Type
REMARK                         _______ _______ _______ _____ _____    ______ ____
ROOT
ATOM      1  C   UNL     1      43.654   4.410  12.599  0.00  0.00    +0.000 C 
ATOM      2  F   UNL     1      42.556   4.991  13.168  0.00  0.00    +0.000 F 
ATOM      3  F   UNL     1      43.698   3.144  13.121  0.00  0.00    +0.000 F 
ENDROOT
BRANCH   1   4
ATOM      4  C   UNL     1      44.918   5.195  12.896  0.00  0.00    +0.000 A 
ATOM      5  C   UNL     1      46.050   4.560  13.419  0.00  0.00    +0.000 A 
ATOM      6  C   UNL     1      47.208   5.291  13.664  0.00  0.00    +0.000 A 
ATOM      7  C   UNL     1      47.248   6.661  13.386  0.00  0.00    +0.000 A 
ATOM      8  C   UNL     1      46.140   7.333  12.840  0.00  0.00    +0.000 A 
ATOM      9  C   UNL     1      44.976   6.574  12.614  0.00  0.00    +0.000 A 
BRANCH   8  10
ATOM     10  C   UNL     1      46.202   8.770  12.494  0.00  0.00    +0.000 A 
ATOM     11  C   UNL     1      47.401   9.494  12.554  0.00  0.00    +0.000 A 
ATOM     12  N   UNL     1      47.545  10.807  12.233  0.00  0.00    +0.000 NA
ATOM     13  C   UNL     1      46.429  11.445  11.817  0.00  0.00    +0.000 A 
ATOM     14  C   UNL     1      45.197  10.831  11.719  0.00  0.00    +0.000 A 
ATOM     15  F   UNL     1      44.127  11.514  11.292  0.00  0.00    +0.000 F 
ATOM     16  C   UNL     1      45.078   9.489  12.063  0.00  0.00    +0.000 A 
ENDBRANCH   8  10
ENDBRANCH   1   4
BRANCH   1  17
ATOM     17  C   UNL     1      43.435   4.290  11.071  0.00  0.00    +0.000 C 
BRANCH  17  22
ATOM     18  C   UNL     1      46.457   2.600   7.512  0.00  0.00    +0.000 A 
ATOM     19  C   UNL     1      45.912   3.811   7.860  0.00  0.00    +0.000 A 
ATOM     20  N   UNL     1      45.021   3.968   8.864  0.00  0.00    +0.000 NA
ATOM     21  C   UNL     1      44.660   2.866   9.541  0.00  0.00    +0.000 A 
ATOM     22  N   UNL     1      43.738   2.953  10.559  0.00  0.00    +0.000 N 
ATOM     23  N   UNL     1      45.144   1.644   9.283  0.00  0.00    +0.000 NA
ATOM     24  C   UNL     1      46.014   1.530   8.251  0.00  0.00    +0.000 A 
ATOM     25  H   UNL     1      43.880   2.205  11.228  0.00  0.00    +0.000 HD
BRANCH  18  27
ATOM     26  N   UNL     1      47.310   3.241   5.334  0.00  0.00    +0.000 N 
ATOM     27  C   UNL     1      47.420   2.417   6.420  0.00  0.00    +0.000 C 
ATOM     28  O   UNL     1      48.312   1.582   6.496  0.00  0.00    +0.000 OA
ATOM     29  H   UNL     1      48.046   3.163   4.642  0.00  0.00    +0.000 HD
ATOM     30  H   UNL     1      46.772   4.096   5.338  0.00  0.00    +0.000 HD
ENDBRANCH  18  27
ENDBRANCH  17  22
ENDBRANCH   1  17
TORSDOF 5
ENDMDL
MODEL 4
REMARK VINA RESULT:    -8.766      2.136      2.688
REMARK INTER + INTRA:         -12.235
REMARK INTER:                 -11.322
REMARK INTRA:                  -0.913
REMARK UNBOUND:                -0.907
REMARK  Name = 
REMARK  5 active torsions:
REMARK  status: ('A' for Active; 'I' for Inactive)
REMARK    1  A    between atoms: C_2  and  C_4
REMARK    2  A    between atoms: N_8  and  C_9
REMARK    3  A    between atoms: C_9  and  C_10
REMARK    4  A    between atoms: C_10  and  C_13
REMARK    5  A    between atoms: C_17  and  C_18
REMARK                            x       y       z     vdW  Elec       q    Type
REMARK                         _______ _______ _______ _____ _____    ______ ____
ROOT
ATOM      1  C   UNL     1      44.312   3.942  12.412  0.00  0.00    +0.000 C 
ATOM      2  F   UNL     1      43.462   3.902  13.482  0.00  0.00    +0.000 F 
ATOM      3  F   UNL     1      45.207   2.928  12.630  0.00  0.00    +0.000 F 
ENDROOT
BRANCH   1   4
ATOM      4  C   UNL     1      44.994   5.291  12.292  0.00  0.00    +0.000 A 
ATOM      5  C   UNL     1      44.399   6.333  11.572  0.00  0.00    +0.000 A 
ATOM      6  C   UNL     1      45.028   7.572  11.491  0.00  0.00    +0.000 A 
ATOM      7  C   UNL     1      46.254   7.782  12.130  0.00  0.00    +0.000 A 
ATOM      8  C   UNL     1      46.874   6.769  12.882  0.00  0.00    +0.000 A 
ATOM      9  C   UNL     1      46.225   5.522  12.937  0.00  0.00    +0.000 A 
BRANCH   8  10
ATOM     10  C   UNL     1      48.143   7.010  13.604  0.00  0.00    +0.000 A 
ATOM     11  C   UNL     1      48.424   6.394  14.831  0.00  0.00    +0.000 A 
ATOM     12  N   UNL     1      49.571   6.545  15.544  0.00  0.00    +0.000 NA
ATOM     13  C   UNL     1      50.508   7.355  15.003  0.00  0.00    +0.000 A 
ATOM     14  C   UNL     1      50.338   8.011  13.800  0.00  0.00    +0.000 A 
ATOM     15  F   UNL     1      51.306   8.795  13.309  0.00  0.00    +0.000 F 
ATOM     16  C   UNL     1      49.150   7.845  13.097  0.00  0.00    +0.000 A 
ENDBRANCH   8  10
ENDBRANCH   1   4
BRANCH   1  17
ATOM     17  C   UNL     1      43.522   3.615  11.121  0.00  0.00    +0.000 C 
BRANCH  17  22
ATOM     18  C   UNL     1      46.518   2.702   7.267  0.00  0.00    +0.000 A 
ATOM     19  C   UNL     1      45.826   3.784   7.754  0.00  0.00    +0.000 A 
ATOM     20  N   UNL     1      44.990   3.721   8.813  0.00  0.00    +0.000 NA
ATOM     21  C   UNL     1      44.838   2.524   9.403  0.00  0.00    +0.000 A 
ATOM     22  N   UNL     1      43.982   2.386  10.473  0.00  0.00    +0.000 N 
ATOM     23  N   UNL     1      45.476   1.416   9.009  0.00  0.00    +0.000 NA
ATOM     24  C   UNL     1      46.285   1.520   7.927  0.00  0.00    +0.000 A 
ATOM     25  H   UNL     1      44.276   1.615  11.061  0.00  0.00    +0.000 HD
BRANCH  18  27
ATOM     26  N   UNL     1      48.754   2.543   6.343  0.00  0.00    +0.000 N 
ATOM     27  C   UNL     1      47.423   2.759   6.114  0.00  0.00    +0.000 C 
ATOM     28  O   UNL     1      46.998   2.957   4.984  0.00  0.00    +0.000 OA
ATOM     29  H   UNL     1      49.342   2.486   5.519  0.00  0.00    +0.000 HD
ATOM     30  H   UNL     1      49.111   2.126   7.192  0.00  0.00    +0.000 HD
ENDBRANCH  18  27
ENDBRANCH  17  22
ENDBRANCH   1  17
TORSDOF 5
ENDMDL
MODEL 5
REMARK VINA RESULT:    -8.336      3.464      8.275
REMARK INTER + INTRA:         -11.680
REMARK INTER:                 -11.021
REMARK INTRA:                  -0.659
REMARK UNBOUND:                -0.907
REMARK  Name = 
REMARK  5 active torsions:
REMARK  status: ('A' for Active; 'I' for Inactive)
REMARK    1  A    between atoms: C_2  and  C_4
REMARK    2  A    between atoms: N_8  and  C_9
REMARK    3  A    between atoms: C_9  and  C_10
REMARK    4  A    between atoms: C_10  and  C_13
REMARK    5  A    between atoms: C_17  and  C_18
REMARK                            x       y       z     vdW  Elec       q    Type
REMARK                         _______ _______ _______ _____ _____    ______ ____
ROOT
ATOM      1  C   UNL     1      45.742   6.650  12.377  0.00  0.00    +0.000 C 
ATOM      2  F   UNL     1      44.912   7.318  13.234  0.00  0.00    +0.000 F 
ATOM      3  F   UNL     1      46.181   7.600  11.493  0.00  0.00    +0.000 F 
ENDROOT
BRANCH   1   4
ATOM      4  C   UNL     1      45.025   5.509  11.682  0.00  0.00    +0.000 A 
ATOM      5  C   UNL     1      43.734   5.133  12.068  0.00  0.00    +0.000 A 
ATOM      6  C   UNL     1      43.081   4.099  11.404  0.00  0.00    +0.000 A 
ATOM      7  C   UNL     1      43.710   3.433  10.347  0.00  0.00    +0.000 A 
ATOM      8  C   UNL     1      44.998   3.794   9.913  0.00  0.00    +0.000 A 
ATOM      9  C   UNL     1      45.642   4.834  10.610  0.00  0.00    +0.000 A 
BRANCH   8  10
ATOM     10  C   UNL     1      45.639   3.127   8.760  0.00  0.00    +0.000 A 
ATOM     11  C   UNL     1      46.092   3.848   7.646  0.00  0.00    +0.000 A 
ATOM     12  N   UNL     1      46.710   3.314   6.560  0.00  0.00    +0.000 NA
ATOM     13  C   UNL     1      46.900   1.977   6.579  0.00  0.00    +0.000 A 
ATOM     14  C   UNL     1      46.497   1.169   7.624  0.00  0.00    +0.000 A 
ATOM     15  F   UNL     1      46.720  -0.151   7.590  0.00  0.00    +0.000 F 
ATOM     16  C   UNL     1      45.859   1.742   8.717  0.00  0.00    +0.000 A 
ENDBRANCH   8  10
ENDBRANCH   1   4
BRANCH   1  17
ATOM     17  C   UNL     1      46.968   6.123  13.162  0.00  0.00    +0.000 C 
BRANCH  17  22
ATOM     18  C   UNL     1      48.403   4.359  17.577  0.00  0.00    +0.000 A 
ATOM     19  C   UNL     1      48.826   5.341  16.714  0.00  0.00    +0.000 A 
ATOM     20  N   UNL     1      48.278   5.551  15.497  0.00  0.00    +0.000 NA
ATOM     21  C   UNL     1      47.270   4.742  15.130  0.00  0.00    +0.000 A 
ATOM     22  N   UNL     1      46.684   4.887  13.893  0.00  0.00    +0.000 N 
ATOM     23  N   UNL     1      46.783   3.765  15.905  0.00  0.00    +0.000 NA
ATOM     24  C   UNL     1      47.379   3.573  17.106  0.00  0.00    +0.000 A 
ATOM     25  H   UNL     1      45.728   4.553  13.915  0.00  0.00    +0.000 HD
BRANCH  18  27
ATOM     26  N   UNL     1      48.364   3.228  19.722  0.00  0.00    +0.000 N 
ATOM     27  C   UNL     1      48.995   4.119  18.898  0.00  0.00    +0.000 C 
ATOM     28  O   UNL     1      50.035   4.668  19.235  0.00  0.00    +0.000 OA
ATOM     29  H   UNL     1      48.846   3.004  20.585  0.00  0.00    +0.000 HD
ATOM     30  H   UNL     1      47.669   2.569  19.399  0.00  0.00    +0.000 HD
ENDBRANCH  18  27
ENDBRANCH  17  22
ENDBRANCH   1  17
TORSDOF 5
ENDMDL
MODEL 6
REMARK VINA RESULT:    -8.239      3.277      7.873
REMARK INTER + INTRA:         -11.554
REMARK INTER:                 -10.786
REMARK INTRA:                  -0.768
REMARK UNBOUND:                -0.907
REMARK  Name = 
REMARK  5 active torsions:
REMARK  status: ('A' for Active; 'I' for Inactive)
REMARK    1  A    between atoms: C_2  and  C_4
REMARK    2  A    between atoms: N_8  and  C_9
REMARK    3  A    between atoms: C_9  and  C_10
REMARK    4  A    between atoms: C_10  and  C_13
REMARK    5  A    between atoms: C_17  and  C_18
REMARK                            x       y       z     vdW  Elec       q    Type
REMARK                         _______ _______ _______ _____ _____    ______ ____
ROOT
ATOM      1  C   UNL     1      45.985   7.369  12.057  0.00  0.00    +0.000 C 
ATOM      2  F   UNL     1      45.462   7.741  13.263  0.00  0.00    +0.000 F 
ATOM      3  F   UNL     1      46.000   8.515  11.306  0.00  0.00    +0.000 F 
ENDROOT
BRANCH   1   4
ATOM      4  C   UNL     1      45.166   6.271  11.407  0.00  0.00    +0.000 A 
ATOM      5  C   UNL     1      43.812   6.107  11.720  0.00  0.00    +0.000 A 
ATOM      6  C   UNL     1      43.068   5.109  11.098  0.00  0.00    +0.000 A 
ATOM      7  C   UNL     1      43.669   4.267  10.156  0.00  0.00    +0.000 A 
ATOM      8  C   UNL     1      45.020   4.413   9.796  0.00  0.00    +0.000 A 
ATOM      9  C   UNL     1      45.754   5.420  10.450  0.00  0.00    +0.000 A 
BRANCH   8  10
ATOM     10  C   UNL     1      45.640   3.559   8.760  0.00  0.00    +0.000 A 
ATOM     11  C   UNL     1      46.244   4.102   7.618  0.00  0.00    +0.000 A 
ATOM     12  N   UNL     1      46.853   3.390   6.634  0.00  0.00    +0.000 NA
ATOM     13  C   UNL     1      46.871   2.048   6.793  0.00  0.00    +0.000 A 
ATOM     14  C   UNL     1      46.309   1.406   7.878  0.00  0.00    +0.000 A 
ATOM     15  F   UNL     1      46.366   0.073   7.985  0.00  0.00    +0.000 F 
ATOM     16  C   UNL     1      45.685   2.161   8.864  0.00  0.00    +0.000 A 
ENDBRANCH   8  10
ENDBRANCH   1   4
BRANCH   1  17
ATOM     17  C   UNL     1      47.450   6.909  12.256  0.00  0.00    +0.000 C 
BRANCH  17  22
ATOM     18  C   UNL     1      47.801   4.172  16.385  0.00  0.00    +0.000 A 
ATOM     19  C   UNL     1      47.111   4.098  15.199  0.00  0.00    +0.000 A 
ATOM     20  N   UNL     1      47.144   5.065  14.255  0.00  0.00    +0.000 NA
ATOM     21  C   UNL     1      47.893   6.149  14.514  0.00  0.00    +0.000 A 
ATOM     22  N   UNL     1      47.950   7.181  13.605  0.00  0.00    +0.000 N 
ATOM     23  N   UNL     1      48.607   6.307  15.635  0.00  0.00    +0.000 NA
ATOM     24  C   UNL     1      48.525   5.326  16.565  0.00  0.00    +0.000 A 
ATOM     25  H   UNL     1      48.824   7.685  13.699  0.00  0.00    +0.000 HD
BRANCH  18  27
ATOM     26  N   UNL     1      48.932   2.861  18.083  0.00  0.00    +0.000 N 
ATOM     27  C   UNL     1      47.767   3.131  17.419  0.00  0.00    +0.000 C 
ATOM     28  O   UNL     1      46.726   2.552  17.700  0.00  0.00    +0.000 OA
ATOM     29  H   UNL     1      48.859   2.213  18.859  0.00  0.00    +0.000 HD
ATOM     30  H   UNL     1      49.733   3.477  18.072  0.00  0.00    +0.000 HD
ENDBRANCH  18  27
ENDBRANCH  17  22
ENDBRANCH   1  17
TORSDOF 5
ENDMDL
MODEL 7
REMARK VINA RESULT:    -7.986      2.998      3.816
REMARK INTER + INTRA:         -11.227
REMARK INTER:                 -10.419
REMARK INTRA:                  -0.807
REMARK UNBOUND:                -0.907
REMARK  Name = 
REMARK  5 active torsions:
REMARK  status: ('A' for Active; 'I' for Inactive)
REMARK    1  A    between atoms: C_2  and  C_4
REMARK    2  A    between atoms: N_8  and  C_9
REMARK    3  A    between atoms: C_9  and  C_10
REMARK    4  A    between atoms: C_10  and  C_13
REMARK    5  A    between atoms: C_17  and  C_18
REMARK                            x       y       z     vdW  Elec       q    Type
REMARK                         _______ _______ _______ _____ _____    ______ ____
ROOT
ATOM      1  C   UNL     1      44.769   5.764  12.057  0.00  0.00    +0.000 C 
ATOM      2  F   UNL     1      43.843   5.673  13.058  0.00  0.00    +0.000 F 
ATOM      3  F   UNL     1      45.645   4.736  12.287  0.00  0.00    +0.000 F 
ENDROOT
BRANCH   1   4
ATOM      4  C   UNL     1      45.459   7.115  12.056  0.00  0.00    +0.000 A 
ATOM      5  C   UNL     1      44.715   8.299  12.075  0.00  0.00    +0.000 A 
ATOM      6  C   UNL     1      45.363   9.530  12.097  0.00  0.00    +0.000 A 
ATOM      7  C   UNL     1      46.761   9.589  12.102  0.00  0.00    +0.000 A 
ATOM      8  C   UNL     1      47.546   8.422  12.106  0.00  0.00    +0.000 A 
ATOM      9  C   UNL     1      46.866   7.191  12.070  0.00  0.00    +0.000 A 
BRANCH   8  10
ATOM     10  C   UNL     1      49.022   8.485  12.168  0.00  0.00    +0.000 A 
ATOM     11  C   UNL     1      49.690   9.186  13.182  0.00  0.00    +0.000 A 
ATOM     12  N   UNL     1      51.039   9.273  13.322  0.00  0.00    +0.000 NA
ATOM     13  C   UNL     1      51.778   8.617  12.401  0.00  0.00    +0.000 A 
ATOM     14  C   UNL     1      51.227   7.895  11.362  0.00  0.00    +0.000 A 
ATOM     15  F   UNL     1      52.011   7.257  10.483  0.00  0.00    +0.000 F 
ATOM     16  C   UNL     1      49.844   7.831  11.238  0.00  0.00    +0.000 A 
ENDBRANCH   8  10
ENDBRANCH   1   4
BRANCH   1  17
ATOM     17  C   UNL     1      44.076   5.506  10.696  0.00  0.00    +0.000 C 
BRANCH  17  22
ATOM     18  C   UNL     1      46.613   2.733   7.450  0.00  0.00    +0.000 A 
ATOM     19  C   UNL     1      46.385   4.073   7.648  0.00  0.00    +0.000 A 
ATOM     20  N   UNL     1      45.552   4.557   8.596  0.00  0.00    +0.000 NA
ATOM     21  C   UNL     1      44.920   3.661   9.371  0.00  0.00    +0.000 A 
ATOM     22  N   UNL     1      44.040   4.087  10.340  0.00  0.00    +0.000 N 
ATOM     23  N   UNL     1      45.086   2.337   9.262  0.00  0.00    +0.000 NA
ATOM     24  C   UNL     1      45.909   1.896   8.281  0.00  0.00    +0.000 A 
ATOM     25  H   UNL     1      43.984   3.406  11.089  0.00  0.00    +0.000 HD
BRANCH  18  27
ATOM     26  N   UNL     1      47.813   3.007   5.360  0.00  0.00    +0.000 N 
ATOM     27  C   UNL     1      47.510   2.198   6.420  0.00  0.00    +0.000 C 
ATOM     28  O   UNL     1      47.998   1.080   6.525  0.00  0.00    +0.000 OA
ATOM     29  H   UNL     1      48.512   2.653   4.717  0.00  0.00    +0.000 HD
ATOM     30  H   UNL     1      47.651   4.005   5.360  0.00  0.00    +0.000 HD
ENDBRANCH  18  27
ENDBRANCH  17  22
ENDBRANCH   1  17
TORSDOF 5
ENDMDL
MODEL 8
REMARK VINA RESULT:    -7.972      2.190      2.833
REMARK INTER + INTRA:         -11.209
REMARK INTER:                 -10.699
REMARK INTRA:                  -0.510
REMARK UNBOUND:                -0.907
REMARK  Name = 
REMARK  5 active torsions:
REMARK  status: ('A' for Active; 'I' for Inactive)
REMARK    1  A    between atoms: C_2  and  C_4
REMARK    2  A    between atoms: N_8  and  C_9
REMARK    3  A    between atoms: C_9  and  C_10
REMARK    4  A    between atoms: C_10  and  C_13
REMARK    5  A    between atoms: C_17  and  C_18
REMARK                            x       y       z     vdW  Elec       q    Type
REMARK                         _______ _______ _______ _____ _____    ______ ____
ROOT
ATOM      1  C   UNL     1      43.058   5.550  11.911  0.00  0.00    +0.000 C 
ATOM      2  F   UNL     1      41.746   5.919  11.806  0.00  0.00    +0.000 F 
ATOM      3  F   UNL     1      43.149   4.894  13.110  0.00  0.00    +0.000 F 
ENDROOT
BRANCH   1   4
ATOM      4  C   UNL     1      43.982   6.751  11.844  0.00  0.00    +0.000 A 
ATOM      5  C   UNL     1      43.547   7.960  11.290  0.00  0.00    +0.000 A 
ATOM      6  C   UNL     1      44.400   9.058  11.257  0.00  0.00    +0.000 A 
ATOM      7  C   UNL     1      45.694   8.961  11.781  0.00  0.00    +0.000 A 
ATOM      8  C   UNL     1      46.162   7.773  12.368  0.00  0.00    +0.000 A 
ATOM      9  C   UNL     1      45.285   6.672  12.375  0.00  0.00    +0.000 A 
BRANCH   8  10
ATOM     10  C   UNL     1      47.509   7.688  12.971  0.00  0.00    +0.000 A 
ATOM     11  C   UNL     1      48.623   8.304  12.384  0.00  0.00    +0.000 A 
ATOM     12  N   UNL     1      49.886   8.293  12.885  0.00  0.00    +0.000 NA
ATOM     13  C   UNL     1      50.059   7.632  14.051  0.00  0.00    +0.000 A 
ATOM     14  C   UNL     1      49.034   6.990  14.717  0.00  0.00    +0.000 A 
ATOM     15  F   UNL     1      49.264   6.358  15.875  0.00  0.00    +0.000 F 
ATOM     16  C   UNL     1      47.754   7.011  14.176  0.00  0.00    +0.000 A 
ENDBRANCH   8  10
ENDBRANCH   1   4
BRANCH   1  17
ATOM     17  C   UNL     1      43.396   4.541  10.787  0.00  0.00    +0.000 C 
BRANCH  17  22
ATOM     18  C   UNL     1      46.493   2.355   7.579  0.00  0.00    +0.000 A 
ATOM     19  C   UNL     1      45.743   1.962   8.660  0.00  0.00    +0.000 A 
ATOM     20  N   UNL     1      45.033   2.820   9.427  0.00  0.00    +0.000 NA
ATOM     21  C   UNL     1      45.084   4.121   9.099  0.00  0.00    +0.000 A 
ATOM     22  N   UNL     1      44.404   5.049   9.854  0.00  0.00    +0.000 N 
ATOM     23  N   UNL     1      45.778   4.598   8.059  0.00  0.00    +0.000 NA
ATOM     24  C   UNL     1      46.495   3.707   7.333  0.00  0.00    +0.000 A 
ATOM     25  H   UNL     1      44.170   5.858   9.290  0.00  0.00    +0.000 HD
BRANCH  18  27
ATOM     26  N   UNL     1      48.292   1.960   6.001  0.00  0.00    +0.000 N 
ATOM     27  C   UNL     1      47.272   1.433   6.744  0.00  0.00    +0.000 C 
ATOM     28  O   UNL     1      47.038   0.232   6.739  0.00  0.00    +0.000 OA
ATOM     29  H   UNL     1      48.877   1.291   5.514  0.00  0.00    +0.000 HD
ATOM     30  H   UNL     1      48.684   2.877   6.167  0.00  0.00    +0.000 HD
ENDBRANCH  18  27
ENDBRANCH  17  22
ENDBRANCH   1  17
TORSDOF 5
ENDMDL
MODEL 9
REMARK VINA RESULT:    -7.817      3.712      8.040
REMARK INTER + INTRA:         -11.009
REMARK INTER:                  -9.995
REMARK INTRA:                  -1.015
REMARK UNBOUND:                -0.907
REMARK  Name = 
REMARK  5 active torsions:
REMARK  status: ('A' for Active; 'I' for Inactive)
REMARK    1  A    between atoms: C_2  and  C_4
REMARK    2  A    between atoms: N_8  and  C_9
REMARK    3  A    between atoms: C_9  and  C_10
REMARK    4  A    between atoms: C_10  and  C_13
REMARK    5  A    between atoms: C_17  and  C_18
REMARK                            x       y       z     vdW  Elec       q    Type
REMARK                         _______ _______ _______ _____ _____    ______ ____
ROOT
ATOM      1  C   UNL     1      48.378   8.376  12.332  0.00  0.00    +0.000 C 
ATOM      2  F   UNL     1      48.391   9.339  13.302  0.00  0.00    +0.000 F 
ATOM      3  F   UNL     1      48.994   8.950  11.252  0.00  0.00    +0.000 F 
ENDROOT
BRANCH   1   4
ATOM      4  C   UNL     1      46.966   7.925  12.012  0.00  0.00    +0.000 A 
ATOM      5  C   UNL     1      45.867   8.735  12.323  0.00  0.00    +0.000 A 
ATOM      6  C   UNL     1      44.580   8.316  12.002  0.00  0.00    +0.000 A 
ATOM      7  C   UNL     1      44.377   7.087  11.366  0.00  0.00    +0.000 A 
ATOM      8  C   UNL     1      45.455   6.254  11.015  0.00  0.00    +0.000 A 
ATOM      9  C   UNL     1      46.746   6.694  11.363  0.00  0.00    +0.000 A 
BRANCH   8  10
ATOM     10  C   UNL     1      45.243   4.982  10.292  0.00  0.00    +0.000 A 
ATOM     11  C   UNL     1      44.656   3.869  10.909  0.00  0.00    +0.000 A 
ATOM     12  N   UNL     1      44.408   2.675  10.310  0.00  0.00    +0.000 NA
ATOM     13  C   UNL     1      44.758   2.577   9.008  0.00  0.00    +0.000 A 
ATOM     14  C   UNL     1      45.340   3.609   8.301  0.00  0.00    +0.000 A 
ATOM     15  F   UNL     1      45.658   3.455   7.009  0.00  0.00    +0.000 F 
ATOM     16  C   UNL     1      45.591   4.816   8.943  0.00  0.00    +0.000 A 
ENDBRANCH   8  10
ENDBRANCH   1   4
BRANCH   1  17
ATOM     17  C   UNL     1      49.241   7.176  12.793  0.00  0.00    +0.000 C 
BRANCH  17  22
ATOM     18  C   UNL     1      47.963   4.433  16.731  0.00  0.00    +0.000 A 
ATOM     19  C   UNL     1      47.489   4.622  15.455  0.00  0.00    +0.000 A 
ATOM     20  N   UNL     1      48.003   5.529  14.595  0.00  0.00    +0.000 NA
ATOM     21  C   UNL     1      49.028   6.278  15.033  0.00  0.00    +0.000 A 
ATOM     22  N   UNL     1      49.581   7.237  14.215  0.00  0.00    +0.000 N 
ATOM     23  N   UNL     1      49.564   6.160  16.254  0.00  0.00    +0.000 NA
ATOM     24  C   UNL     1      49.001   5.257  17.092  0.00  0.00    +0.000 A 
ATOM     25  H   UNL     1      50.548   7.401  14.470  0.00  0.00    +0.000 HD
BRANCH  18  27
ATOM     26  N   UNL     1      48.099   3.234  18.834  0.00  0.00    +0.000 N 
ATOM     27  C   UNL     1      47.409   3.457  17.675  0.00  0.00    +0.000 C 
ATOM     28  O   UNL     1      46.348   2.888  17.448  0.00  0.00    +0.000 OA
ATOM     29  H   UNL     1      47.645   2.633  19.512  0.00  0.00    +0.000 HD
ATOM     30  H   UNL     1      48.820   3.853  19.178  0.00  0.00    +0.000 HD
ENDBRANCH  18  27
ENDBRANCH  17  22
ENDBRANCH   1  17
TORSDOF 5
ENDMDL
