MODEL 1
REMARK VINA RESULT:    -9.152      0.000      0.000
REMARK INTER + INTRA:         -12.699
REMARK INTER:                 -11.827
REMARK INTRA:                  -0.873
REMARK UNBOUND:                -0.873
REMARK  Name = 
REMARK  5 active torsions:
REMARK  status: ('A' for Active; 'I' for Inactive)
REMARK    1  A    between atoms: C_2  and  C_4
REMARK    2  A    between atoms: C_7  and  O_8
REMARK    3  A    between atoms: O_8  and  C_9
REMARK    4  A    between atoms: C_9  and  C_10
REMARK    5  A    between atoms: C_15  and  C_16
REMARK                            x       y       z     vdW  Elec       q    Type
REMARK                         _______ _______ _______ _____ _____    ______ ____
ROOT
ATOM      1  C   UNL     1      43.845   4.442  11.549  0.00  0.00    +0.000 C 
ENDROOT
BRANCH   1   2
ATOM      2  C   UNL     1      45.144   4.925  12.147  0.00  0.00    +0.000 A 
ATOM      3  C   UNL     1      45.745   6.111  11.705  0.00  0.00    +0.000 A 
ATOM      4  C   UNL     1      46.891   6.578  12.324  0.00  0.00    +0.000 A 
ATOM      5  F   UNL     1      47.459   7.715  11.898  0.00  0.00    +0.000 F 
ATOM      6  C   UNL     1      47.439   5.914  13.412  0.00  0.00    +0.000 A 
ATOM      7  C   UNL     1      46.834   4.758  13.930  0.00  0.00    +0.000 A 
ATOM      8  C   UNL     1      45.705   4.253  13.252  0.00  0.00    +0.000 A 
BRANCH   7   9
ATOM      9  C   UNL     1      47.313   4.153  15.188  0.00  0.00    +0.000 A 
ATOM     10  C   UNL     1      47.156   4.813  16.412  0.00  0.00    +0.000 A 
ATOM     11  C   UNL     1      47.581   4.203  17.585  0.00  0.00    +0.000 A 
ATOM     12  C   UNL     1      48.154   2.941  17.518  0.00  0.00    +0.000 A 
ATOM     13  C   UNL     1      48.271   2.345  16.271  0.00  0.00    +0.000 A 
ATOM     14  N   UNL     1      47.857   2.916  15.115  0.00  0.00    +0.000 NA
ENDBRANCH   7   9
ENDBRANCH   1   2
BRANCH   1  15
ATOM     15  O   UNL     1      43.824   4.650  10.135  0.00  0.00    +0.000 OA
BRANCH  15  19
ATOM     16  C   UNL     1      46.408   2.421   7.735  0.00  0.00    +0.000 A 
ATOM     17  C   UNL     1      45.623   1.749   8.677  0.00  0.00    +0.000 A 
ATOM     18  C   UNL     1      44.744   2.461   9.497  0.00  0.00    +0.000 A 
ATOM     19  C   UNL     1      44.642   3.848   9.386  0.00  0.00    +0.000 A 
ATOM     20  C   UNL     1      45.435   4.520   8.448  0.00  0.00    +0.000 A 
ATOM     21  C   UNL     1      46.321   3.812   7.630  0.00  0.00    +0.000 A 
BRANCH  16  23
ATOM     22  N   UNL     1      48.468   2.375   6.444  0.00  0.00    +0.000 N 
ATOM     23  C   UNL     1      47.361   1.691   6.860  0.00  0.00    +0.000 C 
ATOM     24  O   UNL     1      47.183   0.521   6.550  0.00  0.00    +0.000 OA
ATOM     25  H   UNL     1      49.158   1.840   5.931  0.00  0.00    +0.000 HD
ATOM     26  H   UNL     1      48.773   3.230   6.886  0.00  0.00    +0.000 HD
ENDBRANCH  16  23
ENDBRANCH  15  19
ENDBRANCH   1  15
TORSDOF 5
ENDMDL
MODEL 2
REMARK VINA RESULT:    -9.116      2.399      3.947
REMARK INTER + INTRA:         -12.654
REMARK INTER:                 -11.548
REMARK INTRA:                  -1.105
REMARK UNBOUND:                -0.873
REMARK  Name = 
REMARK  5 active torsions:
REMARK  status: ('A' for Active; 'I' for Inactive)
REMARK    1  A    between atoms: C_2  and  C_4
REMARK    2  A    between atoms: C_7  and  O_8
REMARK    3  A    between atoms: O_8  and  C_9
REMARK    4  A    between atoms: C_9  and  C_10
REMARK    5  A    between atoms: C_15  and  C_16
REMARK                            x       y       z     vdW  Elec       q    Type
REMARK                         _______ _______ _______ _____ _____    ______ ____
ROOT
ATOM      1  C   UNL     1      43.474   4.475  11.307  0.00  0.00    +0.000 C 
ENDROOT
BRANCH   1   2
ATOM      2  C   UNL     1      44.720   4.834  12.079  0.00  0.00    +0.000 A 
ATOM      3  C   UNL     1      45.403   3.872  12.834  0.00  0.00    +0.000 A 
ATOM      4  C   UNL     1      46.590   4.202  13.466  0.00  0.00    +0.000 A 
ATOM      5  F   UNL     1      47.239   3.276  14.184  0.00  0.00    +0.000 F 
ATOM      6  C   UNL     1      47.145   5.466  13.331  0.00  0.00    +0.000 A 
ATOM      7  C   UNL     1      46.530   6.442  12.531  0.00  0.00    +0.000 A 
ATOM      8  C   UNL     1      45.289   6.118  11.946  0.00  0.00    +0.000 A 
BRANCH   7   9
ATOM      9  C   UNL     1      47.206   7.722  12.247  0.00  0.00    +0.000 A 
ATOM     10  C   UNL     1      48.548   7.758  11.854  0.00  0.00    +0.000 A 
ATOM     11  C   UNL     1      49.149   8.974  11.555  0.00  0.00    +0.000 A 
ATOM     12  C   UNL     1      48.397  10.137  11.650  0.00  0.00    +0.000 A 
ATOM     13  C   UNL     1      47.070  10.024  12.037  0.00  0.00    +0.000 A 
ATOM     14  N   UNL     1      46.461   8.850  12.327  0.00  0.00    +0.000 NA
ENDBRANCH   7   9
ENDBRANCH   1   2
BRANCH   1  15
ATOM     15  O   UNL     1      43.661   4.689   9.905  0.00  0.00    +0.000 OA
BRANCH  15  19
ATOM     16  C   UNL     1      46.323   2.246   7.821  0.00  0.00    +0.000 A 
ATOM     17  C   UNL     1      45.422   1.650   8.708  0.00  0.00    +0.000 A 
ATOM     18  C   UNL     1      44.514   2.434   9.422  0.00  0.00    +0.000 A 
ATOM     19  C   UNL     1      44.498   3.821   9.259  0.00  0.00    +0.000 A 
ATOM     20  C   UNL     1      45.406   4.417   8.376  0.00  0.00    +0.000 A 
ATOM     21  C   UNL     1      46.321   3.635   7.664  0.00  0.00    +0.000 A 
BRANCH  16  23
ATOM     22  N   UNL     1      48.413   2.090   6.586  0.00  0.00    +0.000 N 
ATOM     23  C   UNL     1      47.309   1.437   7.058  0.00  0.00    +0.000 C 
ATOM     24  O   UNL     1      47.159   0.235   6.887  0.00  0.00    +0.000 OA
ATOM     25  H   UNL     1      49.123   1.512   6.156  0.00  0.00    +0.000 HD
ATOM     26  H   UNL     1      48.691   2.997   6.929  0.00  0.00    +0.000 HD
ENDBRANCH  16  23
ENDBRANCH  15  19
ENDBRANCH   1  15
TORSDOF 5
ENDMDL
MODEL 3
REMARK VINA RESULT:    -8.588      2.498      4.519
REMARK INTER + INTRA:         -11.970
REMARK INTER:                 -10.896
REMARK INTRA:                  -1.075
REMARK UNBOUND:                -0.873
REMARK  Name = 
REMARK  5 active torsions:
REMARK  status: ('A' for Active; 'I' for Inactive)
REMARK    1  A    between atoms: C_2  and  C_4
REMARK    2  A    between atoms: C_7  and  O_8
REMARK    3  A    between atoms: O_8  and  C_9
REMARK    4  A    between atoms: C_9  and  C_10
REMARK    5  A    between atoms: C_15  and  C_16
REMARK                            x       y       z     vdW  Elec       q    Type
REMARK                         _______ _______ _______ _____ _____    ______ ____
ROOT
ATOM      1  C   UNL     1      43.566   4.103  11.518  0.00  0.00    +0.000 C 
ENDROOT
BRANCH   1   2
ATOM      2  C   UNL     1      44.565   4.995  12.214  0.00  0.00    +0.000 A 
ATOM      3  C   UNL     1      45.575   4.456  13.021  0.00  0.00    +0.000 A 
ATOM      4  C   UNL     1      46.531   5.285  13.581  0.00  0.00    +0.000 A 
ATOM      5  F   UNL     1      47.496   4.762  14.349  0.00  0.00    +0.000 F 
ATOM      6  C   UNL     1      46.535   6.649  13.324  0.00  0.00    +0.000 A 
ATOM      7  C   UNL     1      45.580   7.224  12.470  0.00  0.00    +0.000 A 
ATOM      8  C   UNL     1      44.573   6.382  11.957  0.00  0.00    +0.000 A 
BRANCH   7   9
ATOM      9  C   UNL     1      45.688   8.637  12.060  0.00  0.00    +0.000 A 
ATOM     10  C   UNL     1      44.599   9.309  11.494  0.00  0.00    +0.000 A 
ATOM     11  C   UNL     1      44.715  10.650  11.153  0.00  0.00    +0.000 A 
ATOM     12  C   UNL     1      45.919  11.301  11.385  0.00  0.00    +0.000 A 
ATOM     13  C   UNL     1      46.953  10.573  11.955  0.00  0.00    +0.000 A 
ATOM     14  N   UNL     1      46.860   9.268  12.303  0.00  0.00    +0.000 NA
ENDBRANCH   7   9
ENDBRANCH   1   2
BRANCH   1  15
ATOM     15  O   UNL     1      43.522   4.380  10.116  0.00  0.00    +0.000 OA
BRANCH  15  19
ATOM     16  C   UNL     1      46.348   2.312   7.849  0.00  0.00    +0.000 A 
ATOM     17  C   UNL     1      46.277   3.703   7.723  0.00  0.00    +0.000 A 
ATOM     18  C   UNL     1      45.346   4.430   8.468  0.00  0.00    +0.000 A 
ATOM     19  C   UNL     1      44.476   3.777   9.342  0.00  0.00    +0.000 A 
ATOM     20  C   UNL     1      44.543   2.384   9.460  0.00  0.00    +0.000 A 
ATOM     21  C   UNL     1      45.470   1.651   8.712  0.00  0.00    +0.000 A 
BRANCH  16  23
ATOM     22  N   UNL     1      48.404   2.178   6.557  0.00  0.00    +0.000 N 
ATOM     23  C   UNL     1      47.321   1.513   7.059  0.00  0.00    +0.000 C 
ATOM     24  O   UNL     1      47.180   0.310   6.892  0.00  0.00    +0.000 OA
ATOM     25  H   UNL     1      49.109   1.608   6.106  0.00  0.00    +0.000 HD
ATOM     26  H   UNL     1      48.682   3.088   6.892  0.00  0.00    +0.000 HD
ENDBRANCH  16  23
ENDBRANCH  15  19
ENDBRANCH   1  15
TORSDOF 5
ENDMDL
MODEL 4
REMARK VINA RESULT:    -8.173      2.327      2.941
REMARK INTER + INTRA:         -11.434
REMARK INTER:                 -10.612
REMARK INTRA:                  -0.822
REMARK UNBOUND:                -0.873
REMARK  Name = 
REMARK  5 active torsions:
REMARK  status: ('A' for Active; 'I' for Inactive)
REMARK    1  A    between atoms: C_2  and  C_4
REMARK    2  A    between atoms: C_7  and  O_8
REMARK    3  A    between atoms: O_8  and  C_9
REMARK    4  A    between atoms: C_9  and  C_10
REMARK    5  A    between atoms: C_15  and  C_16
REMARK                            x       y       z     vdW  Elec       q    Type
REMARK                         _______ _______ _______ _____ _____    ______ ____
ROOT
ATOM      1  C   UNL     1      44.075   3.717  11.598  0.00  0.00    +0.000 C 
ENDROOT
BRANCH   1   2
ATOM      2  C   UNL     1      44.624   5.123  11.627  0.00  0.00    +0.000 A 
ATOM      3  C   UNL     1      43.820   6.219  11.288  0.00  0.00    +0.000 A 
ATOM      4  C   UNL     1      44.318   7.505  11.402  0.00  0.00    +0.000 A 
ATOM      5  F   UNL     1      43.542   8.548  11.080  0.00  0.00    +0.000 F 
ATOM      6  C   UNL     1      45.596   7.737  11.890  0.00  0.00    +0.000 A 
ATOM      7  C   UNL     1      46.414   6.673  12.302  0.00  0.00    +0.000 A 
ATOM      8  C   UNL     1      45.923   5.364  12.121  0.00  0.00    +0.000 A 
BRANCH   7   9
ATOM      9  C   UNL     1      47.700   6.927  12.981  0.00  0.00    +0.000 A 
ATOM     10  C   UNL     1      48.732   7.616  12.335  0.00  0.00    +0.000 A 
ATOM     11  C   UNL     1      49.917   7.876  13.011  0.00  0.00    +0.000 A 
ATOM     12  C   UNL     1      50.052   7.446  14.323  0.00  0.00    +0.000 A 
ATOM     13  C   UNL     1      48.984   6.775  14.901  0.00  0.00    +0.000 A 
ATOM     14  N   UNL     1      47.817   6.517  14.265  0.00  0.00    +0.000 NA
ENDBRANCH   7   9
ENDBRANCH   1   2
BRANCH   1  15
ATOM     15  O   UNL     1      43.587   3.385  10.296  0.00  0.00    +0.000 OA
BRANCH  15  19
ATOM     16  C   UNL     1      46.438   2.544   7.369  0.00  0.00    +0.000 A 
ATOM     17  C   UNL     1      46.043   1.518   8.232  0.00  0.00    +0.000 A 
ATOM     18  C   UNL     1      45.089   1.760   9.223  0.00  0.00    +0.000 A 
ATOM     19  C   UNL     1      44.523   3.028   9.363  0.00  0.00    +0.000 A 
ATOM     20  C   UNL     1      44.925   4.056   8.503  0.00  0.00    +0.000 A 
ATOM     21  C   UNL     1      45.885   3.820   7.514  0.00  0.00    +0.000 A 
BRANCH  16  23
ATOM     22  N   UNL     1      47.465   3.186   5.260  0.00  0.00    +0.000 N 
ATOM     23  C   UNL     1      47.461   2.317   6.315  0.00  0.00    +0.000 C 
ATOM     24  O   UNL     1      48.283   1.416   6.399  0.00  0.00    +0.000 OA
ATOM     25  H   UNL     1      48.225   3.084   4.600  0.00  0.00    +0.000 HD
ATOM     26  H   UNL     1      46.989   4.076   5.291  0.00  0.00    +0.000 HD
ENDBRANCH  16  23
ENDBRANCH  15  19
ENDBRANCH   1  15
TORSDOF 5
ENDMDL
MODEL 5
REMARK VINA RESULT:    -8.116      2.689      3.368
REMARK INTER + INTRA:         -11.361
REMARK INTER:                 -10.547
REMARK INTRA:                  -0.813
REMARK UNBOUND:                -0.873
REMARK  Name = 
REMARK  5 active torsions:
REMARK  status: ('A' for Active; 'I' for Inactive)
REMARK    1  A    between atoms: C_2  and  C_4
REMARK    2  A    between atoms: C_7  and  O_8
REMARK    3  A    between atoms: O_8  and  C_9
REMARK    4  A    between atoms: C_9  and  C_10
REMARK    5  A    between atoms: C_15  and  C_16
REMARK                            x       y       z     vdW  Elec       q    Type
REMARK                         _______ _______ _______ _____ _____    ______ ____
ROOT
ATOM      1  C   UNL     1      44.126   3.329  11.590  0.00  0.00    +0.000 C 
ENDROOT
BRANCH   1   2
ATOM      2  C   UNL     1      44.488   4.794  11.541  0.00  0.00    +0.000 A 
ATOM      3  C   UNL     1      43.515   5.770  11.290  0.00  0.00    +0.000 A 
ATOM      4  C   UNL     1      43.852   7.111  11.332  0.00  0.00    +0.000 A 
ATOM      5  F   UNL     1      42.915   8.039  11.094  0.00  0.00    +0.000 F 
ATOM      6  C   UNL     1      45.137   7.516  11.664  0.00  0.00    +0.000 A 
ATOM      7  C   UNL     1      46.128   6.575  11.987  0.00  0.00    +0.000 A 
ATOM      8  C   UNL     1      45.792   5.211  11.876  0.00  0.00    +0.000 A 
BRANCH   7   9
ATOM      9  C   UNL     1      47.439   7.008  12.506  0.00  0.00    +0.000 A 
ATOM     10  C   UNL     1      47.815   6.742  13.828  0.00  0.00    +0.000 A 
ATOM     11  C   UNL     1      49.071   7.125  14.279  0.00  0.00    +0.000 A 
ATOM     12  C   UNL     1      49.934   7.767  13.403  0.00  0.00    +0.000 A 
ATOM     13  C   UNL     1      49.497   7.991  12.106  0.00  0.00    +0.000 A 
ATOM     14  N   UNL     1      48.281   7.619  11.640  0.00  0.00    +0.000 NA
ENDBRANCH   7   9
ENDBRANCH   1   2
BRANCH   1  15
ATOM     15  O   UNL     1      43.659   2.874  10.317  0.00  0.00    +0.000 OA
BRANCH  15  19
ATOM     16  C   UNL     1      46.500   2.510   7.284  0.00  0.00    +0.000 A 
ATOM     17  C   UNL     1      45.867   3.744   7.463  0.00  0.00    +0.000 A 
ATOM     18  C   UNL     1      44.913   3.906   8.470  0.00  0.00    +0.000 A 
ATOM     19  C   UNL     1      44.579   2.837   9.305  0.00  0.00    +0.000 A 
ATOM     20  C   UNL     1      45.207   1.601   9.118  0.00  0.00    +0.000 A 
ATOM     21  C   UNL     1      46.159   1.433   8.107  0.00  0.00    +0.000 A 
BRANCH  16  23
ATOM     22  N   UNL     1      47.343   3.026   5.062  0.00  0.00    +0.000 N 
ATOM     23  C   UNL     1      47.509   2.307   6.212  0.00  0.00    +0.000 C 
ATOM     24  O   UNL     1      48.464   1.557   6.361  0.00  0.00    +0.000 OA
ATOM     25  H   UNL     1      48.087   2.955   4.380  0.00  0.00    +0.000 HD
ATOM     26  H   UNL     1      46.735   3.830   5.011  0.00  0.00    +0.000 HD
ENDBRANCH  16  23
ENDBRANCH  15  19
ENDBRANCH   1  15
TORSDOF 5
ENDMDL
MODEL 6
REMARK VINA RESULT:    -7.637      3.674      7.203
REMARK INTER + INTRA:         -10.741
REMARK INTER:                  -9.756
REMARK INTRA:                  -0.985
REMARK UNBOUND:                -0.873
REMARK  Name = 
REMARK  5 active torsions:
REMARK  status: ('A' for Active; 'I' for Inactive)
REMARK    1  A    between atoms: C_2  and  C_4
REMARK    2  A    between atoms: C_7  and  O_8
REMARK    3  A    between atoms: O_8  and  C_9
REMARK    4  A    between atoms: C_9  and  C_10
REMARK    5  A    between atoms: C_15  and  C_16
REMARK                            x       y       z     vdW  Elec       q    Type
REMARK                         _______ _______ _______ _____ _____    ______ ____
ROOT
ATOM      1  C   UNL     1      44.325   6.632  11.355  0.00  0.00    +0.000 C 
ENDROOT
BRANCH   1   2
ATOM      2  C   UNL     1      44.400   5.174  10.975  0.00  0.00    +0.000 A 
ATOM      3  C   UNL     1      43.563   4.226  11.578  0.00  0.00    +0.000 A 
ATOM      4  C   UNL     1      43.590   2.909  11.155  0.00  0.00    +0.000 A 
ATOM      5  F   UNL     1      42.784   2.009  11.734  0.00  0.00    +0.000 F 
ATOM      6  C   UNL     1      44.406   2.511  10.106  0.00  0.00    +0.000 A 
ATOM      7  C   UNL     1      45.214   3.439   9.429  0.00  0.00    +0.000 A 
ATOM      8  C   UNL     1      45.229   4.764   9.910  0.00  0.00    +0.000 A 
BRANCH   7   9
ATOM      9  C   UNL     1      45.946   3.053   8.208  0.00  0.00    +0.000 A 
ATOM     10  C   UNL     1      46.408   1.745   8.025  0.00  0.00    +0.000 A 
ATOM     11  C   UNL     1      47.060   1.399   6.849  0.00  0.00    +0.000 A 
ATOM     12  C   UNL     1      47.239   2.366   5.870  0.00  0.00    +0.000 A 
ATOM     13  C   UNL     1      46.748   3.640   6.116  0.00  0.00    +0.000 A 
ATOM     14  N   UNL     1      46.103   3.998   7.251  0.00  0.00    +0.000 NA
ENDBRANCH   7   9
ENDBRANCH   1   2
BRANCH   1  15
ATOM     15  O   UNL     1      44.977   6.870  12.606  0.00  0.00    +0.000 OA
BRANCH  15  19
ATOM     16  C   UNL     1      49.057   7.710  12.393  0.00  0.00    +0.000 A 
ATOM     17  C   UNL     1      48.656   6.457  12.866  0.00  0.00    +0.000 A 
ATOM     18  C   UNL     1      47.299   6.138  12.949  0.00  0.00    +0.000 A 
ATOM     19  C   UNL     1      46.331   7.066  12.564  0.00  0.00    +0.000 A 
ATOM     20  C   UNL     1      46.734   8.323  12.098  0.00  0.00    +0.000 A 
ATOM     21  C   UNL     1      48.091   8.649  12.019  0.00  0.00    +0.000 A 
BRANCH  16  23
ATOM     22  N   UNL     1      51.224   7.999  13.458  0.00  0.00    +0.000 N 
ATOM     23  C   UNL     1      50.494   8.081  12.306  0.00  0.00    +0.000 C 
ATOM     24  O   UNL     1      51.010   8.413  11.248  0.00  0.00    +0.000 OA
ATOM     25  H   UNL     1      52.220   8.157  13.368  0.00  0.00    +0.000 HD
ATOM     26  H   UNL     1      50.903   7.487  14.266  0.00  0.00    +0.000 HD
ENDBRANCH  16  23
ENDBRANCH  15  19
ENDBRANCH   1  15
TORSDOF 5
ENDMDL
MODEL 7
REMARK VINA RESULT:    -7.601      3.785      7.283
REMARK INTER + INTRA:         -10.695
REMARK INTER:                  -9.758
REMARK INTRA:                  -0.937
REMARK UNBOUND:                -0.873
REMARK  Name = 
REMARK  5 active torsions:
REMARK  status: ('A' for Active; 'I' for Inactive)
REMARK    1  A    between atoms: C_2  and  C_4
REMARK    2  A    between atoms: C_7  and  O_8
REMARK    3  A    between atoms: O_8  and  C_9
REMARK    4  A    between atoms: C_9  and  C_10
REMARK    5  A    between atoms: C_15  and  C_16
REMARK                            x       y       z     vdW  Elec       q    Type
REMARK                         _______ _______ _______ _____ _____    ______ ____
ROOT
ATOM      1  C   UNL     1      44.362   6.694  11.301  0.00  0.00    +0.000 C 
ENDROOT
BRANCH   1   2
ATOM      2  C   UNL     1      44.433   5.229  10.942  0.00  0.00    +0.000 A 
ATOM      3  C   UNL     1      43.599   4.292  11.564  0.00  0.00    +0.000 A 
ATOM      4  C   UNL     1      43.622   2.968  11.161  0.00  0.00    +0.000 A 
ATOM      5  F   UNL     1      42.819   2.078  11.759  0.00  0.00    +0.000 F 
ATOM      6  C   UNL     1      44.432   2.553  10.114  0.00  0.00    +0.000 A 
ATOM      7  C   UNL     1      45.236   3.470   9.418  0.00  0.00    +0.000 A 
ATOM      8  C   UNL     1      45.255   4.802   9.879  0.00  0.00    +0.000 A 
BRANCH   7   9
ATOM      9  C   UNL     1      45.961   3.065   8.198  0.00  0.00    +0.000 A 
ATOM     10  C   UNL     1      46.392   1.746   8.019  0.00  0.00    +0.000 A 
ATOM     11  C   UNL     1      47.037   1.383   6.844  0.00  0.00    +0.000 A 
ATOM     12  C   UNL     1      47.241   2.344   5.864  0.00  0.00    +0.000 A 
ATOM     13  C   UNL     1      46.781   3.629   6.108  0.00  0.00    +0.000 A 
ATOM     14  N   UNL     1      46.142   4.005   7.241  0.00  0.00    +0.000 NA
ENDBRANCH   7   9
ENDBRANCH   1   2
BRANCH   1  15
ATOM     15  O   UNL     1      45.026   6.950  12.540  0.00  0.00    +0.000 OA
BRANCH  15  19
ATOM     16  C   UNL     1      49.090   7.879  12.373  0.00  0.00    +0.000 A 
ATOM     17  C   UNL     1      48.162   8.877  12.059  0.00  0.00    +0.000 A 
ATOM     18  C   UNL     1      46.793   8.605  12.107  0.00  0.00    +0.000 A 
ATOM     19  C   UNL     1      46.338   7.335  12.465  0.00  0.00    +0.000 A 
ATOM     20  C   UNL     1      47.268   6.335  12.770  0.00  0.00    +0.000 A 
ATOM     21  C   UNL     1      48.640   6.602  12.718  0.00  0.00    +0.000 A 
BRANCH  16  23
ATOM     22  N   UNL     1      51.255   7.509  11.330  0.00  0.00    +0.000 N 
ATOM     23  C   UNL     1      50.552   8.138  12.318  0.00  0.00    +0.000 C 
ATOM     24  O   UNL     1      51.100   8.904  13.099  0.00  0.00    +0.000 OA
ATOM     25  H   UNL     1      52.229   7.768  11.240  0.00  0.00    +0.000 HD
ATOM     26  H   UNL     1      50.805   7.094  10.527  0.00  0.00    +0.000 HD
ENDBRANCH  16  23
ENDBRANCH  15  19
ENDBRANCH   1  15
TORSDOF 5
ENDMDL
MODEL 8
REMARK VINA RESULT:    -7.338      3.337      8.263
REMARK INTER + INTRA:         -10.356
REMARK INTER:                  -9.737
REMARK INTRA:                  -0.618
REMARK UNBOUND:                -0.873
REMARK  Name = 
REMARK  5 active torsions:
REMARK  status: ('A' for Active; 'I' for Inactive)
REMARK    1  A    between atoms: C_2  and  C_4
REMARK    2  A    between atoms: C_7  and  O_8
REMARK    3  A    between atoms: O_8  and  C_9
REMARK    4  A    between atoms: C_9  and  C_10
REMARK    5  A    between atoms: C_15  and  C_16
REMARK                            x       y       z     vdW  Elec       q    Type
REMARK                         _______ _______ _______ _____ _____    ______ ____
ROOT
ATOM      1  C   UNL     1      46.081   5.127  14.012  0.00  0.00    +0.000 C 
ENDROOT
BRANCH   1   2
ATOM      2  C   UNL     1      45.147   4.822  12.865  0.00  0.00    +0.000 A 
ATOM      3  C   UNL     1      43.835   5.313  12.853  0.00  0.00    +0.000 A 
ATOM      4  C   UNL     1      43.024   5.092  11.753  0.00  0.00    +0.000 A 
ATOM      5  F   UNL     1      41.771   5.567  11.747  0.00  0.00    +0.000 F 
ATOM      6  C   UNL     1      43.500   4.425  10.634  0.00  0.00    +0.000 A 
ATOM      7  C   UNL     1      44.828   3.973  10.576  0.00  0.00    +0.000 A 
ATOM      8  C   UNL     1      45.627   4.144  11.725  0.00  0.00    +0.000 A 
BRANCH   7   9
ATOM      9  C   UNL     1      45.385   3.422   9.326  0.00  0.00    +0.000 A 
ATOM     10  C   UNL     1      45.815   4.264   8.294  0.00  0.00    +0.000 A 
ATOM     11  C   UNL     1      46.371   3.720   7.144  0.00  0.00    +0.000 A 
ATOM     12  C   UNL     1      46.492   2.341   7.043  0.00  0.00    +0.000 A 
ATOM     13  C   UNL     1      46.051   1.569   8.107  0.00  0.00    +0.000 A 
ATOM     14  N   UNL     1      45.513   2.077   9.241  0.00  0.00    +0.000 NA
ENDBRANCH   7   9
ENDBRANCH   1   2
BRANCH   1  15
ATOM     15  O   UNL     1      46.772   3.949  14.436  0.00  0.00    +0.000 OA
BRANCH  15  19
ATOM     16  C   UNL     1      48.598   4.337  18.166  0.00  0.00    +0.000 A 
ATOM     17  C   UNL     1      48.072   3.093  17.805  0.00  0.00    +0.000 A 
ATOM     18  C   UNL     1      47.455   2.924  16.563  0.00  0.00    +0.000 A 
ATOM     19  C   UNL     1      47.356   3.994  15.673  0.00  0.00    +0.000 A 
ATOM     20  C   UNL     1      47.876   5.240  16.039  0.00  0.00    +0.000 A 
ATOM     21  C   UNL     1      48.489   5.416  17.284  0.00  0.00    +0.000 A 
BRANCH  16  23
ATOM     22  N   UNL     1      48.673   3.936  20.564  0.00  0.00    +0.000 N 
ATOM     23  C   UNL     1      49.248   4.549  19.486  0.00  0.00    +0.000 C 
ATOM     24  O   UNL     1      50.269   5.212  19.602  0.00  0.00    +0.000 OA
ATOM     25  H   UNL     1      49.177   4.005  21.438  0.00  0.00    +0.000 HD
ATOM     26  H   UNL     1      48.005   3.186  20.466  0.00  0.00    +0.000 HD
ENDBRANCH  16  23
ENDBRANCH  15  19
ENDBRANCH   1  15
TORSDOF 5
ENDMDL
MODEL 9
REMARK VINA RESULT:    -7.291      2.858      7.599
REMARK INTER + INTRA:         -10.294
REMARK INTER:                  -9.785
REMARK INTRA:                  -0.509
REMARK UNBOUND:                -0.873
REMARK  Name = 
REMARK  5 active torsions:
REMARK  status: ('A' for Active; 'I' for Inactive)
REMARK    1  A    between atoms: C_2  and  C_4
REMARK    2  A    between atoms: C_7  and  O_8
REMARK    3  A    between atoms: O_8  and  C_9
REMARK    4  A    between atoms: C_9  and  C_10
REMARK    5  A    between atoms: C_15  and  C_16
REMARK                            x       y       z     vdW  Elec       q    Type
REMARK                         _______ _______ _______ _____ _____    ______ ____
ROOT
ATOM      1  C   UNL     1      46.417   7.396  12.421  0.00  0.00    +0.000 C 
ENDROOT
BRANCH   1   2
ATOM      2  C   UNL     1      45.479   6.411  11.765  0.00  0.00    +0.000 A 
ATOM      3  C   UNL     1      44.095   6.486  11.972  0.00  0.00    +0.000 A 
ATOM      4  C   UNL     1      43.247   5.627  11.295  0.00  0.00    +0.000 A 
ATOM      5  F   UNL     1      41.924   5.707  11.495  0.00  0.00    +0.000 F 
ATOM      6  C   UNL     1      43.739   4.712  10.376  0.00  0.00    +0.000 A 
ATOM      7  C   UNL     1      45.111   4.646  10.089  0.00  0.00    +0.000 A 
ATOM      8  C   UNL     1      45.974   5.479  10.830  0.00  0.00    +0.000 A 
BRANCH   7   9
ATOM      9  C   UNL     1      45.613   3.799   8.990  0.00  0.00    +0.000 A 
ATOM     10  C   UNL     1      45.574   2.403   9.078  0.00  0.00    +0.000 A 
ATOM     11  C   UNL     1      46.017   1.630   8.013  0.00  0.00    +0.000 A 
ATOM     12  C   UNL     1      46.490   2.264   6.873  0.00  0.00    +0.000 A 
ATOM     13  C   UNL     1      46.493   3.651   6.853  0.00  0.00    +0.000 A 
ATOM     14  N   UNL     1      46.059   4.425   7.876  0.00  0.00    +0.000 NA
ENDBRANCH   7   9
ENDBRANCH   1   2
BRANCH   1  15
ATOM     15  O   UNL     1      47.670   6.780  12.731  0.00  0.00    +0.000 OA
BRANCH  15  19
ATOM     16  C   UNL     1      47.816   4.732  16.363  0.00  0.00    +0.000 A 
ATOM     17  C   UNL     1      48.542   5.920  16.235  0.00  0.00    +0.000 A 
ATOM     18  C   UNL     1      48.515   6.635  15.035  0.00  0.00    +0.000 A 
ATOM     19  C   UNL     1      47.767   6.170  13.953  0.00  0.00    +0.000 A 
ATOM     20  C   UNL     1      47.048   4.976  14.080  0.00  0.00    +0.000 A 
ATOM     21  C   UNL     1      47.077   4.254  15.277  0.00  0.00    +0.000 A 
BRANCH  16  23
ATOM     22  N   UNL     1      46.999   2.867  17.693  0.00  0.00    +0.000 N 
ATOM     23  C   UNL     1      47.837   3.945  17.623  0.00  0.00    +0.000 C 
ATOM     24  O   UNL     1      48.590   4.225  18.545  0.00  0.00    +0.000 OA
ATOM     25  H   UNL     1      47.092   2.282  18.513  0.00  0.00    +0.000 HD
ATOM     26  H   UNL     1      46.573   2.461  16.874  0.00  0.00    +0.000 HD
ENDBRANCH  16  23
ENDBRANCH  15  19
ENDBRANCH   1  15
TORSDOF 5
ENDMDL
