MODEL 1
REMARK VINA RESULT:    -9.271      0.000      0.000
REMARK INTER + INTRA:         -13.675
REMARK INTER:                 -12.523
REMARK INTRA:                  -1.152
REMARK UNBOUND:                -1.152
REMARK  Name = 
REMARK  6 active torsions:
REMARK  status: ('A' for Active; 'I' for Inactive)
REMARK    1  A    between atoms: C_2  and  C_4
REMARK    2  A    between atoms: C_7  and  N_8
REMARK    3  A    between atoms: N_8  and  C_9
REMARK    4  A    between atoms: C_9  and  C_10
REMARK    5  A    between atoms: C_10  and  C_13
REMARK    6  A    between atoms: C_17  and  C_18
REMARK                            x       y       z     vdW  Elec       q    Type
REMARK                         _______ _______ _______ _____ _____    ______ ____
ROOT
ATOM      1  C   UNL     1      43.527   5.569  12.119  0.00  0.00    +0.000 C 
ATOM      2  F   UNL     1      42.996   6.603  11.400  0.00  0.00    +0.000 F 
ATOM      3  F   UNL     1      42.796   5.520  13.275  0.00  0.00    +0.000 F 
ENDROOT
BRANCH   1   4
ATOM      4  C   UNL     1      45.007   5.764  12.387  0.00  0.00    +0.000 A 
ATOM      5  C   UNL     1      45.786   6.551  11.534  0.00  0.00    +0.000 A 
ATOM      6  C   UNL     1      47.131   6.766  11.811  0.00  0.00    +0.000 A 
ATOM      7  C   UNL     1      47.706   6.213  12.956  0.00  0.00    +0.000 A 
ATOM      8  C   UNL     1      46.952   5.435  13.853  0.00  0.00    +0.000 A 
ATOM      9  C   UNL     1      45.600   5.205  13.532  0.00  0.00    +0.000 A 
BRANCH   8  10
ATOM     10  C   UNL     1      47.540   4.921  15.107  0.00  0.00    +0.000 A 
ATOM     11  C   UNL     1      47.286   3.625  15.580  0.00  0.00    +0.000 A 
ATOM     12  C   UNL     1      47.829   3.200  16.791  0.00  0.00    +0.000 A 
ATOM     13  C   UNL     1      48.629   4.078  17.501  0.00  0.00    +0.000 A 
ATOM     14  F   UNL     1      49.149   3.668  18.665  0.00  0.00    +0.000 F 
ATOM     15  N   UNL     1      48.912   5.329  17.093  0.00  0.00    +0.000 NA
ATOM     16  C   UNL     1      48.361   5.713  15.919  0.00  0.00    +0.000 A 
ENDBRANCH   8  10
ENDBRANCH   1   4
BRANCH   1  17
ATOM     17  C   UNL     1      43.295   4.244  11.347  0.00  0.00    +0.000 C 
BRANCH  17  18
ATOM     18  N   UNL     1      43.470   4.390   9.894  0.00  0.00    +0.000 N 
ATOM     19  H   UNL     1      42.603   4.403   9.359  0.00  0.00    +0.000 HD
BRANCH  18  23
ATOM     20  C   UNL     1      46.536   2.500   7.708  0.00  0.00    +0.000 A 
ATOM     21  C   UNL     1      46.401   3.888   7.640  0.00  0.00    +0.000 A 
ATOM     22  C   UNL     1      45.404   4.532   8.384  0.00  0.00    +0.000 A 
ATOM     23  C   UNL     1      44.548   3.817   9.229  0.00  0.00    +0.000 A 
ATOM     24  C   UNL     1      44.700   2.424   9.288  0.00  0.00    +0.000 A 
ATOM     25  C   UNL     1      45.679   1.768   8.532  0.00  0.00    +0.000 A 
BRANCH  20  27
ATOM     26  N   UNL     1      48.595   2.476   6.407  0.00  0.00    +0.000 N 
ATOM     27  C   UNL     1      47.519   1.773   6.868  0.00  0.00    +0.000 C 
ATOM     28  O   UNL     1      47.387   0.582   6.609  0.00  0.00    +0.000 OA
ATOM     29  H   UNL     1      49.295   1.945   5.904  0.00  0.00    +0.000 HD
ATOM     30  H   UNL     1      48.867   3.368   6.797  0.00  0.00    +0.000 HD
ENDBRANCH  20  27
ENDBRANCH  18  23
ENDBRANCH  17  18
ENDBRANCH   1  17
TORSDOF 6
ENDMDL
MODEL 2
REMARK VINA RESULT:    -9.091      2.579      3.919
REMARK INTER + INTRA:         -13.433
REMARK INTER:                 -12.235
REMARK INTRA:                  -1.198
REMARK UNBOUND:                -1.152
REMARK  Name = 
REMARK  6 active torsions:
REMARK  status: ('A' for Active; 'I' for Inactive)
REMARK    1  A    between atoms: C_2  and  C_4
REMARK    2  A    between atoms: C_7  and  N_8
REMARK    3  A    between atoms: N_8  and  C_9
REMARK    4  A    between atoms: C_9  and  C_10
REMARK    5  A    between atoms: C_10  and  C_13
REMARK    6  A    between atoms: C_17  and  C_18
REMARK                            x       y       z     vdW  Elec       q    Type
REMARK                         _______ _______ _______ _____ _____    ______ ____
ROOT
ATOM      1  C   UNL     1      43.363   5.426  12.291  0.00  0.00    +0.000 C 
ATOM      2  F   UNL     1      42.891   6.605  11.786  0.00  0.00    +0.000 F 
ATOM      3  F   UNL     1      42.565   5.149  13.367  0.00  0.00    +0.000 F 
ENDROOT
BRANCH   1   4
ATOM      4  C   UNL     1      44.827   5.518  12.674  0.00  0.00    +0.000 A 
ATOM      5  C   UNL     1      45.464   4.447  13.308  0.00  0.00    +0.000 A 
ATOM      6  C   UNL     1      46.819   4.518  13.613  0.00  0.00    +0.000 A 
ATOM      7  C   UNL     1      47.555   5.652  13.267  0.00  0.00    +0.000 A 
ATOM      8  C   UNL     1      46.958   6.741  12.607  0.00  0.00    +0.000 A 
ATOM      9  C   UNL     1      45.578   6.658  12.339  0.00  0.00    +0.000 A 
BRANCH   8  10
ATOM     10  C   UNL     1      47.756   7.903  12.167  0.00  0.00    +0.000 A 
ATOM     11  C   UNL     1      49.094   7.786  11.762  0.00  0.00    +0.000 A 
ATOM     12  C   UNL     1      49.820   8.919  11.397  0.00  0.00    +0.000 A 
ATOM     13  C   UNL     1      49.186  10.148  11.429  0.00  0.00    +0.000 A 
ATOM     14  F   UNL     1      49.885  11.236  11.079  0.00  0.00    +0.000 F 
ATOM     15  N   UNL     1      47.904  10.319  11.802  0.00  0.00    +0.000 NA
ATOM     16  C   UNL     1      47.232   9.201  12.160  0.00  0.00    +0.000 A 
ENDBRANCH   8  10
ENDBRANCH   1   4
BRANCH   1  17
ATOM     17  C   UNL     1      43.157   4.306  11.238  0.00  0.00    +0.000 C 
BRANCH  17  18
ATOM     18  N   UNL     1      43.667   4.670   9.908  0.00  0.00    +0.000 N 
ATOM     19  H   UNL     1      42.969   5.059   9.275  0.00  0.00    +0.000 HD
BRANCH  18  23
ATOM     20  C   UNL     1      46.468   2.287   7.851  0.00  0.00    +0.000 A 
ATOM     21  C   UNL     1      46.495   3.674   7.686  0.00  0.00    +0.000 A 
ATOM     22  C   UNL     1      45.588   4.480   8.386  0.00  0.00    +0.000 A 
ATOM     23  C   UNL     1      44.663   3.930   9.281  0.00  0.00    +0.000 A 
ATOM     24  C   UNL     1      44.654   2.537   9.438  0.00  0.00    +0.000 A 
ATOM     25  C   UNL     1      45.541   1.719   8.727  0.00  0.00    +0.000 A 
BRANCH  20  27
ATOM     26  N   UNL     1      48.398   1.968   6.400  0.00  0.00    +0.000 N 
ATOM     27  C   UNL     1      47.350   1.394   7.062  0.00  0.00    +0.000 C 
ATOM     28  O   UNL     1      47.164   0.183   7.016  0.00  0.00    +0.000 OA
ATOM     29  H   UNL     1      49.034   1.334   5.933  0.00  0.00    +0.000 HD
ATOM     30  H   UNL     1      48.728   2.899   6.612  0.00  0.00    +0.000 HD
ENDBRANCH  20  27
ENDBRANCH  18  23
ENDBRANCH  17  18
ENDBRANCH   1  17
TORSDOF 6
ENDMDL
MODEL 3
REMARK VINA RESULT:    -9.020      0.900      1.255
REMARK INTER + INTRA:         -13.336
REMARK INTER:                 -12.151
REMARK INTRA:                  -1.185
REMARK UNBOUND:                -1.152
REMARK  Name = 
REMARK  6 active torsions:
REMARK  status: ('A' for Active; 'I' for Inactive)
REMARK    1  A    between atoms: C_2  and  C_4
REMARK    2  A    between atoms: C_7  and  N_8
REMARK    3  A    between atoms: N_8  and  C_9
REMARK    4  A    between atoms: C_9  and  C_10
REMARK    5  A    between atoms: C_10  and  C_13
REMARK    6  A    between atoms: C_17  and  C_18
REMARK                            x       y       z     vdW  Elec       q    Type
REMARK                         _______ _______ _______ _____ _____    ______ ____
ROOT
ATOM      1  C   UNL     1      43.742   4.733  12.394  0.00  0.00    +0.000 C 
ATOM      2  F   UNL     1      42.823   5.399  13.154  0.00  0.00    +0.000 F 
ATOM      3  F   UNL     1      43.571   3.410  12.697  0.00  0.00    +0.000 F 
ENDROOT
BRANCH   1   4
ATOM      4  C   UNL     1      45.157   5.204  12.671  0.00  0.00    +0.000 A 
ATOM      5  C   UNL     1      45.793   6.095  11.801  0.00  0.00    +0.000 A 
ATOM      6  C   UNL     1      47.071   6.561  12.086  0.00  0.00    +0.000 A 
ATOM      7  C   UNL     1      47.719   6.157  13.254  0.00  0.00    +0.000 A 
ATOM      8  C   UNL     1      47.105   5.281  14.168  0.00  0.00    +0.000 A 
ATOM      9  C   UNL     1      45.824   4.797  13.840  0.00  0.00    +0.000 A 
BRANCH   8  10
ATOM     10  C   UNL     1      47.757   4.921  15.444  0.00  0.00    +0.000 A 
ATOM     11  C   UNL     1      48.638   5.788  16.108  0.00  0.00    +0.000 A 
ATOM     12  C   UNL     1      49.262   5.387  17.287  0.00  0.00    +0.000 A 
ATOM     13  C   UNL     1      48.981   4.128  17.789  0.00  0.00    +0.000 A 
ATOM     14  F   UNL     1      49.583   3.744  18.922  0.00  0.00    +0.000 F 
ATOM     15  N   UNL     1      48.141   3.259  17.199  0.00  0.00    +0.000 NA
ATOM     16  C   UNL     1      47.560   3.675  16.050  0.00  0.00    +0.000 A 
ENDBRANCH   8  10
ENDBRANCH   1   4
BRANCH   1  17
ATOM     17  C   UNL     1      43.399   4.932  10.894  0.00  0.00    +0.000 C 
BRANCH  17  18
ATOM     18  N   UNL     1      43.498   3.689  10.116  0.00  0.00    +0.000 N 
ATOM     19  H   UNL     1      43.101   2.868  10.571  0.00  0.00    +0.000 HD
BRANCH  18  23
ATOM     20  C   UNL     1      46.639   2.714   7.482  0.00  0.00    +0.000 A 
ATOM     21  C   UNL     1      46.246   4.048   7.617  0.00  0.00    +0.000 A 
ATOM     22  C   UNL     1      45.222   4.389   8.511  0.00  0.00    +0.000 A 
ATOM     23  C   UNL     1      44.594   3.422   9.304  0.00  0.00    +0.000 A 
ATOM     24  C   UNL     1      45.005   2.089   9.158  0.00  0.00    +0.000 A 
ATOM     25  C   UNL     1      46.012   1.733   8.254  0.00  0.00    +0.000 A 
BRANCH  20  27
ATOM     26  N   UNL     1      47.766   3.053   5.350  0.00  0.00    +0.000 N 
ATOM     27  C   UNL     1      47.655   2.301   6.484  0.00  0.00    +0.000 C 
ATOM     28  O   UNL     1      48.385   1.333   6.672  0.00  0.00    +0.000 OA
ATOM     29  H   UNL     1      48.517   2.804   4.718  0.00  0.00    +0.000 HD
ATOM     30  H   UNL     1      47.371   3.980   5.273  0.00  0.00    +0.000 HD
ENDBRANCH  20  27
ENDBRANCH  18  23
ENDBRANCH  17  18
ENDBRANCH   1  17
TORSDOF 6
ENDMDL
MODEL 4
REMARK VINA RESULT:    -8.500      2.459      3.517
REMARK INTER + INTRA:         -12.634
REMARK INTER:                 -11.531
REMARK INTRA:                  -1.103
REMARK UNBOUND:                -1.152
REMARK  Name = 
REMARK  6 active torsions:
REMARK  status: ('A' for Active; 'I' for Inactive)
REMARK    1  A    between atoms: C_2  and  C_4
REMARK    2  A    between atoms: C_7  and  N_8
REMARK    3  A    between atoms: N_8  and  C_9
REMARK    4  A    between atoms: C_9  and  C_10
REMARK    5  A    between atoms: C_10  and  C_13
REMARK    6  A    between atoms: C_17  and  C_18
REMARK                            x       y       z     vdW  Elec       q    Type
REMARK                         _______ _______ _______ _____ _____    ______ ____
ROOT
ATOM      1  C   UNL     1      43.679   5.794  12.058  0.00  0.00    +0.000 C 
ATOM      2  F   UNL     1      43.637   7.006  11.429  0.00  0.00    +0.000 F 
ATOM      3  F   UNL     1      42.714   5.856  13.026  0.00  0.00    +0.000 F 
ENDROOT
BRANCH   1   4
ATOM      4  C   UNL     1      45.050   5.501  12.637  0.00  0.00    +0.000 A 
ATOM      5  C   UNL     1      45.345   4.240  13.161  0.00  0.00    +0.000 A 
ATOM      6  C   UNL     1      46.619   3.962  13.645  0.00  0.00    +0.000 A 
ATOM      7  C   UNL     1      47.616   4.937  13.590  0.00  0.00    +0.000 A 
ATOM      8  C   UNL     1      47.367   6.211  13.048  0.00  0.00    +0.000 A 
ATOM      9  C   UNL     1      46.061   6.477  12.595  0.00  0.00    +0.000 A 
BRANCH   8  10
ATOM     10  C   UNL     1      48.444   7.212  12.913  0.00  0.00    +0.000 A 
ATOM     11  C   UNL     1      48.600   7.998  11.761  0.00  0.00    +0.000 A 
ATOM     12  C   UNL     1      49.658   8.899  11.663  0.00  0.00    +0.000 A 
ATOM     13  C   UNL     1      50.535   9.007  12.727  0.00  0.00    +0.000 A 
ATOM     14  F   UNL     1      51.553   9.872  12.630  0.00  0.00    +0.000 F 
ATOM     15  N   UNL     1      50.432   8.284  13.858  0.00  0.00    +0.000 NA
ATOM     16  C   UNL     1      49.399   7.412  13.917  0.00  0.00    +0.000 A 
ENDBRANCH   8  10
ENDBRANCH   1   4
BRANCH   1  17
ATOM     17  C   UNL     1      43.279   4.685  11.050  0.00  0.00    +0.000 C 
BRANCH  17  18
ATOM     18  N   UNL     1      43.849   4.897   9.711  0.00  0.00    +0.000 N 
ATOM     19  H   UNL     1      43.287   5.485   9.097  0.00  0.00    +0.000 HD
BRANCH  18  23
ATOM     20  C   UNL     1      46.268   1.987   7.860  0.00  0.00    +0.000 A 
ATOM     21  C   UNL     1      45.283   1.585   8.765  0.00  0.00    +0.000 A 
ATOM     22  C   UNL     1      44.453   2.540   9.366  0.00  0.00    +0.000 A 
ATOM     23  C   UNL     1      44.564   3.901   9.058  0.00  0.00    +0.000 A 
ATOM     24  C   UNL     1      45.556   4.285   8.144  0.00  0.00    +0.000 A 
ATOM     25  C   UNL     1      46.405   3.342   7.553  0.00  0.00    +0.000 A 
BRANCH  20  27
ATOM     26  N   UNL     1      46.924  -0.310   7.383  0.00  0.00    +0.000 N 
ATOM     27  C   UNL     1      47.224   1.018   7.271  0.00  0.00    +0.000 C 
ATOM     28  O   UNL     1      48.238   1.387   6.689  0.00  0.00    +0.000 OA
ATOM     29  H   UNL     1      47.546  -0.952   6.907  0.00  0.00    +0.000 HD
ATOM     30  H   UNL     1      46.000  -0.638   7.624  0.00  0.00    +0.000 HD
ENDBRANCH  20  27
ENDBRANCH  18  23
ENDBRANCH  17  18
ENDBRANCH   1  17
TORSDOF 6
ENDMDL
MODEL 5
REMARK VINA RESULT:    -8.463      2.025      2.631
REMARK INTER + INTRA:         -12.584
REMARK INTER:                 -11.363
REMARK INTRA:                  -1.221
REMARK UNBOUND:                -1.152
REMARK  Name = 
REMARK  6 active torsions:
REMARK  status: ('A' for Active; 'I' for Inactive)
REMARK    1  A    between atoms: C_2  and  C_4
REMARK    2  A    between atoms: C_7  and  N_8
REMARK    3  A    between atoms: N_8  and  C_9
REMARK    4  A    between atoms: C_9  and  C_10
REMARK    5  A    between atoms: C_10  and  C_13
REMARK    6  A    between atoms: C_17  and  C_18
REMARK                            x       y       z     vdW  Elec       q    Type
REMARK                         _______ _______ _______ _____ _____    ______ ____
ROOT
ATOM      1  C   UNL     1      43.981   4.161  12.521  0.00  0.00    +0.000 C 
ATOM      2  F   UNL     1      43.081   4.245  13.546  0.00  0.00    +0.000 F 
ATOM      3  F   UNL     1      44.801   3.115  12.846  0.00  0.00    +0.000 F 
ENDROOT
BRANCH   1   4
ATOM      4  C   UNL     1      44.751   5.453  12.332  0.00  0.00    +0.000 A 
ATOM      5  C   UNL     1      44.203   6.506  11.594  0.00  0.00    +0.000 A 
ATOM      6  C   UNL     1      44.893   7.707  11.466  0.00  0.00    +0.000 A 
ATOM      7  C   UNL     1      46.129   7.873  12.092  0.00  0.00    +0.000 A 
ATOM      8  C   UNL     1      46.704   6.848  12.864  0.00  0.00    +0.000 A 
ATOM      9  C   UNL     1      46.001   5.631  12.951  0.00  0.00    +0.000 A 
BRANCH   8  10
ATOM     10  C   UNL     1      47.970   7.056  13.596  0.00  0.00    +0.000 A 
ATOM     11  C   UNL     1      48.937   7.981  13.175  0.00  0.00    +0.000 A 
ATOM     12  C   UNL     1      50.136   8.110  13.874  0.00  0.00    +0.000 A 
ATOM     13  C   UNL     1      50.339   7.319  14.991  0.00  0.00    +0.000 A 
ATOM     14  F   UNL     1      51.493   7.444  15.660  0.00  0.00    +0.000 F 
ATOM     15  N   UNL     1      49.445   6.421  15.443  0.00  0.00    +0.000 NA
ATOM     16  C   UNL     1      48.297   6.313  14.736  0.00  0.00    +0.000 A 
ENDBRANCH   8  10
ENDBRANCH   1   4
BRANCH   1  17
ATOM     17  C   UNL     1      43.227   3.794  11.215  0.00  0.00    +0.000 C 
BRANCH  17  18
ATOM     18  N   UNL     1      43.789   2.613  10.544  0.00  0.00    +0.000 N 
ATOM     19  H   UNL     1      43.909   1.798  11.144  0.00  0.00    +0.000 HD
BRANCH  18  23
ATOM     20  C   UNL     1      46.489   2.799   7.315  0.00  0.00    +0.000 A 
ATOM     21  C   UNL     1      45.896   3.974   7.781  0.00  0.00    +0.000 A 
ATOM     22  C   UNL     1      45.018   3.930   8.872  0.00  0.00    +0.000 A 
ATOM     23  C   UNL     1      44.739   2.730   9.536  0.00  0.00    +0.000 A 
ATOM     24  C   UNL     1      45.347   1.561   9.057  0.00  0.00    +0.000 A 
ATOM     25  C   UNL     1      46.209   1.589   7.954  0.00  0.00    +0.000 A 
BRANCH  20  27
ATOM     26  N   UNL     1      48.661   2.437   6.275  0.00  0.00    +0.000 N 
ATOM     27  C   UNL     1      47.352   2.790   6.109  0.00  0.00    +0.000 C 
ATOM     28  O   UNL     1      46.911   3.070   5.000  0.00  0.00    +0.000 OA
ATOM     29  H   UNL     1      49.215   2.360   5.430  0.00  0.00    +0.000 HD
ATOM     30  H   UNL     1      48.995   1.967   7.104  0.00  0.00    +0.000 HD
ENDBRANCH  20  27
ENDBRANCH  18  23
ENDBRANCH  17  18
ENDBRANCH   1  17
TORSDOF 6
ENDMDL
MODEL 6
REMARK VINA RESULT:    -8.190      3.194      7.627
REMARK INTER + INTRA:         -12.215
REMARK INTER:                 -11.061
REMARK INTRA:                  -1.153
REMARK UNBOUND:                -1.152
REMARK  Name = 
REMARK  6 active torsions:
REMARK  status: ('A' for Active; 'I' for Inactive)
REMARK    1  A    between atoms: C_2  and  C_4
REMARK    2  A    between atoms: C_7  and  N_8
REMARK    3  A    between atoms: N_8  and  C_9
REMARK    4  A    between atoms: C_9  and  C_10
REMARK    5  A    between atoms: C_10  and  C_13
REMARK    6  A    between atoms: C_17  and  C_18
REMARK                            x       y       z     vdW  Elec       q    Type
REMARK                         _______ _______ _______ _____ _____    ______ ____
ROOT
ATOM      1  C   UNL     1      45.715   7.687  12.005  0.00  0.00    +0.000 C 
ATOM      2  F   UNL     1      45.298   8.081  13.245  0.00  0.00    +0.000 F 
ATOM      3  F   UNL     1      45.551   8.784  11.203  0.00  0.00    +0.000 F 
ENDROOT
BRANCH   1   4
ATOM      4  C   UNL     1      44.936   6.488  11.499  0.00  0.00    +0.000 A 
ATOM      5  C   UNL     1      43.591   6.318  11.841  0.00  0.00    +0.000 A 
ATOM      6  C   UNL     1      42.869   5.243  11.334  0.00  0.00    +0.000 A 
ATOM      7  C   UNL     1      43.479   4.340  10.462  0.00  0.00    +0.000 A 
ATOM      8  C   UNL     1      44.822   4.489  10.073  0.00  0.00    +0.000 A 
ATOM      9  C   UNL     1      45.541   5.566  10.626  0.00  0.00    +0.000 A 
BRANCH   8  10
ATOM     10  C   UNL     1      45.441   3.582   9.085  0.00  0.00    +0.000 A 
ATOM     11  C   UNL     1      46.049   4.051   7.912  0.00  0.00    +0.000 A 
ATOM     12  C   UNL     1      46.581   3.154   6.988  0.00  0.00    +0.000 A 
ATOM     13  C   UNL     1      46.507   1.800   7.264  0.00  0.00    +0.000 A 
ATOM     14  F   UNL     1      47.018   0.938   6.375  0.00  0.00    +0.000 F 
ATOM     15  N   UNL     1      45.941   1.293   8.375  0.00  0.00    +0.000 NA
ATOM     16  C   UNL     1      45.426   2.191   9.246  0.00  0.00    +0.000 A 
ENDBRANCH   8  10
ENDBRANCH   1   4
BRANCH   1  17
ATOM     17  C   UNL     1      47.229   7.354  12.061  0.00  0.00    +0.000 C 
BRANCH  17  18
ATOM     18  N   UNL     1      47.785   7.449  13.419  0.00  0.00    +0.000 N 
ATOM     19  H   UNL     1      48.589   8.068  13.508  0.00  0.00    +0.000 HD
BRANCH  18  23
ATOM     20  C   UNL     1      47.701   4.306  16.224  0.00  0.00    +0.000 A 
ATOM     21  C   UNL     1      47.010   4.168  15.019  0.00  0.00    +0.000 A 
ATOM     22  C   UNL     1      47.052   5.194  14.066  0.00  0.00    +0.000 A 
ATOM     23  C   UNL     1      47.804   6.355  14.277  0.00  0.00    +0.000 A 
ATOM     24  C   UNL     1      48.496   6.475  15.490  0.00  0.00    +0.000 A 
ATOM     25  C   UNL     1      48.443   5.466  16.460  0.00  0.00    +0.000 A 
BRANCH  20  27
ATOM     26  N   UNL     1      48.746   3.004  17.998  0.00  0.00    +0.000 N 
ATOM     27  C   UNL     1      47.609   3.284  17.295  0.00  0.00    +0.000 C 
ATOM     28  O   UNL     1      46.552   2.721  17.557  0.00  0.00    +0.000 OA
ATOM     29  H   UNL     1      48.645   2.363  18.775  0.00  0.00    +0.000 HD
ATOM     30  H   UNL     1      49.554   3.610  17.985  0.00  0.00    +0.000 HD
ENDBRANCH  20  27
ENDBRANCH  18  23
ENDBRANCH  17  18
ENDBRANCH   1  17
TORSDOF 6
ENDMDL
MODEL 7
REMARK VINA RESULT:    -8.130      3.310      4.518
REMARK INTER + INTRA:         -12.134
REMARK INTER:                 -11.044
REMARK INTRA:                  -1.090
REMARK UNBOUND:                -1.152
REMARK  Name = 
REMARK  6 active torsions:
REMARK  status: ('A' for Active; 'I' for Inactive)
REMARK    1  A    between atoms: C_2  and  C_4
REMARK    2  A    between atoms: C_7  and  N_8
REMARK    3  A    between atoms: N_8  and  C_9
REMARK    4  A    between atoms: C_9  and  C_10
REMARK    5  A    between atoms: C_10  and  C_13
REMARK    6  A    between atoms: C_17  and  C_18
REMARK                            x       y       z     vdW  Elec       q    Type
REMARK                         _______ _______ _______ _____ _____    ______ ____
ROOT
ATOM      1  C   UNL     1      45.273   5.243  12.367  0.00  0.00    +0.000 C 
ATOM      2  F   UNL     1      44.948   4.877  13.643  0.00  0.00    +0.000 F 
ATOM      3  F   UNL     1      46.225   4.346  11.966  0.00  0.00    +0.000 F 
ENDROOT
BRANCH   1   4
ATOM      4  C   UNL     1      45.770   6.674  12.296  0.00  0.00    +0.000 A 
ATOM      5  C   UNL     1      44.942   7.734  12.676  0.00  0.00    +0.000 A 
ATOM      6  C   UNL     1      45.420   9.040  12.655  0.00  0.00    +0.000 A 
ATOM      7  C   UNL     1      46.737   9.296  12.274  0.00  0.00    +0.000 A 
ATOM      8  C   UNL     1      47.610   8.256  11.907  0.00  0.00    +0.000 A 
ATOM      9  C   UNL     1      47.093   6.947  11.905  0.00  0.00    +0.000 A 
BRANCH   8  10
ATOM     10  C   UNL     1      49.028   8.521  11.586  0.00  0.00    +0.000 A 
ATOM     11  C   UNL     1      49.547   9.820  11.494  0.00  0.00    +0.000 A 
ATOM     12  C   UNL     1      50.882  10.021  11.145  0.00  0.00    +0.000 A 
ATOM     13  C   UNL     1      51.676   8.913  10.908  0.00  0.00    +0.000 A 
ATOM     14  F   UNL     1      52.958   9.108  10.571  0.00  0.00    +0.000 F 
ATOM     15  N   UNL     1      51.234   7.645  10.987  0.00  0.00    +0.000 NA
ATOM     16  C   UNL     1      49.932   7.486  11.318  0.00  0.00    +0.000 A 
ENDBRANCH   8  10
ENDBRANCH   1   4
BRANCH   1  17
ATOM     17  C   UNL     1      44.030   5.065  11.457  0.00  0.00    +0.000 C 
BRANCH  17  18
ATOM     18  N   UNL     1      44.347   5.186  10.026  0.00  0.00    +0.000 N 
ATOM     19  H   UNL     1      43.704   5.772   9.495  0.00  0.00    +0.000 HD
BRANCH  18  23
ATOM     20  C   UNL     1      46.253   2.044   7.965  0.00  0.00    +0.000 A 
ATOM     21  C   UNL     1      45.268   1.747   8.909  0.00  0.00    +0.000 A 
ATOM     22  C   UNL     1      44.607   2.783   9.581  0.00  0.00    +0.000 A 
ATOM     23  C   UNL     1      44.887   4.126   9.307  0.00  0.00    +0.000 A 
ATOM     24  C   UNL     1      45.876   4.406   8.352  0.00  0.00    +0.000 A 
ATOM     25  C   UNL     1      46.559   3.379   7.690  0.00  0.00    +0.000 A 
BRANCH  20  27
ATOM     26  N   UNL     1      46.741  -0.317   7.620  0.00  0.00    +0.000 N 
ATOM     27  C   UNL     1      47.038   0.977   7.299  0.00  0.00    +0.000 C 
ATOM     28  O   UNL     1      47.909   1.237   6.476  0.00  0.00    +0.000 OA
ATOM     29  H   UNL     1      47.231  -1.032   7.097  0.00  0.00    +0.000 HD
ATOM     30  H   UNL     1      45.884  -0.576   8.088  0.00  0.00    +0.000 HD
ENDBRANCH  20  27
ENDBRANCH  18  23
ENDBRANCH  17  18
ENDBRANCH   1  17
TORSDOF 6
ENDMDL
MODEL 8
REMARK VINA RESULT:    -7.928      1.726      2.542
REMARK INTER + INTRA:         -11.862
REMARK INTER:                 -10.645
REMARK INTRA:                  -1.217
REMARK UNBOUND:                -1.152
REMARK  Name = 
REMARK  6 active torsions:
REMARK  status: ('A' for Active; 'I' for Inactive)
REMARK    1  A    between atoms: C_2  and  C_4
REMARK    2  A    between atoms: C_7  and  N_8
REMARK    3  A    between atoms: N_8  and  C_9
REMARK    4  A    between atoms: C_9  and  C_10
REMARK    5  A    between atoms: C_10  and  C_13
REMARK    6  A    between atoms: C_17  and  C_18
REMARK                            x       y       z     vdW  Elec       q    Type
REMARK                         _______ _______ _______ _____ _____    ______ ____
ROOT
ATOM      1  C   UNL     1      45.044   6.114  11.805  0.00  0.00    +0.000 C 
ATOM      2  F   UNL     1      45.826   6.583  10.788  0.00  0.00    +0.000 F 
ATOM      3  F   UNL     1      44.468   7.224  12.360  0.00  0.00    +0.000 F 
ENDROOT
BRANCH   1   4
ATOM      4  C   UNL     1      45.846   5.320  12.819  0.00  0.00    +0.000 A 
ATOM      5  C   UNL     1      45.825   3.922  12.803  0.00  0.00    +0.000 A 
ATOM      6  C   UNL     1      46.601   3.199  13.703  0.00  0.00    +0.000 A 
ATOM      7  C   UNL     1      47.420   3.867  14.615  0.00  0.00    +0.000 A 
ATOM      8  C   UNL     1      47.488   5.272  14.647  0.00  0.00    +0.000 A 
ATOM      9  C   UNL     1      46.669   5.980  13.748  0.00  0.00    +0.000 A 
BRANCH   8  10
ATOM     10  C   UNL     1      48.419   5.975  15.553  0.00  0.00    +0.000 A 
ATOM     11  C   UNL     1      49.170   7.086  15.144  0.00  0.00    +0.000 A 
ATOM     12  C   UNL     1      50.068   7.690  16.022  0.00  0.00    +0.000 A 
ATOM     13  C   UNL     1      50.187   7.177  17.302  0.00  0.00    +0.000 A 
ATOM     14  F   UNL     1      51.051   7.758  18.144  0.00  0.00    +0.000 F 
ATOM     15  N   UNL     1      49.488   6.118  17.750  0.00  0.00    +0.000 NA
ATOM     16  C   UNL     1      48.633   5.549  16.869  0.00  0.00    +0.000 A 
ENDBRANCH   8  10
ENDBRANCH   1   4
BRANCH   1  17
ATOM     17  C   UNL     1      43.915   5.232  11.211  0.00  0.00    +0.000 C 
BRANCH  17  18
ATOM     18  N   UNL     1      43.985   5.125   9.746  0.00  0.00    +0.000 N 
ATOM     19  H   UNL     1      43.166   5.479   9.253  0.00  0.00    +0.000 HD
BRANCH  18  23
ATOM     20  C   UNL     1      46.147   1.977   7.967  0.00  0.00    +0.000 A 
ATOM     21  C   UNL     1      45.192   1.686   8.943  0.00  0.00    +0.000 A 
ATOM     22  C   UNL     1      44.446   2.721   9.522  0.00  0.00    +0.000 A 
ATOM     23  C   UNL     1      44.611   4.052   9.123  0.00  0.00    +0.000 A 
ATOM     24  C   UNL     1      45.572   4.324   8.138  0.00  0.00    +0.000 A 
ATOM     25  C   UNL     1      46.338   3.301   7.567  0.00  0.00    +0.000 A 
BRANCH  20  27
ATOM     26  N   UNL     1      46.725  -0.375   7.707  0.00  0.00    +0.000 N 
ATOM     27  C   UNL     1      47.018   0.922   7.394  0.00  0.00    +0.000 C 
ATOM     28  O   UNL     1      47.956   1.194   6.653  0.00  0.00    +0.000 OA
ATOM     29  H   UNL     1      47.281  -1.084   7.245  0.00  0.00    +0.000 HD
ATOM     30  H   UNL     1      45.835  -0.651   8.097  0.00  0.00    +0.000 HD
ENDBRANCH  20  27
ENDBRANCH  18  23
ENDBRANCH  17  18
ENDBRANCH   1  17
TORSDOF 6
ENDMDL
MODEL 9
REMARK VINA RESULT:    -7.695      3.219      7.616
REMARK INTER + INTRA:         -11.546
REMARK INTER:                 -10.527
REMARK INTRA:                  -1.019
REMARK UNBOUND:                -1.152
REMARK  Name = 
REMARK  6 active torsions:
REMARK  status: ('A' for Active; 'I' for Inactive)
REMARK    1  A    between atoms: C_2  and  C_4
REMARK    2  A    between atoms: C_7  and  N_8
REMARK    3  A    between atoms: N_8  and  C_9
REMARK    4  A    between atoms: C_9  and  C_10
REMARK    5  A    between atoms: C_10  and  C_13
REMARK    6  A    between atoms: C_17  and  C_18
REMARK                            x       y       z     vdW  Elec       q    Type
REMARK                         _______ _______ _______ _____ _____    ______ ____
ROOT
ATOM      1  C   UNL     1      44.612   6.417  11.896  0.00  0.00    +0.000 C 
ATOM      2  F   UNL     1      44.109   6.503  13.163  0.00  0.00    +0.000 F 
ATOM      3  F   UNL     1      43.918   7.345  11.168  0.00  0.00    +0.000 F 
ENDROOT
BRANCH   1   4
ATOM      4  C   UNL     1      44.471   5.020  11.322  0.00  0.00    +0.000 A 
ATOM      5  C   UNL     1      43.544   4.122  11.859  0.00  0.00    +0.000 A 
ATOM      6  C   UNL     1      43.385   2.859  11.297  0.00  0.00    +0.000 A 
ATOM      7  C   UNL     1      44.137   2.491  10.181  0.00  0.00    +0.000 A 
ATOM      8  C   UNL     1      45.062   3.374   9.596  0.00  0.00    +0.000 A 
ATOM      9  C   UNL     1      45.228   4.633  10.203  0.00  0.00    +0.000 A 
BRANCH   8  10
ATOM     10  C   UNL     1      45.794   3.014   8.364  0.00  0.00    +0.000 A 
ATOM     11  C   UNL     1      46.295   1.723   8.138  0.00  0.00    +0.000 A 
ATOM     12  C   UNL     1      47.017   1.443   6.980  0.00  0.00    +0.000 A 
ATOM     13  C   UNL     1      47.213   2.458   6.061  0.00  0.00    +0.000 A 
ATOM     14  F   UNL     1      47.909   2.187   4.949  0.00  0.00    +0.000 F 
ATOM     15  N   UNL     1      46.751   3.712   6.222  0.00  0.00    +0.000 NA
ATOM     16  C   UNL     1      46.063   3.953   7.361  0.00  0.00    +0.000 A 
ENDBRANCH   8  10
ENDBRANCH   1   4
BRANCH   1  17
ATOM     17  C   UNL     1      46.105   6.837  11.914  0.00  0.00    +0.000 C 
BRANCH  17  18
ATOM     18  N   UNL     1      46.632   7.017  13.275  0.00  0.00    +0.000 N 
ATOM     19  H   UNL     1      47.131   7.893  13.427  0.00  0.00    +0.000 HD
BRANCH  18  23
ATOM     20  C   UNL     1      47.926   3.870  15.759  0.00  0.00    +0.000 A 
ATOM     21  C   UNL     1      47.177   3.578  14.617  0.00  0.00    +0.000 A 
ATOM     22  C   UNL     1      46.765   4.613  13.767  0.00  0.00    +0.000 A 
ATOM     23  C   UNL     1      47.113   5.945  14.017  0.00  0.00    +0.000 A 
ATOM     24  C   UNL     1      47.869   6.218  15.166  0.00  0.00    +0.000 A 
ATOM     25  C   UNL     1      48.268   5.195  16.034  0.00  0.00    +0.000 A 
BRANCH  20  27
ATOM     26  N   UNL     1      49.113   1.808  16.283  0.00  0.00    +0.000 N 
ATOM     27  C   UNL     1      48.305   2.814  16.730  0.00  0.00    +0.000 C 
ATOM     28  O   UNL     1      47.926   2.847  17.896  0.00  0.00    +0.000 OA
ATOM     29  H   UNL     1      49.425   1.142  16.978  0.00  0.00    +0.000 HD
ATOM     30  H   UNL     1      49.639   1.877  15.424  0.00  0.00    +0.000 HD
ENDBRANCH  20  27
ENDBRANCH  18  23
ENDBRANCH  17  18
ENDBRANCH   1  17
TORSDOF 6
ENDMDL
