MODEL 1
REMARK VINA RESULT:    -9.066      0.000      0.000
REMARK INTER + INTRA:         -11.940
REMARK INTER:                 -11.186
REMARK INTRA:                  -0.754
REMARK UNBOUND:                -0.754
REMARK  Name = 
REMARK  4 active torsions:
REMARK  status: ('A' for Active; 'I' for Inactive)
REMARK    1  A    between atoms: C_2  and  C_4
REMARK    2  A    between atoms: N_8  and  C_9
REMARK    3  A    between atoms: C_9  and  C_10
REMARK    4  A    between atoms: C_14  and  C_15
REMARK                            x       y       z     vdW  Elec       q    Type
REMARK                         _______ _______ _______ _____ _____    ______ ____
ROOT
ATOM      1  C   UNL     1      46.374   2.238   7.663  0.00  0.00    +0.000 A 
ATOM      2  C   UNL     1      45.646   1.792   8.762  0.00  0.00    +0.000 A 
ATOM      3  C   UNL     1      44.796   2.681   9.420  0.00  0.00    +0.000 A 
ATOM      4  C   UNL     1      44.698   3.998   8.986  0.00  0.00    +0.000 A 
ATOM      5  N   UNL     1      43.826   4.912   9.536  0.00  0.00    +0.000 N 
ATOM      6  N   UNL     1      45.406   4.443   7.929  0.00  0.00    +0.000 NA
ATOM      7  C   UNL     1      46.232   3.566   7.296  0.00  0.00    +0.000 A 
ATOM      8  H   UNL     1      44.013   5.818   9.116  0.00  0.00    +0.000 HD
ENDROOT
BRANCH   1  10
ATOM      9  N   UNL     1      48.401   1.920   6.366  0.00  0.00    +0.000 N 
ATOM     10  C   UNL     1      47.277   1.354   6.900  0.00  0.00    +0.000 C 
ATOM     11  O   UNL     1      47.045   0.158   6.772  0.00  0.00    +0.000 OA
ATOM     12  H   UNL     1      49.058   1.291   5.923  0.00  0.00    +0.000 HD
ATOM     13  H   UNL     1      48.748   2.823   6.658  0.00  0.00    +0.000 HD
ENDBRANCH   1  10
BRANCH   5  14
ATOM     14  C   UNL     1      43.486   4.919  10.943  0.00  0.00    +0.000 C 
BRANCH  14  15
ATOM     15  C   UNL     1      44.660   5.257  11.822  0.00  0.00    +0.000 A 
ATOM     16  C   UNL     1      44.913   4.555  13.001  0.00  0.00    +0.000 A 
ATOM     17  C   UNL     1      45.947   4.983  13.815  0.00  0.00    +0.000 A 
ATOM     18  N   UNL     1      46.735   6.044  13.538  0.00  0.00    +0.000 NA
ATOM     19  C   UNL     1      46.513   6.716  12.380  0.00  0.00    +0.000 A 
ATOM     20  C   UNL     1      45.487   6.343  11.510  0.00  0.00    +0.000 A 
BRANCH  19  21
ATOM     21  C   UNL     1      47.371   7.892  12.131  0.00  0.00    +0.000 A 
ATOM     22  C   UNL     1      48.728   7.764  11.776  0.00  0.00    +0.000 A 
ATOM     23  C   UNL     1      49.517   8.884  11.498  0.00  0.00    +0.000 A 
ATOM     24  C   UNL     1      48.969  10.160  11.578  0.00  0.00    +0.000 A 
ATOM     25  C   UNL     1      47.635  10.317  11.943  0.00  0.00    +0.000 A 
ATOM     26  C   UNL     1      46.848   9.196  12.219  0.00  0.00    +0.000 A 
ENDBRANCH  19  21
ENDBRANCH  14  15
ENDBRANCH   5  14
TORSDOF 4
ENDMDL
MODEL 2
REMARK VINA RESULT:    -8.415      1.713      3.466
REMARK INTER + INTRA:         -11.136
REMARK INTER:                 -10.345
REMARK INTRA:                  -0.791
REMARK UNBOUND:                -0.754
REMARK  Name = 
REMARK  4 active torsions:
REMARK  status: ('A' for Active; 'I' for Inactive)
REMARK    1  A    between atoms: C_2  and  C_4
REMARK    2  A    between atoms: N_8  and  C_9
REMARK    3  A    between atoms: C_9  and  C_10
REMARK    4  A    between atoms: C_14  and  C_15
REMARK                            x       y       z     vdW  Elec       q    Type
REMARK                         _______ _______ _______ _____ _____    ______ ____
ROOT
ATOM      1  C   UNL     1      46.398   2.283   7.651  0.00  0.00    +0.000 A 
ATOM      2  C   UNL     1      45.757   1.816   8.794  0.00  0.00    +0.000 A 
ATOM      3  C   UNL     1      44.956   2.689   9.529  0.00  0.00    +0.000 A 
ATOM      4  C   UNL     1      44.822   4.013   9.127  0.00  0.00    +0.000 A 
ATOM      5  N   UNL     1      43.991   4.914   9.757  0.00  0.00    +0.000 N 
ATOM      6  N   UNL     1      45.447   4.479   8.028  0.00  0.00    +0.000 NA
ATOM      7  C   UNL     1      46.226   3.617   7.319  0.00  0.00    +0.000 A 
ATOM      8  H   UNL     1      44.144   5.827   9.340  0.00  0.00    +0.000 HD
ENDROOT
BRANCH   1  10
ATOM      9  N   UNL     1      48.280   2.012   6.141  0.00  0.00    +0.000 N 
ATOM     10  C   UNL     1      47.244   1.417   6.806  0.00  0.00    +0.000 C 
ATOM     11  O   UNL     1      47.045   0.211   6.724  0.00  0.00    +0.000 OA
ATOM     12  H   UNL     1      48.906   1.397   5.637  0.00  0.00    +0.000 HD
ATOM     13  H   UNL     1      48.623   2.933   6.377  0.00  0.00    +0.000 HD
ENDBRANCH   1  10
BRANCH   5  14
ATOM     14  C   UNL     1      43.759   4.895  11.186  0.00  0.00    +0.000 C 
BRANCH  14  15
ATOM     15  C   UNL     1      44.834   5.610  11.959  0.00  0.00    +0.000 A 
ATOM     16  C   UNL     1      45.313   6.858  11.558  0.00  0.00    +0.000 A 
ATOM     17  C   UNL     1      46.372   7.413  12.254  0.00  0.00    +0.000 A 
ATOM     18  N   UNL     1      46.977   6.819  13.306  0.00  0.00    +0.000 NA
ATOM     19  C   UNL     1      46.501   5.618  13.718  0.00  0.00    +0.000 A 
ATOM     20  C   UNL     1      45.436   4.996  13.065  0.00  0.00    +0.000 A 
BRANCH  19  21
ATOM     21  C   UNL     1      47.213   4.984  14.847  0.00  0.00    +0.000 A 
ATOM     22  C   UNL     1      47.149   3.597  15.085  0.00  0.00    +0.000 A 
ATOM     23  C   UNL     1      47.864   3.004  16.130  0.00  0.00    +0.000 A 
ATOM     24  C   UNL     1      48.652   3.787  16.968  0.00  0.00    +0.000 A 
ATOM     25  C   UNL     1      48.719   5.162  16.767  0.00  0.00    +0.000 A 
ATOM     26  C   UNL     1      48.004   5.752  15.721  0.00  0.00    +0.000 A 
ENDBRANCH  19  21
ENDBRANCH  14  15
ENDBRANCH   5  14
TORSDOF 4
ENDMDL
MODEL 3
REMARK VINA RESULT:    -8.153      2.936      6.934
REMARK INTER + INTRA:         -10.813
REMARK INTER:                 -10.013
REMARK INTRA:                  -0.800
REMARK UNBOUND:                -0.754
REMARK  Name = 
REMARK  4 active torsions:
REMARK  status: ('A' for Active; 'I' for Inactive)
REMARK    1  A    between atoms: C_2  and  C_4
REMARK    2  A    between atoms: N_8  and  C_9
REMARK    3  A    between atoms: C_9  and  C_10
REMARK    4  A    between atoms: C_14  and  C_15
REMARK                            x       y       z     vdW  Elec       q    Type
REMARK                         _______ _______ _______ _____ _____    ______ ____
ROOT
ATOM      1  C   UNL     1      48.736   7.499  12.969  0.00  0.00    +0.000 A 
ATOM      2  C   UNL     1      48.004   7.995  11.894  0.00  0.00    +0.000 A 
ATOM      3  C   UNL     1      46.650   7.678  11.790  0.00  0.00    +0.000 A 
ATOM      4  C   UNL     1      46.053   6.859  12.741  0.00  0.00    +0.000 A 
ATOM      5  N   UNL     1      44.707   6.563  12.747  0.00  0.00    +0.000 N 
ATOM      6  N   UNL     1      46.755   6.364  13.780  0.00  0.00    +0.000 NA
ATOM      7  C   UNL     1      48.075   6.681  13.871  0.00  0.00    +0.000 A 
ATOM      8  H   UNL     1      44.539   5.876  13.476  0.00  0.00    +0.000 HD
ENDROOT
BRANCH   1  10
ATOM      9  N   UNL     1      50.715   7.489  14.375  0.00  0.00    +0.000 N 
ATOM     10  C   UNL     1      50.166   7.807  13.164  0.00  0.00    +0.000 C 
ATOM     11  O   UNL     1      50.842   8.303  12.270  0.00  0.00    +0.000 OA
ATOM     12  H   UNL     1      51.713   7.620  14.467  0.00  0.00    +0.000 HD
ATOM     13  H   UNL     1      50.266   6.863  15.029  0.00  0.00    +0.000 HD
ENDBRANCH   1  10
BRANCH   5  14
ATOM     14  C   UNL     1      43.938   6.405  11.531  0.00  0.00    +0.000 C 
BRANCH  14  15
ATOM     15  C   UNL     1      43.919   4.984  11.036  0.00  0.00    +0.000 A 
ATOM     16  C   UNL     1      43.207   3.988  11.706  0.00  0.00    +0.000 A 
ATOM     17  C   UNL     1      43.315   2.684  11.256  0.00  0.00    +0.000 A 
ATOM     18  N   UNL     1      44.070   2.311  10.200  0.00  0.00    +0.000 NA
ATOM     19  C   UNL     1      44.744   3.277   9.528  0.00  0.00    +0.000 A 
ATOM     20  C   UNL     1      44.684   4.614   9.923  0.00  0.00    +0.000 A 
BRANCH  19  21
ATOM     21  C   UNL     1      45.588   2.824   8.402  0.00  0.00    +0.000 A 
ATOM     22  C   UNL     1      45.911   3.670   7.325  0.00  0.00    +0.000 A 
ATOM     23  C   UNL     1      46.748   3.244   6.289  0.00  0.00    +0.000 A 
ATOM     24  C   UNL     1      47.273   1.955   6.302  0.00  0.00    +0.000 A 
ATOM     25  C   UNL     1      46.955   1.091   7.346  0.00  0.00    +0.000 A 
ATOM     26  C   UNL     1      46.120   1.521   8.381  0.00  0.00    +0.000 A 
ENDBRANCH  19  21
ENDBRANCH  14  15
ENDBRANCH   5  14
TORSDOF 4
ENDMDL
MODEL 4
REMARK VINA RESULT:    -8.123      3.174      6.850
REMARK INTER + INTRA:         -10.776
REMARK INTER:                 -10.325
REMARK INTRA:                  -0.451
REMARK UNBOUND:                -0.754
REMARK  Name = 
REMARK  4 active torsions:
REMARK  status: ('A' for Active; 'I' for Inactive)
REMARK    1  A    between atoms: C_2  and  C_4
REMARK    2  A    between atoms: N_8  and  C_9
REMARK    3  A    between atoms: C_9  and  C_10
REMARK    4  A    between atoms: C_14  and  C_15
REMARK                            x       y       z     vdW  Elec       q    Type
REMARK                         _______ _______ _______ _____ _____    ______ ____
ROOT
ATOM      1  C   UNL     1      47.822   7.076  13.620  0.00  0.00    +0.000 A 
ATOM      2  C   UNL     1      47.077   5.910  13.477  0.00  0.00    +0.000 A 
ATOM      3  C   UNL     1      45.956   5.917  12.648  0.00  0.00    +0.000 A 
ATOM      4  C   UNL     1      45.584   7.085  11.992  0.00  0.00    +0.000 A 
ATOM      5  N   UNL     1      44.536   7.151  11.100  0.00  0.00    +0.000 N 
ATOM      6  N   UNL     1      46.292   8.223  12.132  0.00  0.00    +0.000 NA
ATOM      7  C   UNL     1      47.385   8.204  12.943  0.00  0.00    +0.000 A 
ATOM      8  H   UNL     1      44.408   8.123  10.836  0.00  0.00    +0.000 HD
ENDROOT
BRANCH   1  10
ATOM      9  N   UNL     1      50.218   7.405  13.828  0.00  0.00    +0.000 N 
ATOM     10  C   UNL     1      49.034   7.145  14.459  0.00  0.00    +0.000 C 
ATOM     11  O   UNL     1      48.980   7.003  15.675  0.00  0.00    +0.000 OA
ATOM     12  H   UNL     1      51.027   7.540  14.420  0.00  0.00    +0.000 HD
ATOM     13  H   UNL     1      50.266   7.771  12.887  0.00  0.00    +0.000 HD
ENDBRANCH   1  10
BRANCH   5  14
ATOM     14  C   UNL     1      43.328   6.368  11.256  0.00  0.00    +0.000 C 
BRANCH  14  15
ATOM     15  C   UNL     1      43.530   4.915  10.918  0.00  0.00    +0.000 A 
ATOM     16  C   UNL     1      43.020   3.900  11.728  0.00  0.00    +0.000 A 
ATOM     17  C   UNL     1      43.328   2.588  11.416  0.00  0.00    +0.000 A 
ATOM     18  N   UNL     1      44.098   2.223  10.368  0.00  0.00    +0.000 NA
ATOM     19  C   UNL     1      44.577   3.202   9.560  0.00  0.00    +0.000 A 
ATOM     20  C   UNL     1      44.308   4.548   9.812  0.00  0.00    +0.000 A 
BRANCH  19  21
ATOM     21  C   UNL     1      45.445   2.766   8.447  0.00  0.00    +0.000 A 
ATOM     22  C   UNL     1      45.780   3.624   7.382  0.00  0.00    +0.000 A 
ATOM     23  C   UNL     1      46.639   3.213   6.358  0.00  0.00    +0.000 A 
ATOM     24  C   UNL     1      47.175   1.929   6.371  0.00  0.00    +0.000 A 
ATOM     25  C   UNL     1      46.845   1.054   7.401  0.00  0.00    +0.000 A 
ATOM     26  C   UNL     1      45.988   1.467   8.424  0.00  0.00    +0.000 A 
ENDBRANCH  19  21
ENDBRANCH  14  15
ENDBRANCH   5  14
TORSDOF 4
ENDMDL
MODEL 5
REMARK VINA RESULT:    -8.020      3.506      7.301
REMARK INTER + INTRA:         -10.649
REMARK INTER:                 -10.053
REMARK INTRA:                  -0.595
REMARK UNBOUND:                -0.754
REMARK  Name = 
REMARK  4 active torsions:
REMARK  status: ('A' for Active; 'I' for Inactive)
REMARK    1  A    between atoms: C_2  and  C_4
REMARK    2  A    between atoms: N_8  and  C_9
REMARK    3  A    between atoms: C_9  and  C_10
REMARK    4  A    between atoms: C_14  and  C_15
REMARK                            x       y       z     vdW  Elec       q    Type
REMARK                         _______ _______ _______ _____ _____    ______ ____
ROOT
ATOM      1  C   UNL     1      47.968   5.149  15.650  0.00  0.00    +0.000 A 
ATOM      2  C   UNL     1      46.893   4.422  15.149  0.00  0.00    +0.000 A 
ATOM      3  C   UNL     1      46.265   4.855  13.982  0.00  0.00    +0.000 A 
ATOM      4  C   UNL     1      46.702   6.010  13.345  0.00  0.00    +0.000 A 
ATOM      5  N   UNL     1      46.182   6.459  12.150  0.00  0.00    +0.000 N 
ATOM      6  N   UNL     1      47.736   6.728  13.828  0.00  0.00    +0.000 NA
ATOM      7  C   UNL     1      48.341   6.295  14.967  0.00  0.00    +0.000 A 
ATOM      8  H   UNL     1      46.597   7.363  11.947  0.00  0.00    +0.000 HD
ENDROOT
BRANCH   1  10
ATOM      9  N   UNL     1      47.976   4.602  18.015  0.00  0.00    +0.000 N 
ATOM     10  C   UNL     1      48.701   4.745  16.866  0.00  0.00    +0.000 C 
ATOM     11  O   UNL     1      49.906   4.518  16.842  0.00  0.00    +0.000 OA
ATOM     12  H   UNL     1      48.469   4.239  18.820  0.00  0.00    +0.000 HD
ATOM     13  H   UNL     1      46.967   4.533  18.019  0.00  0.00    +0.000 HD
ENDBRANCH   1  10
BRANCH   5  14
ATOM     14  C   UNL     1      44.787   6.302  11.798  0.00  0.00    +0.000 C 
BRANCH  14  15
ATOM     15  C   UNL     1      44.493   4.966  11.169  0.00  0.00    +0.000 A 
ATOM     16  C   UNL     1      43.577   4.080  11.736  0.00  0.00    +0.000 A 
ATOM     17  C   UNL     1      43.429   2.828  11.165  0.00  0.00    +0.000 A 
ATOM     18  N   UNL     1      44.120   2.407  10.084  0.00  0.00    +0.000 NA
ATOM     19  C   UNL     1      44.995   3.272   9.511  0.00  0.00    +0.000 A 
ATOM     20  C   UNL     1      45.197   4.551  10.032  0.00  0.00    +0.000 A 
BRANCH  19  21
ATOM     21  C   UNL     1      45.758   2.761   8.354  0.00  0.00    +0.000 A 
ATOM     22  C   UNL     1      46.085   3.580   7.256  0.00  0.00    +0.000 A 
ATOM     23  C   UNL     1      46.847   3.096   6.188  0.00  0.00    +0.000 A 
ATOM     24  C   UNL     1      47.292   1.778   6.190  0.00  0.00    +0.000 A 
ATOM     25  C   UNL     1      46.969   0.941   7.254  0.00  0.00    +0.000 A 
ATOM     26  C   UNL     1      46.208   1.428   8.321  0.00  0.00    +0.000 A 
ENDBRANCH  19  21
ENDBRANCH  14  15
ENDBRANCH   5  14
TORSDOF 4
ENDMDL
MODEL 6
REMARK VINA RESULT:    -7.596      1.751      2.430
REMARK INTER + INTRA:         -10.126
REMARK INTER:                  -9.983
REMARK INTRA:                  -0.144
REMARK UNBOUND:                -0.754
REMARK  Name = 
REMARK  4 active torsions:
REMARK  status: ('A' for Active; 'I' for Inactive)
REMARK    1  A    between atoms: C_2  and  C_4
REMARK    2  A    between atoms: N_8  and  C_9
REMARK    3  A    between atoms: C_9  and  C_10
REMARK    4  A    between atoms: C_14  and  C_15
REMARK                            x       y       z     vdW  Elec       q    Type
REMARK                         _______ _______ _______ _____ _____    ______ ____
ROOT
ATOM      1  C   UNL     1      46.540   2.711   7.235  0.00  0.00    +0.000 A 
ATOM      2  C   UNL     1      46.003   3.887   7.749  0.00  0.00    +0.000 A 
ATOM      3  C   UNL     1      45.288   3.842   8.945  0.00  0.00    +0.000 A 
ATOM      4  C   UNL     1      45.102   2.629   9.598  0.00  0.00    +0.000 A 
ATOM      5  N   UNL     1      44.473   2.516  10.819  0.00  0.00    +0.000 N 
ATOM      6  N   UNL     1      45.608   1.482   9.104  0.00  0.00    +0.000 NA
ATOM      7  C   UNL     1      46.304   1.538   7.936  0.00  0.00    +0.000 A 
ATOM      8  H   UNL     1      44.377   1.528  11.033  0.00  0.00    +0.000 HD
ENDROOT
BRANCH   1  10
ATOM      9  N   UNL     1      48.658   2.378   6.097  0.00  0.00    +0.000 N 
ATOM     10  C   UNL     1      47.329   2.677   5.988  0.00  0.00    +0.000 C 
ATOM     11  O   UNL     1      46.810   2.881   4.897  0.00  0.00    +0.000 OA
ATOM     12  H   UNL     1      49.170   2.269   5.231  0.00  0.00    +0.000 HD
ATOM     13  H   UNL     1      49.058   1.964   6.928  0.00  0.00    +0.000 HD
ENDBRANCH   1  10
BRANCH   5  14
ATOM     14  C   UNL     1      43.365   3.363  11.208  0.00  0.00    +0.000 C 
BRANCH  14  15
ATOM     15  C   UNL     1      43.786   4.784  11.472  0.00  0.00    +0.000 A 
ATOM     16  C   UNL     1      42.950   5.859  11.169  0.00  0.00    +0.000 A 
ATOM     17  C   UNL     1      43.437   7.143  11.341  0.00  0.00    +0.000 A 
ATOM     18  N   UNL     1      44.680   7.424  11.788  0.00  0.00    +0.000 NA
ATOM     19  C   UNL     1      45.491   6.385  12.108  0.00  0.00    +0.000 A 
ATOM     20  C   UNL     1      45.068   5.062  11.960  0.00  0.00    +0.000 A 
BRANCH  19  21
ATOM     21  C   UNL     1      46.855   6.732  12.558  0.00  0.00    +0.000 A 
ATOM     22  C   UNL     1      47.343   6.350  13.822  0.00  0.00    +0.000 A 
ATOM     23  C   UNL     1      48.652   6.646  14.216  0.00  0.00    +0.000 A 
ATOM     24  C   UNL     1      49.499   7.339  13.358  0.00  0.00    +0.000 A 
ATOM     25  C   UNL     1      49.037   7.744  12.110  0.00  0.00    +0.000 A 
ATOM     26  C   UNL     1      47.729   7.446  11.717  0.00  0.00    +0.000 A 
ENDBRANCH  19  21
ENDBRANCH  14  15
ENDBRANCH   5  14
TORSDOF 4
ENDMDL
MODEL 7
REMARK VINA RESULT:    -7.403      1.392      2.025
REMARK INTER + INTRA:          -9.887
REMARK INTER:                  -9.190
REMARK INTRA:                  -0.698
REMARK UNBOUND:                -0.754
REMARK  Name = 
REMARK  4 active torsions:
REMARK  status: ('A' for Active; 'I' for Inactive)
REMARK    1  A    between atoms: C_2  and  C_4
REMARK    2  A    between atoms: N_8  and  C_9
REMARK    3  A    between atoms: C_9  and  C_10
REMARK    4  A    between atoms: C_14  and  C_15
REMARK                            x       y       z     vdW  Elec       q    Type
REMARK                         _______ _______ _______ _____ _____    ______ ____
ROOT
ATOM      1  C   UNL     1      46.380   2.164   7.662  0.00  0.00    +0.000 A 
ATOM      2  C   UNL     1      45.856   1.850   8.912  0.00  0.00    +0.000 A 
ATOM      3  C   UNL     1      45.015   2.765   9.545  0.00  0.00    +0.000 A 
ATOM      4  C   UNL     1      44.725   3.980   8.935  0.00  0.00    +0.000 A 
ATOM      5  N   UNL     1      43.846   4.901   9.462  0.00  0.00    +0.000 N 
ATOM      6  N   UNL     1      45.237   4.299   7.729  0.00  0.00    +0.000 NA
ATOM      7  C   UNL     1      46.056   3.398   7.121  0.00  0.00    +0.000 A 
ATOM      8  H   UNL     1      43.882   5.736   8.886  0.00  0.00    +0.000 HD
ENDROOT
BRANCH   1  10
ATOM      9  N   UNL     1      48.291   1.793   6.211  0.00  0.00    +0.000 N 
ATOM     10  C   UNL     1      47.258   1.241   6.917  0.00  0.00    +0.000 C 
ATOM     11  O   UNL     1      47.088   0.028   6.950  0.00  0.00    +0.000 OA
ATOM     12  H   UNL     1      48.939   1.148   5.778  0.00  0.00    +0.000 HD
ATOM     13  H   UNL     1      48.609   2.740   6.361  0.00  0.00    +0.000 HD
ENDBRANCH   1  10
BRANCH   5  14
ATOM     14  C   UNL     1      43.699   5.114  10.886  0.00  0.00    +0.000 C 
BRANCH  14  15
ATOM     15  C   UNL     1      44.335   6.397  11.351  0.00  0.00    +0.000 A 
ATOM     16  C   UNL     1      43.673   7.620  11.238  0.00  0.00    +0.000 A 
ATOM     17  C   UNL     1      44.353   8.773  11.589  0.00  0.00    +0.000 A 
ATOM     18  N   UNL     1      45.627   8.790  12.038  0.00  0.00    +0.000 NA
ATOM     19  C   UNL     1      46.269   7.603  12.175  0.00  0.00    +0.000 A 
ATOM     20  C   UNL     1      45.647   6.398  11.840  0.00  0.00    +0.000 A 
BRANCH  19  21
ATOM     21  C   UNL     1      47.672   7.666  12.633  0.00  0.00    +0.000 A 
ATOM     22  C   UNL     1      48.034   7.394  13.966  0.00  0.00    +0.000 A 
ATOM     23  C   UNL     1      49.371   7.413  14.376  0.00  0.00    +0.000 A 
ATOM     24  C   UNL     1      50.376   7.713  13.462  0.00  0.00    +0.000 A 
ATOM     25  C   UNL     1      50.045   8.003  12.142  0.00  0.00    +0.000 A 
ATOM     26  C   UNL     1      48.708   7.983  11.735  0.00  0.00    +0.000 A 
ENDBRANCH  19  21
ENDBRANCH  14  15
ENDBRANCH   5  14
TORSDOF 4
ENDMDL
MODEL 8
REMARK VINA RESULT:    -7.399      4.110      8.015
REMARK INTER + INTRA:          -9.882
REMARK INTER:                  -9.387
REMARK INTRA:                  -0.496
REMARK UNBOUND:                -0.754
REMARK  Name = 
REMARK  4 active torsions:
REMARK  status: ('A' for Active; 'I' for Inactive)
REMARK    1  A    between atoms: C_2  and  C_4
REMARK    2  A    between atoms: N_8  and  C_9
REMARK    3  A    between atoms: C_9  and  C_10
REMARK    4  A    between atoms: C_14  and  C_15
REMARK                            x       y       z     vdW  Elec       q    Type
REMARK                         _______ _______ _______ _____ _____    ______ ____
ROOT
ATOM      1  C   UNL     1      49.274   4.364  17.319  0.00  0.00    +0.000 A 
ATOM      2  C   UNL     1      48.940   5.547  16.667  0.00  0.00    +0.000 A 
ATOM      3  C   UNL     1      47.880   5.548  15.762  0.00  0.00    +0.000 A 
ATOM      4  C   UNL     1      47.184   4.373  15.505  0.00  0.00    +0.000 A 
ATOM      5  N   UNL     1      46.080   4.312  14.683  0.00  0.00    +0.000 N 
ATOM      6  N   UNL     1      47.506   3.219  16.123  0.00  0.00    +0.000 NA
ATOM      7  C   UNL     1      48.542   3.230  17.004  0.00  0.00    +0.000 A 
ATOM      8  H   UNL     1      45.816   3.336  14.583  0.00  0.00    +0.000 HD
ENDROOT
BRANCH   1  10
ATOM      9  N   UNL     1      50.023   4.372  19.628  0.00  0.00    +0.000 N 
ATOM     10  C   UNL     1      50.367   4.284  18.308  0.00  0.00    +0.000 C 
ATOM     11  O   UNL     1      51.531   4.118  17.963  0.00  0.00    +0.000 OA
ATOM     12  H   UNL     1      50.766   4.226  20.299  0.00  0.00    +0.000 HD
ATOM     13  H   UNL     1      49.073   4.255  19.953  0.00  0.00    +0.000 HD
ENDBRANCH   1  10
BRANCH   5  14
ATOM     14  C   UNL     1      45.941   5.135  13.500  0.00  0.00    +0.000 C 
BRANCH  14  15
ATOM     15  C   UNL     1      45.137   4.466  12.417  0.00  0.00    +0.000 A 
ATOM     16  C   UNL     1      43.819   4.063  12.632  0.00  0.00    +0.000 A 
ATOM     17  C   UNL     1      43.171   3.363  11.629  0.00  0.00    +0.000 A 
ATOM     18  N   UNL     1      43.738   3.042  10.446  0.00  0.00    +0.000 NA
ATOM     19  C   UNL     1      45.012   3.452  10.220  0.00  0.00    +0.000 A 
ATOM     20  C   UNL     1      45.728   4.162  11.185  0.00  0.00    +0.000 A 
BRANCH  19  21
ATOM     21  C   UNL     1      45.609   3.050   8.930  0.00  0.00    +0.000 A 
ATOM     22  C   UNL     1      45.929   3.990   7.931  0.00  0.00    +0.000 A 
ATOM     23  C   UNL     1      46.536   3.601   6.733  0.00  0.00    +0.000 A 
ATOM     24  C   UNL     1      46.829   2.261   6.503  0.00  0.00    +0.000 A 
ATOM     25  C   UNL     1      46.508   1.308   7.465  0.00  0.00    +0.000 A 
ATOM     26  C   UNL     1      45.902   1.700   8.662  0.00  0.00    +0.000 A 
ENDBRANCH  19  21
ENDBRANCH  14  15
ENDBRANCH   5  14
TORSDOF 4
ENDMDL
MODEL 9
REMARK VINA RESULT:    -7.057      2.919      6.910
REMARK INTER + INTRA:          -9.460
REMARK INTER:                  -8.832
REMARK INTRA:                  -0.628
REMARK UNBOUND:                -0.754
REMARK  Name = 
REMARK  4 active torsions:
REMARK  status: ('A' for Active; 'I' for Inactive)
REMARK    1  A    between atoms: C_2  and  C_4
REMARK    2  A    between atoms: N_8  and  C_9
REMARK    3  A    between atoms: C_9  and  C_10
REMARK    4  A    between atoms: C_14  and  C_15
REMARK                            x       y       z     vdW  Elec       q    Type
REMARK                         _______ _______ _______ _____ _____    ______ ____
ROOT
ATOM      1  C   UNL     1      48.511   8.619  12.131  0.00  0.00    +0.000 A 
ATOM      2  C   UNL     1      47.229   8.700  12.666  0.00  0.00    +0.000 A 
ATOM      3  C   UNL     1      46.647   7.556  13.212  0.00  0.00    +0.000 A 
ATOM      4  C   UNL     1      47.340   6.351  13.201  0.00  0.00    +0.000 A 
ATOM      5  N   UNL     1      46.863   5.199  13.787  0.00  0.00    +0.000 N 
ATOM      6  N   UNL     1      48.578   6.259  12.676  0.00  0.00    +0.000 NA
ATOM      7  C   UNL     1      49.135   7.382  12.146  0.00  0.00    +0.000 A 
ATOM      8  H   UNL     1      47.501   4.443  13.560  0.00  0.00    +0.000 HD
ENDROOT
BRANCH   1  10
ATOM      9  N   UNL     1      48.427  10.804  11.076  0.00  0.00    +0.000 N 
ATOM     10  C   UNL     1      49.205   9.787  11.556  0.00  0.00    +0.000 C 
ATOM     11  O   UNL     1      50.428   9.858  11.533  0.00  0.00    +0.000 OA
ATOM     12  H   UNL     1      48.910  11.637  10.767  0.00  0.00    +0.000 HD
ATOM     13  H   UNL     1      47.446  10.893  11.302  0.00  0.00    +0.000 HD
ENDBRANCH   1  10
BRANCH   5  14
ATOM     14  C   UNL     1      45.456   4.861  13.813  0.00  0.00    +0.000 C 
BRANCH  14  15
ATOM     15  C   UNL     1      44.836   4.849  12.442  0.00  0.00    +0.000 A 
ATOM     16  C   UNL     1      43.568   5.383  12.211  0.00  0.00    +0.000 A 
ATOM     17  C   UNL     1      43.014   5.249  10.950  0.00  0.00    +0.000 A 
ATOM     18  N   UNL     1      43.628   4.629   9.919  0.00  0.00    +0.000 NA
ATOM     19  C   UNL     1      44.872   4.129  10.128  0.00  0.00    +0.000 A 
ATOM     20  C   UNL     1      45.494   4.227  11.374  0.00  0.00    +0.000 A 
BRANCH  19  21
ATOM     21  C   UNL     1      45.496   3.426   8.988  0.00  0.00    +0.000 A 
ATOM     22  C   UNL     1      46.003   4.118   7.872  0.00  0.00    +0.000 A 
ATOM     23  C   UNL     1      46.632   3.444   6.820  0.00  0.00    +0.000 A 
ATOM     24  C   UNL     1      46.758   2.059   6.857  0.00  0.00    +0.000 A 
ATOM     25  C   UNL     1      46.250   1.348   7.940  0.00  0.00    +0.000 A 
ATOM     26  C   UNL     1      45.623   2.024   8.990  0.00  0.00    +0.000 A 
ENDBRANCH  19  21
ENDBRANCH  14  15
ENDBRANCH   5  14
TORSDOF 4
ENDMDL
