MODEL 1
REMARK VINA RESULT:    -9.013      0.000      0.000
REMARK INTER + INTRA:         -14.238
REMARK INTER:                 -12.965
REMARK INTRA:                  -1.272
REMARK UNBOUND:                -1.272
REMARK  Name = 
REMARK  8 active torsions:
REMARK  status: ('A' for Active; 'I' for Inactive)
REMARK    1  A    between atoms: C_2  and  C_5
REMARK    2  A    between atoms: N_3  and  O_4
REMARK    3  A    between atoms: C_8  and  N_9
REMARK    4  A    between atoms: N_9  and  C_10
REMARK    5  A    between atoms: C_10  and  C_11
REMARK    6  A    between atoms: C_11  and  C_14
REMARK    7  A    between atoms: C_19  and  O_20
REMARK    8  A    between atoms: O_20  and  C_21
REMARK                            x       y       z     vdW  Elec       q    Type
REMARK                         _______ _______ _______ _____ _____    ______ ____
ROOT
ATOM      1  C   UNL     1      43.602   4.082  11.770  0.00  0.00    +0.000 C 
ENDROOT
BRANCH   1   2
ATOM      2  C   UNL     1      43.859   5.468  12.418  0.00  0.00    +0.000 C 
ATOM      3  F   UNL     1      43.315   6.412  11.587  0.00  0.00    +0.000 F 
ATOM      4  F   UNL     1      43.113   5.540  13.564  0.00  0.00    +0.000 F 
BRANCH   2   5
ATOM      5  C   UNL     1      45.329   5.732  12.672  0.00  0.00    +0.000 A 
ATOM      6  C   UNL     1      46.043   6.610  11.849  0.00  0.00    +0.000 A 
ATOM      7  C   UNL     1      47.384   6.871  12.114  0.00  0.00    +0.000 A 
ATOM      8  F   UNL     1      48.055   7.713  11.318  0.00  0.00    +0.000 F 
ATOM      9  C   UNL     1      48.033   6.280  13.190  0.00  0.00    +0.000 A 
ATOM     10  C   UNL     1      47.332   5.408  14.021  0.00  0.00    +0.000 A 
ATOM     11  C   UNL     1      45.989   5.116  13.750  0.00  0.00    +0.000 A 
BRANCH  10  12
ATOM     12  O   UNL     1      48.043   4.870  15.066  0.00  0.00    +0.000 OA
BRANCH  12  13
ATOM     13  C   UNL     1      47.377   3.932  15.944  0.00  0.00    +0.000 C 
ATOM     14  C   UNL     1      47.200   4.360  17.421  0.00  0.00    +0.000 C 
ATOM     15  C   UNL     1      47.662   2.961  17.852  0.00  0.00    +0.000 C 
ATOM     16  C   UNL     1      48.268   2.774  16.453  0.00  0.00    +0.000 C 
ENDBRANCH  12  13
ENDBRANCH  10  12
ENDBRANCH   2   5
ENDBRANCH   1   2
BRANCH   1  17
ATOM     17  N   UNL     1      43.417   4.110  10.301  0.00  0.00    +0.000 N 
ATOM     18  H   UNL     1      43.067   5.006   9.958  0.00  0.00    +0.000 HD
BRANCH  17  22
ATOM     19  C   UNL     1      46.365   2.684   7.613  0.00  0.00    +0.000 A 
ATOM     20  C   UNL     1      46.153   4.052   7.804  0.00  0.00    +0.000 A 
ATOM     21  C   UNL     1      45.180   4.494   8.712  0.00  0.00    +0.000 A 
ATOM     22  C   UNL     1      44.417   3.588   9.469  0.00  0.00    +0.000 A 
ATOM     23  C   UNL     1      44.647   2.219   9.238  0.00  0.00    +0.000 A 
ATOM     24  F   UNL     1      43.963   1.282   9.913  0.00  0.00    +0.000 F 
ATOM     25  C   UNL     1      45.611   1.765   8.339  0.00  0.00    +0.000 A 
BRANCH  19  27
ATOM     26  O   UNL     1      48.226   1.365   6.984  0.00  0.00    +0.000 OA
ATOM     27  C   UNL     1      47.419   2.236   6.670  0.00  0.00    +0.000 C 
ATOM     28  N   UNL     1      47.454   2.867   5.447  0.00  0.00    +0.000 N 
ATOM     29  H   UNL     1      47.063   3.792   5.296  0.00  0.00    +0.000 HD
BRANCH  28  30
ATOM     30  O   UNL     1      48.539   2.507   4.613  0.00  0.00    +0.000 OA
ATOM     31  H   UNL     1      48.277   1.610   4.306  0.00  0.00    +0.000 HD
ENDBRANCH  28  30
ENDBRANCH  19  27
ENDBRANCH  17  22
ENDBRANCH   1  17
TORSDOF 8
ENDMDL
MODEL 2
REMARK VINA RESULT:    -8.373      1.582      2.100
REMARK INTER + INTRA:         -13.316
REMARK INTER:                 -12.023
REMARK INTRA:                  -1.293
REMARK UNBOUND:                -1.272
REMARK  Name = 
REMARK  8 active torsions:
REMARK  status: ('A' for Active; 'I' for Inactive)
REMARK    1  A    between atoms: C_2  and  C_5
REMARK    2  A    between atoms: N_3  and  O_4
REMARK    3  A    between atoms: C_8  and  N_9
REMARK    4  A    between atoms: N_9  and  C_10
REMARK    5  A    between atoms: C_10  and  C_11
REMARK    6  A    between atoms: C_11  and  C_14
REMARK    7  A    between atoms: C_19  and  O_20
REMARK    8  A    between atoms: O_20  and  C_21
REMARK                            x       y       z     vdW  Elec       q    Type
REMARK                         _______ _______ _______ _____ _____    ______ ____
ROOT
ATOM      1  C   UNL     1      43.965   3.716  12.078  0.00  0.00    +0.000 C 
ENDROOT
BRANCH   1   2
ATOM      2  C   UNL     1      43.662   5.190  12.452  0.00  0.00    +0.000 C 
ATOM      3  F   UNL     1      42.873   5.708  11.459  0.00  0.00    +0.000 F 
ATOM      4  F   UNL     1      42.865   5.186  13.565  0.00  0.00    +0.000 F 
BRANCH   2   5
ATOM      5  C   UNL     1      44.918   6.014  12.650  0.00  0.00    +0.000 A 
ATOM      6  C   UNL     1      44.991   7.323  12.158  0.00  0.00    +0.000 A 
ATOM      7  C   UNL     1      46.137   8.081  12.377  0.00  0.00    +0.000 A 
ATOM      8  F   UNL     1      46.193   9.331  11.902  0.00  0.00    +0.000 F 
ATOM      9  C   UNL     1      47.216   7.567  13.084  0.00  0.00    +0.000 A 
ATOM     10  C   UNL     1      47.154   6.267  13.582  0.00  0.00    +0.000 A 
ATOM     11  C   UNL     1      46.017   5.483  13.347  0.00  0.00    +0.000 A 
BRANCH  10  12
ATOM     12  O   UNL     1      48.260   5.834  14.274  0.00  0.00    +0.000 OA
BRANCH  12  13
ATOM     13  C   UNL     1      48.723   6.620  15.397  0.00  0.00    +0.000 C 
ATOM     14  C   UNL     1      50.189   7.113  15.351  0.00  0.00    +0.000 C 
ATOM     15  C   UNL     1      50.350   6.683  16.816  0.00  0.00    +0.000 C 
ATOM     16  C   UNL     1      49.106   5.797  16.651  0.00  0.00    +0.000 C 
ENDBRANCH  12  13
ENDBRANCH  10  12
ENDBRANCH   2   5
ENDBRANCH   1   2
BRANCH   1  17
ATOM     17  N   UNL     1      43.489   3.307  10.737  0.00  0.00    +0.000 N 
ATOM     18  H   UNL     1      42.677   3.839  10.419  0.00  0.00    +0.000 HD
BRANCH  17  22
ATOM     19  C   UNL     1      46.397   2.535   7.753  0.00  0.00    +0.000 A 
ATOM     20  C   UNL     1      45.683   1.499   8.362  0.00  0.00    +0.000 A 
ATOM     21  C   UNL     1      44.717   1.787   9.336  0.00  0.00    +0.000 A 
ATOM     22  C   UNL     1      44.418   3.110   9.705  0.00  0.00    +0.000 A 
ATOM     23  C   UNL     1      45.167   4.125   9.082  0.00  0.00    +0.000 A 
ATOM     24  F   UNL     1      44.952   5.418   9.375  0.00  0.00    +0.000 F 
ATOM     25  C   UNL     1      46.131   3.854   8.112  0.00  0.00    +0.000 A 
BRANCH  19  27
ATOM     26  O   UNL     1      48.272   1.374   6.895  0.00  0.00    +0.000 OA
ATOM     27  C   UNL     1      47.395   2.213   6.704  0.00  0.00    +0.000 C 
ATOM     28  N   UNL     1      47.297   2.922   5.527  0.00  0.00    +0.000 N 
ATOM     29  H   UNL     1      46.845   3.829   5.470  0.00  0.00    +0.000 HD
BRANCH  28  30
ATOM     30  O   UNL     1      48.329   2.682   4.590  0.00  0.00    +0.000 OA
ATOM     31  H   UNL     1      48.090   1.795   4.240  0.00  0.00    +0.000 HD
ENDBRANCH  28  30
ENDBRANCH  19  27
ENDBRANCH  17  22
ENDBRANCH   1  17
TORSDOF 8
ENDMDL
MODEL 3
REMARK VINA RESULT:    -8.173      1.884      3.338
REMARK INTER + INTRA:         -13.029
REMARK INTER:                 -11.890
REMARK INTRA:                  -1.139
REMARK UNBOUND:                -1.272
REMARK  Name = 
REMARK  8 active torsions:
REMARK  status: ('A' for Active; 'I' for Inactive)
REMARK    1  A    between atoms: C_2  and  C_5
REMARK    2  A    between atoms: N_3  and  O_4
REMARK    3  A    between atoms: C_8  and  N_9
REMARK    4  A    between atoms: N_9  and  C_10
REMARK    5  A    between atoms: C_10  and  C_11
REMARK    6  A    between atoms: C_11  and  C_14
REMARK    7  A    between atoms: C_19  and  O_20
REMARK    8  A    between atoms: O_20  and  C_21
REMARK                            x       y       z     vdW  Elec       q    Type
REMARK                         _______ _______ _______ _____ _____    ______ ____
ROOT
ATOM      1  C   UNL     1      43.952   5.664  11.227  0.00  0.00    +0.000 C 
ENDROOT
BRANCH   1   2
ATOM      2  C   UNL     1      44.137   5.109  12.664  0.00  0.00    +0.000 C 
ATOM      3  F   UNL     1      43.078   5.553  13.410  0.00  0.00    +0.000 F 
ATOM      4  F   UNL     1      43.982   3.749  12.611  0.00  0.00    +0.000 F 
BRANCH   2   5
ATOM      5  C   UNL     1      45.460   5.511  13.281  0.00  0.00    +0.000 A 
ATOM      6  C   UNL     1      46.110   4.659  14.182  0.00  0.00    +0.000 A 
ATOM      7  C   UNL     1      47.342   5.024  14.715  0.00  0.00    +0.000 A 
ATOM      8  F   UNL     1      47.952   4.199  15.575  0.00  0.00    +0.000 F 
ATOM      9  C   UNL     1      47.950   6.223  14.366  0.00  0.00    +0.000 A 
ATOM     10  C   UNL     1      47.316   7.078  13.466  0.00  0.00    +0.000 A 
ATOM     11  C   UNL     1      46.063   6.735  12.942  0.00  0.00    +0.000 A 
BRANCH  10  12
ATOM     12  O   UNL     1      47.985   8.241  13.168  0.00  0.00    +0.000 OA
BRANCH  12  13
ATOM     13  C   UNL     1      49.401   8.169  12.880  0.00  0.00    +0.000 C 
ATOM     14  C   UNL     1      50.060   9.433  12.276  0.00  0.00    +0.000 C 
ATOM     15  C   UNL     1      50.782   8.537  11.261  0.00  0.00    +0.000 C 
ATOM     16  C   UNL     1      49.759   7.433  11.565  0.00  0.00    +0.000 C 
ENDBRANCH  12  13
ENDBRANCH  10  12
ENDBRANCH   2   5
ENDBRANCH   1   2
BRANCH   1  17
ATOM     17  N   UNL     1      43.493   4.668  10.233  0.00  0.00    +0.000 N 
ATOM     18  H   UNL     1      42.734   5.011   9.642  0.00  0.00    +0.000 HD
BRANCH  17  22
ATOM     19  C   UNL     1      46.282   2.591   7.811  0.00  0.00    +0.000 A 
ATOM     20  C   UNL     1      46.153   3.982   7.746  0.00  0.00    +0.000 A 
ATOM     21  C   UNL     1      45.231   4.642   8.571  0.00  0.00    +0.000 A 
ATOM     22  C   UNL     1      44.439   3.940   9.496  0.00  0.00    +0.000 A 
ATOM     23  C   UNL     1      44.586   2.541   9.522  0.00  0.00    +0.000 A 
ATOM     24  F   UNL     1      43.869   1.789  10.372  0.00  0.00    +0.000 F 
ATOM     25  C   UNL     1      45.498   1.870   8.708  0.00  0.00    +0.000 A 
BRANCH  19  27
ATOM     26  O   UNL     1      47.809   0.858   7.297  0.00  0.00    +0.000 OA
ATOM     27  C   UNL     1      47.283   1.913   6.952  0.00  0.00    +0.000 C 
ATOM     28  N   UNL     1      47.603   2.545   5.770  0.00  0.00    +0.000 N 
ATOM     29  H   UNL     1      47.475   3.542   5.629  0.00  0.00    +0.000 HD
BRANCH  28  30
ATOM     30  O   UNL     1      48.644   1.941   5.026  0.00  0.00    +0.000 OA
ATOM     31  H   UNL     1      49.132   2.721   4.679  0.00  0.00    +0.000 HD
ENDBRANCH  28  30
ENDBRANCH  19  27
ENDBRANCH  17  22
ENDBRANCH   1  17
TORSDOF 8
ENDMDL
MODEL 4
REMARK VINA RESULT:    -8.079      2.812      7.987
REMARK INTER + INTRA:         -12.893
REMARK INTER:                 -11.738
REMARK INTRA:                  -1.155
REMARK UNBOUND:                -1.272
REMARK  Name = 
REMARK  8 active torsions:
REMARK  status: ('A' for Active; 'I' for Inactive)
REMARK    1  A    between atoms: C_2  and  C_5
REMARK    2  A    between atoms: N_3  and  O_4
REMARK    3  A    between atoms: C_8  and  N_9
REMARK    4  A    between atoms: N_9  and  C_10
REMARK    5  A    between atoms: C_10  and  C_11
REMARK    6  A    between atoms: C_11  and  C_14
REMARK    7  A    between atoms: C_19  and  O_20
REMARK    8  A    between atoms: O_20  and  C_21
REMARK                            x       y       z     vdW  Elec       q    Type
REMARK                         _______ _______ _______ _____ _____    ______ ____
ROOT
ATOM      1  C   UNL     1      46.756   7.037  12.074  0.00  0.00    +0.000 C 
ENDROOT
BRANCH   1   2
ATOM      2  C   UNL     1      45.234   6.756  11.970  0.00  0.00    +0.000 C 
ATOM      3  F   UNL     1      44.748   6.673  13.248  0.00  0.00    +0.000 F 
ATOM      4  F   UNL     1      44.638   7.869  11.440  0.00  0.00    +0.000 F 
BRANCH   2   5
ATOM      5  C   UNL     1      44.922   5.506  11.174  0.00  0.00    +0.000 A 
ATOM      6  C   UNL     1      44.205   4.455  11.759  0.00  0.00    +0.000 A 
ATOM      7  C   UNL     1      43.895   3.326  11.007  0.00  0.00    +0.000 A 
ATOM      8  F   UNL     1      43.208   2.329  11.579  0.00  0.00    +0.000 F 
ATOM      9  C   UNL     1      44.278   3.220   9.676  0.00  0.00    +0.000 A 
ATOM     10  C   UNL     1      44.988   4.261   9.081  0.00  0.00    +0.000 A 
ATOM     11  C   UNL     1      45.330   5.392   9.834  0.00  0.00    +0.000 A 
BRANCH  10  12
ATOM     12  O   UNL     1      45.325   4.082   7.761  0.00  0.00    +0.000 OA
BRANCH  12  13
ATOM     13  C   UNL     1      46.602   3.479   7.450  0.00  0.00    +0.000 C 
ATOM     14  C   UNL     1      46.903   3.202   5.957  0.00  0.00    +0.000 C 
ATOM     15  C   UNL     1      47.422   1.812   6.348  0.00  0.00    +0.000 C 
ATOM     16  C   UNL     1      46.671   1.950   7.681  0.00  0.00    +0.000 C 
ENDBRANCH  12  13
ENDBRANCH  10  12
ENDBRANCH   2   5
ENDBRANCH   1   2
BRANCH   1  17
ATOM     17  N   UNL     1      47.569   5.881  12.515  0.00  0.00    +0.000 N 
ATOM     18  H   UNL     1      48.503   5.867  12.103  0.00  0.00    +0.000 HD
BRANCH  17  22
ATOM     19  C   UNL     1      47.878   4.879  16.620  0.00  0.00    +0.000 A 
ATOM     20  C   UNL     1      48.419   6.065  16.117  0.00  0.00    +0.000 A 
ATOM     21  C   UNL     1      48.289   6.376  14.755  0.00  0.00    +0.000 A 
ATOM     22  C   UNL     1      47.593   5.531  13.873  0.00  0.00    +0.000 A 
ATOM     23  C   UNL     1      47.075   4.340  14.413  0.00  0.00    +0.000 A 
ATOM     24  F   UNL     1      46.399   3.472  13.644  0.00  0.00    +0.000 F 
ATOM     25  C   UNL     1      47.197   4.017  15.764  0.00  0.00    +0.000 A 
BRANCH  19  27
ATOM     26  O   UNL     1      48.068   5.482  18.901  0.00  0.00    +0.000 OA
ATOM     27  C   UNL     1      48.001   4.581  18.068  0.00  0.00    +0.000 C 
ATOM     28  N   UNL     1      48.062   3.250  18.416  0.00  0.00    +0.000 N 
ATOM     29  H   UNL     1      48.364   2.528  17.770  0.00  0.00    +0.000 HD
BRANCH  28  30
ATOM     30  O   UNL     1      48.298   2.994  19.788  0.00  0.00    +0.000 OA
ATOM     31  H   UNL     1      48.316   3.901  20.168  0.00  0.00    +0.000 HD
ENDBRANCH  28  30
ENDBRANCH  19  27
ENDBRANCH  17  22
ENDBRANCH   1  17
TORSDOF 8
ENDMDL
MODEL 5
REMARK VINA RESULT:    -8.034      3.024      8.348
REMARK INTER + INTRA:         -12.829
REMARK INTER:                 -11.859
REMARK INTRA:                  -0.970
REMARK UNBOUND:                -1.272
REMARK  Name = 
REMARK  8 active torsions:
REMARK  status: ('A' for Active; 'I' for Inactive)
REMARK    1  A    between atoms: C_2  and  C_5
REMARK    2  A    between atoms: N_3  and  O_4
REMARK    3  A    between atoms: C_8  and  N_9
REMARK    4  A    between atoms: N_9  and  C_10
REMARK    5  A    between atoms: C_10  and  C_11
REMARK    6  A    between atoms: C_11  and  C_14
REMARK    7  A    between atoms: C_19  and  O_20
REMARK    8  A    between atoms: O_20  and  C_21
REMARK                            x       y       z     vdW  Elec       q    Type
REMARK                         _______ _______ _______ _____ _____    ______ ____
ROOT
ATOM      1  C   UNL     1      47.054   6.454  12.275  0.00  0.00    +0.000 C 
ENDROOT
BRANCH   1   2
ATOM      2  C   UNL     1      45.546   6.494  11.911  0.00  0.00    +0.000 C 
ATOM      3  F   UNL     1      44.848   6.613  13.083  0.00  0.00    +0.000 F 
ATOM      4  F   UNL     1      45.308   7.664  11.241  0.00  0.00    +0.000 F 
BRANCH   2   5
ATOM      5  C   UNL     1      45.104   5.280  11.120  0.00  0.00    +0.000 A 
ATOM      6  C   UNL     1      44.325   4.286  11.726  0.00  0.00    +0.000 A 
ATOM      7  C   UNL     1      43.895   3.194  10.980  0.00  0.00    +0.000 A 
ATOM      8  F   UNL     1      43.150   2.251  11.572  0.00  0.00    +0.000 F 
ATOM      9  C   UNL     1      44.218   3.068   9.635  0.00  0.00    +0.000 A 
ATOM     10  C   UNL     1      44.989   4.052   9.019  0.00  0.00    +0.000 A 
ATOM     11  C   UNL     1      45.450   5.145   9.765  0.00  0.00    +0.000 A 
BRANCH  10  12
ATOM     12  O   UNL     1      45.260   3.858   7.686  0.00  0.00    +0.000 OA
BRANCH  12  13
ATOM     13  C   UNL     1      46.587   3.423   7.308  0.00  0.00    +0.000 C 
ATOM     14  C   UNL     1      46.830   3.135   5.807  0.00  0.00    +0.000 C 
ATOM     15  C   UNL     1      47.560   1.844   6.201  0.00  0.00    +0.000 C 
ATOM     16  C   UNL     1      46.881   1.927   7.577  0.00  0.00    +0.000 C 
ENDBRANCH  12  13
ENDBRANCH  10  12
ENDBRANCH   2   5
ENDBRANCH   1   2
BRANCH   1  17
ATOM     17  N   UNL     1      47.390   7.062  13.583  0.00  0.00    +0.000 N 
ATOM     18  H   UNL     1      46.711   7.760  13.888  0.00  0.00    +0.000 HD
BRANCH  17  22
ATOM     19  C   UNL     1      48.404   4.543  16.836  0.00  0.00    +0.000 A 
ATOM     20  C   UNL     1      47.412   4.186  15.918  0.00  0.00    +0.000 A 
ATOM     21  C   UNL     1      47.109   5.033  14.843  0.00  0.00    +0.000 A 
ATOM     22  C   UNL     1      47.803   6.239  14.641  0.00  0.00    +0.000 A 
ATOM     23  C   UNL     1      48.783   6.572  15.593  0.00  0.00    +0.000 A 
ATOM     24  F   UNL     1      49.494   7.706  15.483  0.00  0.00    +0.000 F 
ATOM     25  C   UNL     1      49.095   5.740  16.667  0.00  0.00    +0.000 A 
BRANCH  19  27
ATOM     26  O   UNL     1      49.616   2.776  17.840  0.00  0.00    +0.000 OA
ATOM     27  C   UNL     1      48.730   3.620  17.950  0.00  0.00    +0.000 C 
ATOM     28  N   UNL     1      47.971   3.746  19.093  0.00  0.00    +0.000 N 
ATOM     29  H   UNL     1      47.042   4.156  19.091  0.00  0.00    +0.000 HD
BRANCH  28  30
ATOM     30  O   UNL     1      48.222   2.779  20.094  0.00  0.00    +0.000 OA
ATOM     31  H   UNL     1      47.321   2.430  20.277  0.00  0.00    +0.000 HD
ENDBRANCH  28  30
ENDBRANCH  19  27
ENDBRANCH  17  22
ENDBRANCH   1  17
TORSDOF 8
ENDMDL
MODEL 6
REMARK VINA RESULT:    -7.952      2.430      4.237
REMARK INTER + INTRA:         -12.711
REMARK INTER:                 -11.312
REMARK INTRA:                  -1.399
REMARK UNBOUND:                -1.272
REMARK  Name = 
REMARK  8 active torsions:
REMARK  status: ('A' for Active; 'I' for Inactive)
REMARK    1  A    between atoms: C_2  and  C_5
REMARK    2  A    between atoms: N_3  and  O_4
REMARK    3  A    between atoms: C_8  and  N_9
REMARK    4  A    between atoms: N_9  and  C_10
REMARK    5  A    between atoms: C_10  and  C_11
REMARK    6  A    between atoms: C_11  and  C_14
REMARK    7  A    between atoms: C_19  and  O_20
REMARK    8  A    between atoms: O_20  and  C_21
REMARK                            x       y       z     vdW  Elec       q    Type
REMARK                         _______ _______ _______ _____ _____    ______ ____
ROOT
ATOM      1  C   UNL     1      43.942   3.221  12.040  0.00  0.00    +0.000 C 
ENDROOT
BRANCH   1   2
ATOM      2  C   UNL     1      43.488   4.603  12.578  0.00  0.00    +0.000 C 
ATOM      3  F   UNL     1      42.533   5.079  11.719  0.00  0.00    +0.000 F 
ATOM      4  F   UNL     1      42.826   4.397  13.759  0.00  0.00    +0.000 F 
BRANCH   2   5
ATOM      5  C   UNL     1      44.638   5.579  12.728  0.00  0.00    +0.000 A 
ATOM      6  C   UNL     1      45.954   5.112  12.828  0.00  0.00    +0.000 A 
ATOM      7  C   UNL     1      47.004   6.019  12.930  0.00  0.00    +0.000 A 
ATOM      8  F   UNL     1      48.257   5.559  13.026  0.00  0.00    +0.000 F 
ATOM      9  C   UNL     1      46.774   7.389  12.928  0.00  0.00    +0.000 A 
ATOM     10  C   UNL     1      45.469   7.867  12.824  0.00  0.00    +0.000 A 
ATOM     11  C   UNL     1      44.400   6.964  12.747  0.00  0.00    +0.000 A 
BRANCH  10  12
ATOM     12  O   UNL     1      45.327   9.234  12.824  0.00  0.00    +0.000 OA
BRANCH  12  13
ATOM     13  C   UNL     1      45.192   9.913  11.554  0.00  0.00    +0.000 C 
ATOM     14  C   UNL     1      45.284  11.458  11.572  0.00  0.00    +0.000 C 
ATOM     15  C   UNL     1      44.063  11.514  10.644  0.00  0.00    +0.000 C 
ATOM     16  C   UNL     1      43.735  10.070  11.053  0.00  0.00    +0.000 C 
ENDBRANCH  12  13
ENDBRANCH  10  12
ENDBRANCH   2   5
ENDBRANCH   1   2
BRANCH   1  17
ATOM     17  N   UNL     1      43.501   2.919  10.660  0.00  0.00    +0.000 N 
ATOM     18  H   UNL     1      42.684   3.459  10.372  0.00  0.00    +0.000 HD
BRANCH  17  22
ATOM     19  C   UNL     1      46.479   2.461   7.681  0.00  0.00    +0.000 A 
ATOM     20  C   UNL     1      45.779   1.362   8.188  0.00  0.00    +0.000 A 
ATOM     21  C   UNL     1      44.789   1.547   9.163  0.00  0.00    +0.000 A 
ATOM     22  C   UNL     1      44.452   2.827   9.634  0.00  0.00    +0.000 A 
ATOM     23  C   UNL     1      45.188   3.907   9.112  0.00  0.00    +0.000 A 
ATOM     24  F   UNL     1      44.938   5.166   9.506  0.00  0.00    +0.000 F 
ATOM     25  C   UNL     1      46.176   3.739   8.142  0.00  0.00    +0.000 A 
BRANCH  19  27
ATOM     26  O   UNL     1      48.505   1.571   6.843  0.00  0.00    +0.000 OA
ATOM     27  C   UNL     1      47.503   2.248   6.629  0.00  0.00    +0.000 C 
ATOM     28  N   UNL     1      47.278   2.872   5.421  0.00  0.00    +0.000 N 
ATOM     29  H   UNL     1      46.686   3.691   5.330  0.00  0.00    +0.000 HD
BRANCH  28  30
ATOM     30  O   UNL     1      48.324   2.751   4.476  0.00  0.00    +0.000 OA
ATOM     31  H   UNL     1      48.226   1.821   4.174  0.00  0.00    +0.000 HD
ENDBRANCH  28  30
ENDBRANCH  19  27
ENDBRANCH  17  22
ENDBRANCH   1  17
TORSDOF 8
ENDMDL
MODEL 7
REMARK VINA RESULT:    -7.843      2.496      3.387
REMARK INTER + INTRA:         -12.554
REMARK INTER:                 -12.121
REMARK INTRA:                  -0.433
REMARK UNBOUND:                -1.272
REMARK  Name = 
REMARK  8 active torsions:
REMARK  status: ('A' for Active; 'I' for Inactive)
REMARK    1  A    between atoms: C_2  and  C_5
REMARK    2  A    between atoms: N_3  and  O_4
REMARK    3  A    between atoms: C_8  and  N_9
REMARK    4  A    between atoms: N_9  and  C_10
REMARK    5  A    between atoms: C_10  and  C_11
REMARK    6  A    between atoms: C_11  and  C_14
REMARK    7  A    between atoms: C_19  and  O_20
REMARK    8  A    between atoms: O_20  and  C_21
REMARK                            x       y       z     vdW  Elec       q    Type
REMARK                         _______ _______ _______ _____ _____    ______ ____
ROOT
ATOM      1  C   UNL     1      43.690   4.911  11.924  0.00  0.00    +0.000 C 
ENDROOT
BRANCH   1   2
ATOM      2  C   UNL     1      45.098   5.040  12.560  0.00  0.00    +0.000 C 
ATOM      3  F   UNL     1      45.007   4.580  13.847  0.00  0.00    +0.000 F 
ATOM      4  F   UNL     1      45.927   4.151  11.928  0.00  0.00    +0.000 F 
BRANCH   2   5
ATOM      5  C   UNL     1      45.635   6.456  12.512  0.00  0.00    +0.000 A 
ATOM      6  C   UNL     1      44.875   7.482  11.938  0.00  0.00    +0.000 A 
ATOM      7  C   UNL     1      45.363   8.785  11.932  0.00  0.00    +0.000 A 
ATOM      8  F   UNL     1      44.625   9.756  11.380  0.00  0.00    +0.000 F 
ATOM      9  C   UNL     1      46.595   9.094  12.494  0.00  0.00    +0.000 A 
ATOM     10  C   UNL     1      47.359   8.083  13.073  0.00  0.00    +0.000 A 
ATOM     11  C   UNL     1      46.892   6.763  13.062  0.00  0.00    +0.000 A 
BRANCH  10  12
ATOM     12  O   UNL     1      48.563   8.471  13.611  0.00  0.00    +0.000 OA
BRANCH  12  13
ATOM     13  C   UNL     1      49.780   7.966  13.015  0.00  0.00    +0.000 C 
ATOM     14  C   UNL     1      50.904   8.994  12.738  0.00  0.00    +0.000 C 
ATOM     15  C   UNL     1      51.099   8.365  11.352  0.00  0.00    +0.000 C 
ATOM     16  C   UNL     1      49.706   7.732  11.487  0.00  0.00    +0.000 C 
ENDBRANCH  12  13
ENDBRANCH  10  12
ENDBRANCH   2   5
ENDBRANCH   1   2
BRANCH   1  17
ATOM     17  N   UNL     1      43.668   4.991  10.446  0.00  0.00    +0.000 N 
ATOM     18  H   UNL     1      43.683   5.950  10.095  0.00  0.00    +0.000 HD
BRANCH  17  22
ATOM     19  C   UNL     1      46.137   2.580   7.987  0.00  0.00    +0.000 A 
ATOM     20  C   UNL     1      46.195   3.975   7.934  0.00  0.00    +0.000 A 
ATOM     21  C   UNL     1      45.376   4.747   8.771  0.00  0.00    +0.000 A 
ATOM     22  C   UNL     1      44.503   4.149   9.697  0.00  0.00    +0.000 A 
ATOM     23  C   UNL     1      44.461   2.743   9.711  0.00  0.00    +0.000 A 
ATOM     24  F   UNL     1      43.655   2.086  10.560  0.00  0.00    +0.000 F 
ATOM     25  C   UNL     1      45.269   1.963   8.885  0.00  0.00    +0.000 A 
BRANCH  19  27
ATOM     26  O   UNL     1      47.145   0.566   7.259  0.00  0.00    +0.000 OA
ATOM     27  C   UNL     1      47.032   1.781   7.115  0.00  0.00    +0.000 C 
ATOM     28  N   UNL     1      47.743   2.479   6.164  0.00  0.00    +0.000 N 
ATOM     29  H   UNL     1      47.946   3.470   6.249  0.00  0.00    +0.000 HD
BRANCH  28  30
ATOM     30  O   UNL     1      48.676   1.714   5.425  0.00  0.00    +0.000 OA
ATOM     31  H   UNL     1      49.515   1.885   5.908  0.00  0.00    +0.000 HD
ENDBRANCH  28  30
ENDBRANCH  19  27
ENDBRANCH  17  22
ENDBRANCH   1  17
TORSDOF 8
ENDMDL
MODEL 8
REMARK VINA RESULT:    -7.534      3.857      8.311
REMARK INTER + INTRA:         -12.109
REMARK INTER:                 -11.441
REMARK INTRA:                  -0.668
REMARK UNBOUND:                -1.272
REMARK  Name = 
REMARK  8 active torsions:
REMARK  status: ('A' for Active; 'I' for Inactive)
REMARK    1  A    between atoms: C_2  and  C_5
REMARK    2  A    between atoms: N_3  and  O_4
REMARK    3  A    between atoms: C_8  and  N_9
REMARK    4  A    between atoms: N_9  and  C_10
REMARK    5  A    between atoms: C_10  and  C_11
REMARK    6  A    between atoms: C_11  and  C_14
REMARK    7  A    between atoms: C_19  and  O_20
REMARK    8  A    between atoms: O_20  and  C_21
REMARK                            x       y       z     vdW  Elec       q    Type
REMARK                         _______ _______ _______ _____ _____    ______ ____
ROOT
ATOM      1  C   UNL     1      46.512   4.449  14.753  0.00  0.00    +0.000 C 
ENDROOT
BRANCH   1   2
ATOM      2  C   UNL     1      46.635   5.349  13.496  0.00  0.00    +0.000 C 
ATOM      3  F   UNL     1      46.700   6.646  13.931  0.00  0.00    +0.000 F 
ATOM      4  F   UNL     1      47.857   5.109  12.926  0.00  0.00    +0.000 F 
BRANCH   2   5
ATOM      5  C   UNL     1      45.497   5.147  12.517  0.00  0.00    +0.000 A 
ATOM      6  C   UNL     1      44.578   6.176  12.277  0.00  0.00    +0.000 A 
ATOM      7  C   UNL     1      43.558   5.990  11.350  0.00  0.00    +0.000 A 
ATOM      8  F   UNL     1      42.686   6.983  11.131  0.00  0.00    +0.000 F 
ATOM      9  C   UNL     1      43.433   4.800  10.646  0.00  0.00    +0.000 A 
ATOM     10  C   UNL     1      44.344   3.770  10.871  0.00  0.00    +0.000 A 
ATOM     11  C   UNL     1      45.360   3.933  11.821  0.00  0.00    +0.000 A 
BRANCH  10  12
ATOM     12  O   UNL     1      44.156   2.627  10.131  0.00  0.00    +0.000 OA
BRANCH  12  13
ATOM     13  C   UNL     1      44.599   2.616   8.754  0.00  0.00    +0.000 C 
ATOM     14  C   UNL     1      45.858   1.776   8.430  0.00  0.00    +0.000 C 
ATOM     15  C   UNL     1      46.387   2.945   7.587  0.00  0.00    +0.000 C 
ATOM     16  C   UNL     1      45.401   3.867   8.320  0.00  0.00    +0.000 C 
ENDBRANCH  12  13
ENDBRANCH  10  12
ENDBRANCH   2   5
ENDBRANCH   1   2
BRANCH   1  17
ATOM     17  N   UNL     1      47.238   4.945  15.944  0.00  0.00    +0.000 N 
ATOM     18  H   UNL     1      46.618   5.199  16.714  0.00  0.00    +0.000 HD
BRANCH  17  22
ATOM     19  C   UNL     1      50.527   2.709  17.403  0.00  0.00    +0.000 A 
ATOM     20  C   UNL     1      49.470   2.094  16.727  0.00  0.00    +0.000 A 
ATOM     21  C   UNL     1      48.402   2.862  16.243  0.00  0.00    +0.000 A 
ATOM     22  C   UNL     1      48.375   4.259  16.394  0.00  0.00    +0.000 A 
ATOM     23  C   UNL     1      49.449   4.841  17.093  0.00  0.00    +0.000 A 
ATOM     24  F   UNL     1      49.506   6.168  17.288  0.00  0.00    +0.000 F 
ATOM     25  C   UNL     1      50.518   4.090  17.580  0.00  0.00    +0.000 A 
BRANCH  19  27
ATOM     26  O   UNL     1      52.755   2.385  18.134  0.00  0.00    +0.000 OA
ATOM     27  C   UNL     1      51.663   1.883  17.882  0.00  0.00    +0.000 C 
ATOM     28  N   UNL     1      51.429   0.530  18.000  0.00  0.00    +0.000 N 
ATOM     29  H   UNL     1      50.699   0.053  17.481  0.00  0.00    +0.000 HD
BRANCH  28  30
ATOM     30  O   UNL     1      52.558  -0.250  18.344  0.00  0.00    +0.000 OA
ATOM     31  H   UNL     1      52.247  -1.162  18.154  0.00  0.00    +0.000 HD
ENDBRANCH  28  30
ENDBRANCH  19  27
ENDBRANCH  17  22
ENDBRANCH   1  17
TORSDOF 8
ENDMDL
MODEL 9
REMARK VINA RESULT:    -7.269      3.606      8.632
REMARK INTER + INTRA:         -11.728
REMARK INTER:                 -11.142
REMARK INTRA:                  -0.586
REMARK UNBOUND:                -1.272
REMARK  Name = 
REMARK  8 active torsions:
REMARK  status: ('A' for Active; 'I' for Inactive)
REMARK    1  A    between atoms: C_2  and  C_5
REMARK    2  A    between atoms: N_3  and  O_4
REMARK    3  A    between atoms: C_8  and  N_9
REMARK    4  A    between atoms: N_9  and  C_10
REMARK    5  A    between atoms: C_10  and  C_11
REMARK    6  A    between atoms: C_11  and  C_14
REMARK    7  A    between atoms: C_19  and  O_20
REMARK    8  A    between atoms: O_20  and  C_21
REMARK                            x       y       z     vdW  Elec       q    Type
REMARK                         _______ _______ _______ _____ _____    ______ ____
ROOT
ATOM      1  C   UNL     1      47.127   5.500  13.358  0.00  0.00    +0.000 C 
ENDROOT
BRANCH   1   2
ATOM      2  C   UNL     1      45.987   6.114  12.504  0.00  0.00    +0.000 C 
ATOM      3  F   UNL     1      45.036   6.581  13.372  0.00  0.00    +0.000 F 
ATOM      4  F   UNL     1      46.480   7.234  11.889  0.00  0.00    +0.000 F 
BRANCH   2   5
ATOM      5  C   UNL     1      45.400   5.128  11.515  0.00  0.00    +0.000 A 
ATOM      6  C   UNL     1      44.510   4.137  11.946  0.00  0.00    +0.000 A 
ATOM      7  C   UNL     1      43.951   3.260  11.023  0.00  0.00    +0.000 A 
ATOM      8  F   UNL     1      43.101   2.317  11.450  0.00  0.00    +0.000 F 
ATOM      9  C   UNL     1      44.253   3.349   9.671  0.00  0.00    +0.000 A 
ATOM     10  C   UNL     1      45.134   4.333   9.227  0.00  0.00    +0.000 A 
ATOM     11  C   UNL     1      45.725   5.207  10.149  0.00  0.00    +0.000 A 
BRANCH  10  12
ATOM     12  O   UNL     1      45.377   4.359   7.875  0.00  0.00    +0.000 OA
BRANCH  12  13
ATOM     13  C   UNL     1      45.620   3.106   7.193  0.00  0.00    +0.000 C 
ATOM     14  C   UNL     1      46.527   2.080   7.915  0.00  0.00    +0.000 C 
ATOM     15  C   UNL     1      47.263   1.841   6.589  0.00  0.00    +0.000 C 
ATOM     16  C   UNL     1      46.691   3.172   6.078  0.00  0.00    +0.000 C 
ENDBRANCH  12  13
ENDBRANCH  10  12
ENDBRANCH   2   5
ENDBRANCH   1   2
BRANCH   1  17
ATOM     17  N   UNL     1      46.735   5.123  14.735  0.00  0.00    +0.000 N 
ATOM     18  H   UNL     1      46.096   4.328  14.767  0.00  0.00    +0.000 HD
BRANCH  17  22
ATOM     19  C   UNL     1      49.858   4.962  17.594  0.00  0.00    +0.000 A 
ATOM     20  C   UNL     1      49.689   6.071  16.760  0.00  0.00    +0.000 A 
ATOM     21  C   UNL     1      48.637   6.101  15.833  0.00  0.00    +0.000 A 
ATOM     22  C   UNL     1      47.715   5.046  15.735  0.00  0.00    +0.000 A 
ATOM     23  C   UNL     1      47.925   3.941  16.580  0.00  0.00    +0.000 A 
ATOM     24  F   UNL     1      47.096   2.885  16.553  0.00  0.00    +0.000 F 
ATOM     25  C   UNL     1      48.966   3.896  17.506  0.00  0.00    +0.000 A 
BRANCH  19  27
ATOM     26  O   UNL     1      52.063   5.427  18.317  0.00  0.00    +0.000 OA
ATOM     27  C   UNL     1      50.959   4.961  18.588  0.00  0.00    +0.000 C 
ATOM     28  N   UNL     1      50.680   4.387  19.809  0.00  0.00    +0.000 N 
ATOM     29  H   UNL     1      49.943   3.702  19.937  0.00  0.00    +0.000 HD
BRANCH  28  30
ATOM     30  O   UNL     1      51.779   4.292  20.695  0.00  0.00    +0.000 OA
ATOM     31  H   UNL     1      51.948   3.324  20.714  0.00  0.00    +0.000 HD
ENDBRANCH  28  30
ENDBRANCH  19  27
ENDBRANCH  17  22
ENDBRANCH   1  17
TORSDOF 8
ENDMDL
