MODEL 1
REMARK VINA RESULT:    -9.293      0.000      0.000
REMARK INTER + INTRA:         -12.709
REMARK INTER:                 -11.466
REMARK INTRA:                  -1.243
REMARK UNBOUND:                -1.243
REMARK  Name = 
REMARK  4 active torsions:
REMARK  status: ('A' for Active; 'I' for Inactive)
REMARK    1  A    between atoms: C_2  and  C_4
REMARK    2  A    between atoms: N_8  and  C_9
REMARK    3  A    between atoms: C_9  and  C_10
REMARK    4  A    between atoms: C_14  and  C_15
REMARK                            x       y       z     vdW  Elec       q    Type
REMARK                         _______ _______ _______ _____ _____    ______ ____
ROOT
ATOM      1  C   UNL     1      43.834   4.886  11.363  0.00  0.00    +0.000 C 
ATOM      2  C   UNL     1      42.493   5.155  12.031  0.00  0.00    +0.000 C 
ATOM      3  C   UNL     1      43.030   6.132  11.041  0.00  0.00    +0.000 C 
ENDROOT
BRANCH   1   8
ATOM      4  C   UNL     1      46.585   2.757   7.497  0.00  0.00    +0.000 A 
ATOM      5  C   UNL     1      46.236   4.092   7.676  0.00  0.00    +0.000 A 
ATOM      6  C   UNL     1      45.350   4.434   8.698  0.00  0.00    +0.000 A 
ATOM      7  C   UNL     1      44.823   3.442   9.517  0.00  0.00    +0.000 A 
ATOM      8  N   UNL     1      43.857   3.693  10.497  0.00  0.00    +0.000 N 
ATOM      9  N   UNL     1      45.148   2.142   9.346  0.00  0.00    +0.000 NA
ATOM     10  C   UNL     1      46.013   1.825   8.348  0.00  0.00    +0.000 A 
ATOM     11  H   UNL     1      43.731   2.803  10.979  0.00  0.00    +0.000 HD
BRANCH   4  13
ATOM     12  N   UNL     1      47.442   2.960   5.232  0.00  0.00    +0.000 N 
ATOM     13  C   UNL     1      47.497   2.299   6.428  0.00  0.00    +0.000 C 
ATOM     14  O   UNL     1      48.276   1.376   6.606  0.00  0.00    +0.000 OA
ATOM     15  H   UNL     1      48.134   2.696   4.543  0.00  0.00    +0.000 HD
ATOM     16  H   UNL     1      47.006   3.866   5.132  0.00  0.00    +0.000 HD
ENDBRANCH   4  13
ENDBRANCH   1   8
BRANCH   1  17
ATOM     17  C   UNL     1      45.114   5.063  12.175  0.00  0.00    +0.000 A 
ATOM     18  C   UNL     1      45.617   4.058  13.011  0.00  0.00    +0.000 A 
ATOM     19  C   UNL     1      46.829   4.218  13.684  0.00  0.00    +0.000 A 
ATOM     20  C   UNL     1      47.579   5.382  13.507  0.00  0.00    +0.000 A 
ATOM     21  C   UNL     1      47.137   6.408  12.656  0.00  0.00    +0.000 A 
ATOM     22  C   UNL     1      45.885   6.234  12.036  0.00  0.00    +0.000 A 
BRANCH  21  23
ATOM     23  C   UNL     1      47.988   7.573  12.319  0.00  0.00    +0.000 A 
ATOM     24  C   UNL     1      49.342   7.398  11.979  0.00  0.00    +0.000 A 
ATOM     25  C   UNL     1      50.131   8.465  11.543  0.00  0.00    +0.000 A 
ATOM     26  C   UNL     1      49.581   9.737  11.433  0.00  0.00    +0.000 A 
ATOM     27  C   UNL     1      48.251   9.945  11.783  0.00  0.00    +0.000 A 
ATOM     28  C   UNL     1      47.467   8.876  12.232  0.00  0.00    +0.000 A 
ENDBRANCH  21  23
ENDBRANCH   1  17
TORSDOF 4
ENDMDL
MODEL 2
REMARK VINA RESULT:    -8.773      1.540      3.357
REMARK INTER + INTRA:         -12.068
REMARK INTER:                 -11.375
REMARK INTRA:                  -0.693
REMARK UNBOUND:                -1.243
REMARK  Name = 
REMARK  4 active torsions:
REMARK  status: ('A' for Active; 'I' for Inactive)
REMARK    1  A    between atoms: C_2  and  C_4
REMARK    2  A    between atoms: N_8  and  C_9
REMARK    3  A    between atoms: C_9  and  C_10
REMARK    4  A    between atoms: C_14  and  C_15
REMARK                            x       y       z     vdW  Elec       q    Type
REMARK                         _______ _______ _______ _____ _____    ______ ____
ROOT
ATOM      1  C   UNL     1      43.887   4.881  11.505  0.00  0.00    +0.000 C 
ATOM      2  C   UNL     1      42.732   4.957  12.495  0.00  0.00    +0.000 C 
ATOM      3  C   UNL     1      42.796   5.927  11.365  0.00  0.00    +0.000 C 
ENDROOT
BRANCH   1   8
ATOM      4  C   UNL     1      46.441   2.734   7.517  0.00  0.00    +0.000 A 
ATOM      5  C   UNL     1      46.003   4.048   7.656  0.00  0.00    +0.000 A 
ATOM      6  C   UNL     1      45.189   4.384   8.738  0.00  0.00    +0.000 A 
ATOM      7  C   UNL     1      44.819   3.406   9.654  0.00  0.00    +0.000 A 
ATOM      8  N   UNL     1      43.928   3.643  10.706  0.00  0.00    +0.000 N 
ATOM      9  N   UNL     1      45.230   2.126   9.523  0.00  0.00    +0.000 NA
ATOM     10  C   UNL     1      46.025   1.815   8.467  0.00  0.00    +0.000 A 
ATOM     11  H   UNL     1      43.917   2.777  11.245  0.00  0.00    +0.000 HD
BRANCH   4  13
ATOM     12  N   UNL     1      47.179   2.965   5.213  0.00  0.00    +0.000 N 
ATOM     13  C   UNL     1      47.287   2.282   6.393  0.00  0.00    +0.000 C 
ATOM     14  O   UNL     1      48.059   1.343   6.513  0.00  0.00    +0.000 OA
ATOM     15  H   UNL     1      47.829   2.702   4.484  0.00  0.00    +0.000 HD
ATOM     16  H   UNL     1      46.753   3.879   5.152  0.00  0.00    +0.000 HD
ENDBRANCH   4  13
ENDBRANCH   1   8
BRANCH   1  17
ATOM     17  C   UNL     1      45.268   5.359  11.944  0.00  0.00    +0.000 A 
ATOM     18  C   UNL     1      45.964   6.368  11.264  0.00  0.00    +0.000 A 
ATOM     19  C   UNL     1      47.192   6.838  11.730  0.00  0.00    +0.000 A 
ATOM     20  C   UNL     1      47.735   6.326  12.910  0.00  0.00    +0.000 A 
ATOM     21  C   UNL     1      47.065   5.337  13.648  0.00  0.00    +0.000 A 
ATOM     22  C   UNL     1      45.854   4.850  13.119  0.00  0.00    +0.000 A 
BRANCH  21  23
ATOM     23  C   UNL     1      47.531   4.900  14.984  0.00  0.00    +0.000 A 
ATOM     24  C   UNL     1      48.278   5.768  15.803  0.00  0.00    +0.000 A 
ATOM     25  C   UNL     1      48.626   5.421  17.111  0.00  0.00    +0.000 A 
ATOM     26  C   UNL     1      48.231   4.196  17.634  0.00  0.00    +0.000 A 
ATOM     27  C   UNL     1      47.510   3.308  16.842  0.00  0.00    +0.000 A 
ATOM     28  C   UNL     1      47.174   3.653  15.528  0.00  0.00    +0.000 A 
ENDBRANCH  21  23
ENDBRANCH   1  17
TORSDOF 4
ENDMDL
MODEL 3
REMARK VINA RESULT:    -7.023      3.424      6.896
REMARK INTER + INTRA:          -9.908
REMARK INTER:                  -8.832
REMARK INTRA:                  -1.076
REMARK UNBOUND:                -1.243
REMARK  Name = 
REMARK  4 active torsions:
REMARK  status: ('A' for Active; 'I' for Inactive)
REMARK    1  A    between atoms: C_2  and  C_4
REMARK    2  A    between atoms: N_8  and  C_9
REMARK    3  A    between atoms: C_9  and  C_10
REMARK    4  A    between atoms: C_14  and  C_15
REMARK                            x       y       z     vdW  Elec       q    Type
REMARK                         _______ _______ _______ _____ _____    ______ ____
ROOT
ATOM      1  C   UNL     1      46.148   5.230  13.328  0.00  0.00    +0.000 C 
ATOM      2  C   UNL     1      46.139   4.322  14.550  0.00  0.00    +0.000 C 
ATOM      3  C   UNL     1      47.293   4.275  13.608  0.00  0.00    +0.000 C 
ENDROOT
BRANCH   1   8
ATOM      4  C   UNL     1      48.297   9.645  11.616  0.00  0.00    +0.000 A 
ATOM      5  C   UNL     1      48.876   8.384  11.715  0.00  0.00    +0.000 A 
ATOM      6  C   UNL     1      48.177   7.361  12.356  0.00  0.00    +0.000 A 
ATOM      7  C   UNL     1      46.921   7.614  12.895  0.00  0.00    +0.000 A 
ATOM      8  N   UNL     1      46.203   6.671  13.636  0.00  0.00    +0.000 N 
ATOM      9  N   UNL     1      46.354   8.838  12.813  0.00  0.00    +0.000 NA
ATOM     10  C   UNL     1      47.045   9.823  12.184  0.00  0.00    +0.000 A 
ATOM     11  H   UNL     1      45.302   7.110  13.823  0.00  0.00    +0.000 HD
BRANCH   4  13
ATOM     12  N   UNL     1      50.284  11.008  11.295  0.00  0.00    +0.000 N 
ATOM     13  C   UNL     1      48.971  10.793  10.975  0.00  0.00    +0.000 C 
ATOM     14  O   UNL     1      48.387  11.516  10.183  0.00  0.00    +0.000 OA
ATOM     15  H   UNL     1      50.755  11.740  10.780  0.00  0.00    +0.000 HD
ATOM     16  H   UNL     1      50.858  10.303  11.736  0.00  0.00    +0.000 HD
ENDBRANCH   4  13
ENDBRANCH   1   8
BRANCH   1  17
ATOM     17  C   UNL     1      45.227   4.901  12.156  0.00  0.00    +0.000 A 
ATOM     18  C   UNL     1      43.939   5.438  12.041  0.00  0.00    +0.000 A 
ATOM     19  C   UNL     1      43.147   5.180  10.921  0.00  0.00    +0.000 A 
ATOM     20  C   UNL     1      43.646   4.401   9.876  0.00  0.00    +0.000 A 
ATOM     21  C   UNL     1      44.942   3.865   9.925  0.00  0.00    +0.000 A 
ATOM     22  C   UNL     1      45.692   4.101  11.093  0.00  0.00    +0.000 A 
BRANCH  21  23
ATOM     23  C   UNL     1      45.556   3.181   8.763  0.00  0.00    +0.000 A 
ATOM     24  C   UNL     1      46.031   3.920   7.665  0.00  0.00    +0.000 A 
ATOM     25  C   UNL     1      46.720   3.308   6.613  0.00  0.00    +0.000 A 
ATOM     26  C   UNL     1      46.951   1.938   6.638  0.00  0.00    +0.000 A 
ATOM     27  C   UNL     1      46.474   1.177   7.701  0.00  0.00    +0.000 A 
ATOM     28  C   UNL     1      45.774   1.791   8.746  0.00  0.00    +0.000 A 
ENDBRANCH  21  23
ENDBRANCH   1  17
TORSDOF 4
ENDMDL
MODEL 4
REMARK VINA RESULT:    -6.820      4.662      8.229
REMARK INTER + INTRA:          -9.658
REMARK INTER:                  -8.559
REMARK INTRA:                  -1.100
REMARK UNBOUND:                -1.243
REMARK  Name = 
REMARK  4 active torsions:
REMARK  status: ('A' for Active; 'I' for Inactive)
REMARK    1  A    between atoms: C_2  and  C_4
REMARK    2  A    between atoms: N_8  and  C_9
REMARK    3  A    between atoms: C_9  and  C_10
REMARK    4  A    between atoms: C_14  and  C_15
REMARK                            x       y       z     vdW  Elec       q    Type
REMARK                         _______ _______ _______ _____ _____    ______ ____
ROOT
ATOM      1  C   UNL     1      49.034   7.897  12.587  0.00  0.00    +0.000 C 
ATOM      2  C   UNL     1      49.996   8.083  11.422  0.00  0.00    +0.000 C 
ATOM      3  C   UNL     1      49.668   9.245  12.297  0.00  0.00    +0.000 C 
ENDROOT
BRANCH   1   8
ATOM      4  C   UNL     1      48.396   6.878  17.647  0.00  0.00    +0.000 A 
ATOM      5  C   UNL     1      48.471   8.117  17.018  0.00  0.00    +0.000 A 
ATOM      6  C   UNL     1      48.810   8.175  15.666  0.00  0.00    +0.000 A 
ATOM      7  C   UNL     1      49.077   7.003  14.968  0.00  0.00    +0.000 A 
ATOM      8  N   UNL     1      49.517   6.986  13.641  0.00  0.00    +0.000 N 
ATOM      9  N   UNL     1      49.017   5.796  15.572  0.00  0.00    +0.000 NA
ATOM     10  C   UNL     1      48.683   5.754  16.888  0.00  0.00    +0.000 A 
ATOM     11  H   UNL     1      49.547   6.000  13.383  0.00  0.00    +0.000 HD
BRANCH   4  13
ATOM     12  N   UNL     1      47.169   5.743  19.411  0.00  0.00    +0.000 N 
ATOM     13  C   UNL     1      48.068   6.720  19.079  0.00  0.00    +0.000 C 
ATOM     14  O   UNL     1      48.584   7.423  19.934  0.00  0.00    +0.000 OA
ATOM     15  H   UNL     1      47.025   5.588  20.400  0.00  0.00    +0.000 HD
ATOM     16  H   UNL     1      46.922   4.995  18.779  0.00  0.00    +0.000 HD
ENDBRANCH   4  13
ENDBRANCH   1   8
BRANCH   1  17
ATOM     17  C   UNL     1      47.543   7.743  12.298  0.00  0.00    +0.000 A 
ATOM     18  C   UNL     1      46.621   8.770  12.542  0.00  0.00    +0.000 A 
ATOM     19  C   UNL     1      45.276   8.630  12.198  0.00  0.00    +0.000 A 
ATOM     20  C   UNL     1      44.833   7.464  11.571  0.00  0.00    +0.000 A 
ATOM     21  C   UNL     1      45.720   6.417  11.274  0.00  0.00    +0.000 A 
ATOM     22  C   UNL     1      47.058   6.572  11.684  0.00  0.00    +0.000 A 
BRANCH  21  23
ATOM     23  C   UNL     1      45.313   5.247  10.462  0.00  0.00    +0.000 A 
ATOM     24  C   UNL     1      45.715   5.132   9.118  0.00  0.00    +0.000 A 
ATOM     25  C   UNL     1      45.445   3.984   8.369  0.00  0.00    +0.000 A 
ATOM     26  C   UNL     1      44.765   2.919   8.949  0.00  0.00    +0.000 A 
ATOM     27  C   UNL     1      44.336   3.013  10.269  0.00  0.00    +0.000 A 
ATOM     28  C   UNL     1      44.597   4.169  11.013  0.00  0.00    +0.000 A 
ENDBRANCH  21  23
ENDBRANCH   1  17
TORSDOF 4
ENDMDL
MODEL 5
REMARK VINA RESULT:    -6.678      4.043      7.506
REMARK INTER + INTRA:          -9.484
REMARK INTER:                  -9.266
REMARK INTRA:                  -0.217
REMARK UNBOUND:                -1.243
REMARK  Name = 
REMARK  4 active torsions:
REMARK  status: ('A' for Active; 'I' for Inactive)
REMARK    1  A    between atoms: C_2  and  C_4
REMARK    2  A    between atoms: N_8  and  C_9
REMARK    3  A    between atoms: C_9  and  C_10
REMARK    4  A    between atoms: C_14  and  C_15
REMARK                            x       y       z     vdW  Elec       q    Type
REMARK                         _______ _______ _______ _____ _____    ______ ____
ROOT
ATOM      1  C   UNL     1      48.431   7.757  12.823  0.00  0.00    +0.000 C 
ATOM      2  C   UNL     1      49.611   7.115  12.108  0.00  0.00    +0.000 C 
ATOM      3  C   UNL     1      49.397   8.586  11.998  0.00  0.00    +0.000 C 
ENDROOT
BRANCH   1   8
ATOM      4  C   UNL     1      47.976   4.312  16.692  0.00  0.00    +0.000 A 
ATOM      5  C   UNL     1      47.211   4.417  15.534  0.00  0.00    +0.000 A 
ATOM      6  C   UNL     1      47.391   5.518  14.696  0.00  0.00    +0.000 A 
ATOM      7  C   UNL     1      48.321   6.496  15.030  0.00  0.00    +0.000 A 
ATOM      8  N   UNL     1      48.489   7.674  14.294  0.00  0.00    +0.000 N 
ATOM      9  N   UNL     1      49.061   6.408  16.156  0.00  0.00    +0.000 NA
ATOM     10  C   UNL     1      48.877   5.330  16.961  0.00  0.00    +0.000 A 
ATOM     11  H   UNL     1      49.283   8.145  14.726  0.00  0.00    +0.000 HD
BRANCH   4  13
ATOM     12  N   UNL     1      48.911   2.921  18.452  0.00  0.00    +0.000 N 
ATOM     13  C   UNL     1      47.838   3.195  17.649  0.00  0.00    +0.000 C 
ATOM     14  O   UNL     1      46.806   2.547  17.731  0.00  0.00    +0.000 OA
ATOM     15  H   UNL     1      48.769   2.216  19.163  0.00  0.00    +0.000 HD
ATOM     16  H   UNL     1      49.668   3.577  18.589  0.00  0.00    +0.000 HD
ENDBRANCH   4  13
ENDBRANCH   1   8
BRANCH   1  17
ATOM     17  C   UNL     1      47.026   7.549  12.265  0.00  0.00    +0.000 A 
ATOM     18  C   UNL     1      46.050   8.554  12.295  0.00  0.00    +0.000 A 
ATOM     19  C   UNL     1      44.798   8.363  11.710  0.00  0.00    +0.000 A 
ATOM     20  C   UNL     1      44.509   7.165  11.052  0.00  0.00    +0.000 A 
ATOM     21  C   UNL     1      45.462   6.138  10.963  0.00  0.00    +0.000 A 
ATOM     22  C   UNL     1      46.694   6.346  11.611  0.00  0.00    +0.000 A 
BRANCH  21  23
ATOM     23  C   UNL     1      45.244   4.933  10.130  0.00  0.00    +0.000 A 
ATOM     24  C   UNL     1      45.739   4.871   8.815  0.00  0.00    +0.000 A 
ATOM     25  C   UNL     1      45.650   3.703   8.052  0.00  0.00    +0.000 A 
ATOM     26  C   UNL     1      45.064   2.564   8.592  0.00  0.00    +0.000 A 
ATOM     27  C   UNL     1      44.546   2.601   9.883  0.00  0.00    +0.000 A 
ATOM     28  C   UNL     1      44.625   3.776  10.638  0.00  0.00    +0.000 A 
ENDBRANCH  21  23
ENDBRANCH   1  17
TORSDOF 4
ENDMDL
MODEL 6
REMARK VINA RESULT:    -6.564      4.199      7.845
REMARK INTER + INTRA:          -9.343
REMARK INTER:                  -9.308
REMARK INTRA:                  -0.035
REMARK UNBOUND:                -1.243
REMARK  Name = 
REMARK  4 active torsions:
REMARK  status: ('A' for Active; 'I' for Inactive)
REMARK    1  A    between atoms: C_2  and  C_4
REMARK    2  A    between atoms: N_8  and  C_9
REMARK    3  A    between atoms: C_9  and  C_10
REMARK    4  A    between atoms: C_14  and  C_15
REMARK                            x       y       z     vdW  Elec       q    Type
REMARK                         _______ _______ _______ _____ _____    ______ ____
ROOT
ATOM      1  C   UNL     1      46.521   5.741  12.790  0.00  0.00    +0.000 C 
ATOM      2  C   UNL     1      47.421   6.913  12.426  0.00  0.00    +0.000 C 
ATOM      3  C   UNL     1      46.291   7.122  13.374  0.00  0.00    +0.000 C 
ENDROOT
BRANCH   1   8
ATOM      4  C   UNL     1      48.137   4.498  17.574  0.00  0.00    +0.000 A 
ATOM      5  C   UNL     1      48.216   5.727  16.929  0.00  0.00    +0.000 A 
ATOM      6  C   UNL     1      47.871   5.812  15.579  0.00  0.00    +0.000 A 
ATOM      7  C   UNL     1      47.464   4.671  14.897  0.00  0.00    +0.000 A 
ATOM      8  N   UNL     1      47.198   4.655  13.524  0.00  0.00    +0.000 N 
ATOM      9  N   UNL     1      47.394   3.470  15.512  0.00  0.00    +0.000 NA
ATOM     10  C   UNL     1      47.730   3.404  16.826  0.00  0.00    +0.000 A 
ATOM     11  H   UNL     1      46.848   3.717  13.332  0.00  0.00    +0.000 HD
BRANCH   4  13
ATOM     12  N   UNL     1      48.314   3.064  19.529  0.00  0.00    +0.000 N 
ATOM     13  C   UNL     1      48.502   4.308  18.994  0.00  0.00    +0.000 C 
ATOM     14  O   UNL     1      48.965   5.221  19.661  0.00  0.00    +0.000 OA
ATOM     15  H   UNL     1      48.654   2.927  20.471  0.00  0.00    +0.000 HD
ATOM     16  H   UNL     1      48.179   2.242  18.957  0.00  0.00    +0.000 HD
ENDBRANCH   4  13
ENDBRANCH   1   8
BRANCH   1  17
ATOM     17  C   UNL     1      45.514   5.234  11.762  0.00  0.00    +0.000 A 
ATOM     18  C   UNL     1      44.185   5.675  11.733  0.00  0.00    +0.000 A 
ATOM     19  C   UNL     1      43.306   5.252  10.735  0.00  0.00    +0.000 A 
ATOM     20  C   UNL     1      43.753   4.399   9.724  0.00  0.00    +0.000 A 
ATOM     21  C   UNL     1      45.084   3.953   9.687  0.00  0.00    +0.000 A 
ATOM     22  C   UNL     1      45.927   4.358  10.738  0.00  0.00    +0.000 A 
BRANCH  21  23
ATOM     23  C   UNL     1      45.626   3.191   8.538  0.00  0.00    +0.000 A 
ATOM     24  C   UNL     1      45.984   3.846   7.346  0.00  0.00    +0.000 A 
ATOM     25  C   UNL     1      46.607   3.168   6.295  0.00  0.00    +0.000 A 
ATOM     26  C   UNL     1      46.891   1.812   6.415  0.00  0.00    +0.000 A 
ATOM     27  C   UNL     1      46.529   1.132   7.574  0.00  0.00    +0.000 A 
ATOM     28  C   UNL     1      45.894   1.812   8.618  0.00  0.00    +0.000 A 
ENDBRANCH  21  23
ENDBRANCH   1  17
TORSDOF 4
ENDMDL
MODEL 7
REMARK VINA RESULT:    -6.436      3.457      5.915
REMARK INTER + INTRA:          -9.185
REMARK INTER:                  -8.661
REMARK INTRA:                  -0.524
REMARK UNBOUND:                -1.243
REMARK  Name = 
REMARK  4 active torsions:
REMARK  status: ('A' for Active; 'I' for Inactive)
REMARK    1  A    between atoms: C_2  and  C_4
REMARK    2  A    between atoms: N_8  and  C_9
REMARK    3  A    between atoms: C_9  and  C_10
REMARK    4  A    between atoms: C_14  and  C_15
REMARK                            x       y       z     vdW  Elec       q    Type
REMARK                         _______ _______ _______ _____ _____    ______ ____
ROOT
ATOM      1  C   UNL     1      47.333   8.354  13.231  0.00  0.00    +0.000 C 
ATOM      2  C   UNL     1      47.532   9.654  12.465  0.00  0.00    +0.000 C 
ATOM      3  C   UNL     1      48.221   8.416  12.003  0.00  0.00    +0.000 C 
ENDROOT
BRANCH   1   8
ATOM      4  C   UNL     1      44.582   4.291  11.508  0.00  0.00    +0.000 A 
ATOM      5  C   UNL     1      45.608   4.975  10.864  0.00  0.00    +0.000 A 
ATOM      6  C   UNL     1      46.109   6.146  11.433  0.00  0.00    +0.000 A 
ATOM      7  C   UNL     1      45.574   6.619  12.626  0.00  0.00    +0.000 A 
ATOM      8  N   UNL     1      45.954   7.833  13.207  0.00  0.00    +0.000 N 
ATOM      9  N   UNL     1      44.571   5.968  13.255  0.00  0.00    +0.000 NA
ATOM     10  C   UNL     1      44.095   4.828  12.690  0.00  0.00    +0.000 A 
ATOM     11  H   UNL     1      45.460   7.868  14.098  0.00  0.00    +0.000 HD
BRANCH   4  13
ATOM     12  N   UNL     1      44.632   2.428   9.948  0.00  0.00    +0.000 N 
ATOM     13  C   UNL     1      43.974   3.057  10.969  0.00  0.00    +0.000 C 
ATOM     14  O   UNL     1      42.933   2.607  11.423  0.00  0.00    +0.000 OA
ATOM     15  H   UNL     1      44.253   1.538   9.653  0.00  0.00    +0.000 HD
ATOM     16  H   UNL     1      45.598   2.621   9.724  0.00  0.00    +0.000 HD
ENDBRANCH   4  13
ENDBRANCH   1   8
BRANCH   1  17
ATOM     17  C   UNL     1      48.016   8.181  14.585  0.00  0.00    +0.000 A 
ATOM     18  C   UNL     1      48.201   9.249  15.473  0.00  0.00    +0.000 A 
ATOM     19  C   UNL     1      48.760   9.049  16.736  0.00  0.00    +0.000 A 
ATOM     20  C   UNL     1      49.117   7.763  17.148  0.00  0.00    +0.000 A 
ATOM     21  C   UNL     1      48.923   6.654  16.310  0.00  0.00    +0.000 A 
ATOM     22  C   UNL     1      48.407   6.901  15.024  0.00  0.00    +0.000 A 
BRANCH  21  23
ATOM     23  C   UNL     1      49.133   5.265  16.782  0.00  0.00    +0.000 A 
ATOM     24  C   UNL     1      48.154   4.278  16.565  0.00  0.00    +0.000 A 
ATOM     25  C   UNL     1      48.379   2.939  16.895  0.00  0.00    +0.000 A 
ATOM     26  C   UNL     1      49.595   2.554  17.448  0.00  0.00    +0.000 A 
ATOM     27  C   UNL     1      50.574   3.511  17.695  0.00  0.00    +0.000 A 
ATOM     28  C   UNL     1      50.340   4.854  17.376  0.00  0.00    +0.000 A 
ENDBRANCH  21  23
ENDBRANCH   1  17
TORSDOF 4
ENDMDL
MODEL 8
REMARK VINA RESULT:    -6.367      1.253      2.189
REMARK INTER + INTRA:          -9.099
REMARK INTER:                  -8.970
REMARK INTRA:                  -0.130
REMARK UNBOUND:                -1.243
REMARK  Name = 
REMARK  4 active torsions:
REMARK  status: ('A' for Active; 'I' for Inactive)
REMARK    1  A    between atoms: C_2  and  C_4
REMARK    2  A    between atoms: N_8  and  C_9
REMARK    3  A    between atoms: C_9  and  C_10
REMARK    4  A    between atoms: C_14  and  C_15
REMARK                            x       y       z     vdW  Elec       q    Type
REMARK                         _______ _______ _______ _____ _____    ______ ____
ROOT
ATOM      1  C   UNL     1      43.991   4.277  11.847  0.00  0.00    +0.000 C 
ATOM      2  C   UNL     1      44.866   3.629  12.910  0.00  0.00    +0.000 C 
ATOM      3  C   UNL     1      43.427   3.888  13.200  0.00  0.00    +0.000 C 
ENDROOT
BRANCH   1   8
ATOM      4  C   UNL     1      46.382   3.089   7.384  0.00  0.00    +0.000 A 
ATOM      5  C   UNL     1      46.296   4.326   8.015  0.00  0.00    +0.000 A 
ATOM      6  C   UNL     1      45.465   4.467   9.128  0.00  0.00    +0.000 A 
ATOM      7  C   UNL     1      44.731   3.379   9.584  0.00  0.00    +0.000 A 
ATOM      8  N   UNL     1      43.805   3.466  10.629  0.00  0.00    +0.000 N 
ATOM      9  N   UNL     1      44.800   2.176   8.973  0.00  0.00    +0.000 NA
ATOM     10  C   UNL     1      45.614   2.053   7.893  0.00  0.00    +0.000 A 
ATOM     11  H   UNL     1      43.492   2.509  10.788  0.00  0.00    +0.000 HD
BRANCH   4  13
ATOM     12  N   UNL     1      48.531   2.535   6.394  0.00  0.00    +0.000 N 
ATOM     13  C   UNL     1      47.217   2.851   6.188  0.00  0.00    +0.000 C 
ATOM     14  O   UNL     1      46.752   2.922   5.061  0.00  0.00    +0.000 OA
ATOM     15  H   UNL     1      49.065   2.286   5.572  0.00  0.00    +0.000 HD
ATOM     16  H   UNL     1      48.882   2.225   7.290  0.00  0.00    +0.000 HD
ENDBRANCH   4  13
ENDBRANCH   1   8
BRANCH   1  17
ATOM     17  C   UNL     1      44.161   5.766  11.556  0.00  0.00    +0.000 A 
ATOM     18  C   UNL     1      43.081   6.593  11.219  0.00  0.00    +0.000 A 
ATOM     19  C   UNL     1      43.253   7.965  11.032  0.00  0.00    +0.000 A 
ATOM     20  C   UNL     1      44.512   8.543  11.211  0.00  0.00    +0.000 A 
ATOM     21  C   UNL     1      45.621   7.766  11.580  0.00  0.00    +0.000 A 
ATOM     22  C   UNL     1      45.421   6.378  11.708  0.00  0.00    +0.000 A 
BRANCH  21  23
ATOM     23  C   UNL     1      46.923   8.373  11.942  0.00  0.00    +0.000 A 
ATOM     24  C   UNL     1      48.122   7.659  11.765  0.00  0.00    +0.000 A 
ATOM     25  C   UNL     1      49.367   8.253  11.987  0.00  0.00    +0.000 A 
ATOM     26  C   UNL     1      49.442   9.582  12.388  0.00  0.00    +0.000 A 
ATOM     27  C   UNL     1      48.273  10.308  12.592  0.00  0.00    +0.000 A 
ATOM     28  C   UNL     1      47.027   9.706  12.382  0.00  0.00    +0.000 A 
ENDBRANCH  21  23
ENDBRANCH   1  17
TORSDOF 4
ENDMDL
