MODEL 1
REMARK VINA RESULT:    -9.642      0.000      0.000
REMARK INTER + INTRA:         -13.876
REMARK INTER:                 -13.024
REMARK INTRA:                  -0.852
REMARK UNBOUND:                -0.852
REMARK  Name = 
REMARK  6 active torsions:
REMARK  status: ('A' for Active; 'I' for Inactive)
REMARK    1  A    between atoms: C_2  and  C_4
REMARK    2  A    between atoms: N_8  and  C_9
REMARK    3  A    between atoms: C_9  and  C_10
REMARK    4  A    between atoms: C_10  and  C_13
REMARK    5  A    between atoms: C_18  and  O_19
REMARK    6  A    between atoms: O_19  and  C_20
REMARK                            x       y       z     vdW  Elec       q    Type
REMARK                         _______ _______ _______ _____ _____    ______ ____
ROOT
ATOM      1  C   UNL     1      43.435   5.527  12.161  0.00  0.00    +0.000 C 
ATOM      2  F   UNL     1      42.964   6.697  11.632  0.00  0.00    +0.000 F 
ATOM      3  F   UNL     1      42.670   5.299  13.270  0.00  0.00    +0.000 F 
ENDROOT
BRANCH   1   4
ATOM      4  C   UNL     1      44.908   5.621  12.520  0.00  0.00    +0.000 A 
ATOM      5  C   UNL     1      45.709   6.633  11.972  0.00  0.00    +0.000 A 
ATOM      6  C   UNL     1      47.058   6.701  12.298  0.00  0.00    +0.000 A 
ATOM      7  F   UNL     1      47.815   7.667  11.762  0.00  0.00    +0.000 F 
ATOM      8  C   UNL     1      47.634   5.784  13.166  0.00  0.00    +0.000 A 
ATOM      9  C   UNL     1      46.848   4.782  13.734  0.00  0.00    +0.000 A 
ATOM     10  C   UNL     1      45.494   4.691  13.404  0.00  0.00    +0.000 A 
BRANCH   9  11
ATOM     11  O   UNL     1      47.514   3.925  14.572  0.00  0.00    +0.000 OA
BRANCH  11  12
ATOM     12  C   UNL     1      47.377   4.093  16.002  0.00  0.00    +0.000 C 
ATOM     13  C   UNL     1      48.312   5.083  16.711  0.00  0.00    +0.000 C 
ATOM     14  O   UNL     1      48.762   4.068  17.639  0.00  0.00    +0.000 OA
ATOM     15  C   UNL     1      48.103   3.044  16.859  0.00  0.00    +0.000 C 
ENDBRANCH  11  12
ENDBRANCH   9  11
ENDBRANCH   1   4
BRANCH   1  16
ATOM     16  C   UNL     1      43.182   4.394  11.129  0.00  0.00    +0.000 C 
BRANCH  16  21
ATOM     17  C   UNL     1      46.481   2.482   7.711  0.00  0.00    +0.000 A 
ATOM     18  C   UNL     1      45.651   1.822   8.607  0.00  0.00    +0.000 A 
ATOM     19  C   UNL     1      44.721   2.557   9.344  0.00  0.00    +0.000 A 
ATOM     20  C   UNL     1      44.646   3.938   9.183  0.00  0.00    +0.000 A 
ATOM     21  N   UNL     1      43.681   4.718   9.788  0.00  0.00    +0.000 N 
ATOM     22  N   UNL     1      45.478   4.592   8.349  0.00  0.00    +0.000 NA
ATOM     23  C   UNL     1      46.378   3.864   7.637  0.00  0.00    +0.000 A 
ATOM     24  H   UNL     1      43.905   5.699   9.620  0.00  0.00    +0.000 HD
BRANCH  17  26
ATOM     25  N   UNL     1      48.525   2.493   6.406  0.00  0.00    +0.000 N 
ATOM     26  C   UNL     1      47.443   1.777   6.840  0.00  0.00    +0.000 C 
ATOM     27  O   UNL     1      47.305   0.596   6.553  0.00  0.00    +0.000 OA
ATOM     28  H   UNL     1      49.241   1.969   5.917  0.00  0.00    +0.000 HD
ATOM     29  H   UNL     1      48.804   3.365   6.834  0.00  0.00    +0.000 HD
ENDBRANCH  17  26
ENDBRANCH  16  21
ENDBRANCH   1  16
TORSDOF 6
ENDMDL
MODEL 2
REMARK VINA RESULT:    -9.033      2.104      2.983
REMARK INTER + INTRA:         -13.053
REMARK INTER:                 -12.068
REMARK INTRA:                  -0.985
REMARK UNBOUND:                -0.852
REMARK  Name = 
REMARK  6 active torsions:
REMARK  status: ('A' for Active; 'I' for Inactive)
REMARK    1  A    between atoms: C_2  and  C_4
REMARK    2  A    between atoms: N_8  and  C_9
REMARK    3  A    between atoms: C_9  and  C_10
REMARK    4  A    between atoms: C_10  and  C_13
REMARK    5  A    between atoms: C_18  and  O_19
REMARK    6  A    between atoms: O_19  and  C_20
REMARK                            x       y       z     vdW  Elec       q    Type
REMARK                         _______ _______ _______ _____ _____    ______ ____
ROOT
ATOM      1  C   UNL     1      43.423   5.502  12.134  0.00  0.00    +0.000 C 
ATOM      2  F   UNL     1      43.053   6.704  11.598  0.00  0.00    +0.000 F 
ATOM      3  F   UNL     1      42.590   5.311  13.200  0.00  0.00    +0.000 F 
ENDROOT
BRANCH   1   4
ATOM      4  C   UNL     1      44.879   5.499  12.568  0.00  0.00    +0.000 A 
ATOM      5  C   UNL     1      45.411   4.400  13.258  0.00  0.00    +0.000 A 
ATOM      6  C   UNL     1      46.741   4.415  13.663  0.00  0.00    +0.000 A 
ATOM      7  F   UNL     1      47.236   3.363  14.327  0.00  0.00    +0.000 F 
ATOM      8  C   UNL     1      47.561   5.501  13.391  0.00  0.00    +0.000 A 
ATOM      9  C   UNL     1      47.052   6.595  12.691  0.00  0.00    +0.000 A 
ATOM     10  C   UNL     1      45.714   6.601  12.291  0.00  0.00    +0.000 A 
BRANCH   9  11
ATOM     11  O   UNL     1      47.943   7.616  12.480  0.00  0.00    +0.000 OA
BRANCH  11  12
ATOM     12  C   UNL     1      49.360   7.343  12.577  0.00  0.00    +0.000 C 
ATOM     13  C   UNL     1      50.249   8.361  13.305  0.00  0.00    +0.000 C 
ATOM     14  O   UNL     1      51.124   8.489  12.159  0.00  0.00    +0.000 OA
ATOM     15  C   UNL     1      50.190   7.742  11.346  0.00  0.00    +0.000 C 
ENDBRANCH  11  12
ENDBRANCH   9  11
ENDBRANCH   1   4
BRANCH   1  16
ATOM     16  C   UNL     1      43.153   4.397  11.075  0.00  0.00    +0.000 C 
BRANCH  16  21
ATOM     17  C   UNL     1      46.515   2.525   7.698  0.00  0.00    +0.000 A 
ATOM     18  C   UNL     1      45.670   1.854   8.572  0.00  0.00    +0.000 A 
ATOM     19  C   UNL     1      44.726   2.581   9.299  0.00  0.00    +0.000 A 
ATOM     20  C   UNL     1      44.653   3.963   9.152  0.00  0.00    +0.000 A 
ATOM     21  N   UNL     1      43.676   4.736   9.747  0.00  0.00    +0.000 N 
ATOM     22  N   UNL     1      45.499   4.627   8.341  0.00  0.00    +0.000 NA
ATOM     23  C   UNL     1      46.413   3.907   7.637  0.00  0.00    +0.000 A 
ATOM     24  H   UNL     1      43.902   5.719   9.594  0.00  0.00    +0.000 HD
BRANCH  17  26
ATOM     25  N   UNL     1      48.554   2.567   6.385  0.00  0.00    +0.000 N 
ATOM     26  C   UNL     1      47.494   1.830   6.837  0.00  0.00    +0.000 C 
ATOM     27  O   UNL     1      47.387   0.641   6.573  0.00  0.00    +0.000 OA
ATOM     28  H   UNL     1      49.283   2.054   5.904  0.00  0.00    +0.000 HD
ATOM     29  H   UNL     1      48.810   3.455   6.795  0.00  0.00    +0.000 HD
ENDBRANCH  17  26
ENDBRANCH  16  21
ENDBRANCH   1  16
TORSDOF 6
ENDMDL
MODEL 3
REMARK VINA RESULT:    -8.645      1.738      1.991
REMARK INTER + INTRA:         -12.530
REMARK INTER:                 -11.803
REMARK INTRA:                  -0.727
REMARK UNBOUND:                -0.852
REMARK  Name = 
REMARK  6 active torsions:
REMARK  status: ('A' for Active; 'I' for Inactive)
REMARK    1  A    between atoms: C_2  and  C_4
REMARK    2  A    between atoms: N_8  and  C_9
REMARK    3  A    between atoms: C_9  and  C_10
REMARK    4  A    between atoms: C_10  and  C_13
REMARK    5  A    between atoms: C_18  and  O_19
REMARK    6  A    between atoms: O_19  and  C_20
REMARK                            x       y       z     vdW  Elec       q    Type
REMARK                         _______ _______ _______ _____ _____    ______ ____
ROOT
ATOM      1  C   UNL     1      43.012   5.424  12.147  0.00  0.00    +0.000 C 
ATOM      2  F   UNL     1      41.961   6.131  11.632  0.00  0.00    +0.000 F 
ATOM      3  F   UNL     1      42.581   4.973  13.363  0.00  0.00    +0.000 F 
ENDROOT
BRANCH   1   4
ATOM      4  C   UNL     1      44.257   6.283  12.291  0.00  0.00    +0.000 A 
ATOM      5  C   UNL     1      44.302   7.565  11.726  0.00  0.00    +0.000 A 
ATOM      6  C   UNL     1      45.451   8.338  11.853  0.00  0.00    +0.000 A 
ATOM      7  F   UNL     1      45.486   9.557  11.303  0.00  0.00    +0.000 F 
ATOM      8  C   UNL     1      46.562   7.863  12.538  0.00  0.00    +0.000 A 
ATOM      9  C   UNL     1      46.527   6.597  13.121  0.00  0.00    +0.000 A 
ATOM     10  C   UNL     1      45.385   5.804  12.989  0.00  0.00    +0.000 A 
BRANCH   9  11
ATOM     11  O   UNL     1      47.676   6.223  13.769  0.00  0.00    +0.000 OA
BRANCH  11  12
ATOM     12  C   UNL     1      48.480   7.236  14.414  0.00  0.00    +0.000 C 
ATOM     13  C   UNL     1      49.899   7.486  13.884  0.00  0.00    +0.000 C 
ATOM     14  O   UNL     1      50.478   7.273  15.193  0.00  0.00    +0.000 OA
ATOM     15  C   UNL     1      49.211   6.781  15.688  0.00  0.00    +0.000 C 
ENDBRANCH  11  12
ENDBRANCH   9  11
ENDBRANCH   1   4
BRANCH   1  16
ATOM     16  C   UNL     1      43.276   4.207  11.219  0.00  0.00    +0.000 C 
BRANCH  16  21
ATOM     17  C   UNL     1      46.533   2.526   7.644  0.00  0.00    +0.000 A 
ATOM     18  C   UNL     1      45.749   1.807   8.536  0.00  0.00    +0.000 A 
ATOM     19  C   UNL     1      44.819   2.485   9.325  0.00  0.00    +0.000 A 
ATOM     20  C   UNL     1      44.698   3.869   9.219  0.00  0.00    +0.000 A 
ATOM     21  N   UNL     1      43.728   4.595   9.879  0.00  0.00    +0.000 N 
ATOM     22  N   UNL     1      45.486   4.579   8.389  0.00  0.00    +0.000 NA
ATOM     23  C   UNL     1      46.388   3.905   7.625  0.00  0.00    +0.000 A 
ATOM     24  H   UNL     1      43.917   5.588   9.742  0.00  0.00    +0.000 HD
BRANCH  17  26
ATOM     25  N   UNL     1      48.580   2.623   6.345  0.00  0.00    +0.000 N 
ATOM     26  C   UNL     1      47.491   1.884   6.720  0.00  0.00    +0.000 C 
ATOM     27  O   UNL     1      47.344   0.730   6.342  0.00  0.00    +0.000 OA
ATOM     28  H   UNL     1      49.292   2.133   5.818  0.00  0.00    +0.000 HD
ATOM     29  H   UNL     1      48.865   3.456   6.841  0.00  0.00    +0.000 HD
ENDBRANCH  17  26
ENDBRANCH  16  21
ENDBRANCH   1  16
TORSDOF 6
ENDMDL
MODEL 4
REMARK VINA RESULT:    -8.342      2.681      4.039
REMARK INTER + INTRA:         -12.121
REMARK INTER:                 -11.322
REMARK INTRA:                  -0.798
REMARK UNBOUND:                -0.852
REMARK  Name = 
REMARK  6 active torsions:
REMARK  status: ('A' for Active; 'I' for Inactive)
REMARK    1  A    between atoms: C_2  and  C_4
REMARK    2  A    between atoms: N_8  and  C_9
REMARK    3  A    between atoms: C_9  and  C_10
REMARK    4  A    between atoms: C_10  and  C_13
REMARK    5  A    between atoms: C_18  and  O_19
REMARK    6  A    between atoms: O_19  and  C_20
REMARK                            x       y       z     vdW  Elec       q    Type
REMARK                         _______ _______ _______ _____ _____    ______ ____
ROOT
ATOM      1  C   UNL     1      43.371   4.581  12.534  0.00  0.00    +0.000 C 
ATOM      2  F   UNL     1      42.298   5.412  12.702  0.00  0.00    +0.000 F 
ATOM      3  F   UNL     1      43.183   3.565  13.429  0.00  0.00    +0.000 F 
ENDROOT
BRANCH   1   4
ATOM      4  C   UNL     1      44.687   5.296  12.786  0.00  0.00    +0.000 A 
ATOM      5  C   UNL     1      45.657   4.723  13.619  0.00  0.00    +0.000 A 
ATOM      6  C   UNL     1      46.853   5.393  13.853  0.00  0.00    +0.000 A 
ATOM      7  F   UNL     1      47.769   4.839  14.657  0.00  0.00    +0.000 F 
ATOM      8  C   UNL     1      47.109   6.626  13.270  0.00  0.00    +0.000 A 
ATOM      9  C   UNL     1      46.162   7.202  12.424  0.00  0.00    +0.000 A 
ATOM     10  C   UNL     1      44.950   6.549  12.192  0.00  0.00    +0.000 A 
BRANCH   9  11
ATOM     11  O   UNL     1      46.511   8.423  11.905  0.00  0.00    +0.000 OA
BRANCH  11  12
ATOM     12  C   UNL     1      45.758   9.593  12.295  0.00  0.00    +0.000 C 
ATOM     13  C   UNL     1      44.505   9.956  11.486  0.00  0.00    +0.000 C 
ATOM     14  O   UNL     1      44.998  11.294  11.231  0.00  0.00    +0.000 OA
ATOM     15  C   UNL     1      46.296  10.929  11.757  0.00  0.00    +0.000 C 
ENDBRANCH  11  12
ENDBRANCH   9  11
ENDBRANCH   1   4
BRANCH   1  16
ATOM     16  C   UNL     1      43.314   4.003  11.093  0.00  0.00    +0.000 C 
BRANCH  16  21
ATOM     17  C   UNL     1      46.585   2.606   7.411  0.00  0.00    +0.000 A 
ATOM     18  C   UNL     1      46.175   3.875   7.796  0.00  0.00    +0.000 A 
ATOM     19  C   UNL     1      45.381   4.018   8.936  0.00  0.00    +0.000 A 
ATOM     20  C   UNL     1      45.000   2.891   9.660  0.00  0.00    +0.000 A 
ATOM     21  N   UNL     1      44.314   2.957  10.855  0.00  0.00    +0.000 N 
ATOM     22  N   UNL     1      45.355   1.652   9.266  0.00  0.00    +0.000 NA
ATOM     23  C   UNL     1      46.130   1.528   8.155  0.00  0.00    +0.000 A 
ATOM     24  H   UNL     1      44.044   2.012  11.128  0.00  0.00    +0.000 HD
BRANCH  17  26
ATOM     25  N   UNL     1      47.300   3.156   5.159  0.00  0.00    +0.000 N 
ATOM     26  C   UNL     1      47.483   2.368   6.262  0.00  0.00    +0.000 C 
ATOM     27  O   UNL     1      48.378   1.536   6.308  0.00  0.00    +0.000 OA
ATOM     28  H   UNL     1      47.998   3.074   4.430  0.00  0.00    +0.000 HD
ATOM     29  H   UNL     1      46.764   4.012   5.189  0.00  0.00    +0.000 HD
ENDBRANCH  17  26
ENDBRANCH  16  21
ENDBRANCH   1  16
TORSDOF 6
ENDMDL
MODEL 5
REMARK VINA RESULT:    -8.320      2.940      4.444
REMARK INTER + INTRA:         -12.091
REMARK INTER:                 -11.554
REMARK INTRA:                  -0.536
REMARK UNBOUND:                -0.852
REMARK  Name = 
REMARK  6 active torsions:
REMARK  status: ('A' for Active; 'I' for Inactive)
REMARK    1  A    between atoms: C_2  and  C_4
REMARK    2  A    between atoms: N_8  and  C_9
REMARK    3  A    between atoms: C_9  and  C_10
REMARK    4  A    between atoms: C_10  and  C_13
REMARK    5  A    between atoms: C_18  and  O_19
REMARK    6  A    between atoms: O_19  and  C_20
REMARK                            x       y       z     vdW  Elec       q    Type
REMARK                         _______ _______ _______ _____ _____    ______ ____
ROOT
ATOM      1  C   UNL     1      44.582   4.724  12.328  0.00  0.00    +0.000 C 
ATOM      2  F   UNL     1      43.959   4.587  13.537  0.00  0.00    +0.000 F 
ATOM      3  F   UNL     1      45.420   3.648  12.231  0.00  0.00    +0.000 F 
ENDROOT
BRANCH   1   4
ATOM      4  C   UNL     1      45.352   6.029  12.231  0.00  0.00    +0.000 A 
ATOM      5  C   UNL     1      46.741   6.020  12.039  0.00  0.00    +0.000 A 
ATOM      6  C   UNL     1      47.438   7.221  11.966  0.00  0.00    +0.000 A 
ATOM      7  F   UNL     1      48.765   7.200  11.790  0.00  0.00    +0.000 F 
ATOM      8  C   UNL     1      46.781   8.439  12.074  0.00  0.00    +0.000 A 
ATOM      9  C   UNL     1      45.397   8.466  12.247  0.00  0.00    +0.000 A 
ATOM     10  C   UNL     1      44.686   7.268  12.338  0.00  0.00    +0.000 A 
BRANCH   9  11
ATOM     11  O   UNL     1      44.848   9.718  12.347  0.00  0.00    +0.000 OA
BRANCH  11  12
ATOM     12  C   UNL     1      44.175  10.284  11.200  0.00  0.00    +0.000 C 
ATOM     13  C   UNL     1      43.054  11.304  11.443  0.00  0.00    +0.000 C 
ATOM     14  O   UNL     1      42.114  10.531  10.659  0.00  0.00    +0.000 OA
ATOM     15  C   UNL     1      43.044   9.425  10.612  0.00  0.00    +0.000 C 
ENDBRANCH  11  12
ENDBRANCH   9  11
ENDBRANCH   1   4
BRANCH   1  16
ATOM     16  C   UNL     1      43.503   4.626  11.215  0.00  0.00    +0.000 C 
BRANCH  16  21
ATOM     17  C   UNL     1      46.542   2.547   7.656  0.00  0.00    +0.000 A 
ATOM     18  C   UNL     1      45.655   1.934   8.532  0.00  0.00    +0.000 A 
ATOM     19  C   UNL     1      44.817   2.727   9.319  0.00  0.00    +0.000 A 
ATOM     20  C   UNL     1      44.889   4.115   9.226  0.00  0.00    +0.000 A 
ATOM     21  N   UNL     1      44.020   4.962   9.883  0.00  0.00    +0.000 N 
ATOM     22  N   UNL     1      45.778   4.717   8.413  0.00  0.00    +0.000 NA
ATOM     23  C   UNL     1      46.587   3.933   7.652  0.00  0.00    +0.000 A 
ATOM     24  H   UNL     1      44.346   5.920   9.760  0.00  0.00    +0.000 HD
BRANCH  17  26
ATOM     25  N   UNL     1      48.444   2.473   6.153  0.00  0.00    +0.000 N 
ATOM     26  C   UNL     1      47.413   1.788   6.737  0.00  0.00    +0.000 C 
ATOM     27  O   UNL     1      47.251   0.592   6.538  0.00  0.00    +0.000 OA
ATOM     28  H   UNL     1      49.109   1.919   5.627  0.00  0.00    +0.000 HD
ATOM     29  H   UNL     1      48.761   3.369   6.497  0.00  0.00    +0.000 HD
ENDBRANCH  17  26
ENDBRANCH  16  21
ENDBRANCH   1  16
TORSDOF 6
ENDMDL
MODEL 6
REMARK VINA RESULT:    -8.110      3.133      7.861
REMARK INTER + INTRA:         -11.806
REMARK INTER:                 -11.149
REMARK INTRA:                  -0.658
REMARK UNBOUND:                -0.852
REMARK  Name = 
REMARK  6 active torsions:
REMARK  status: ('A' for Active; 'I' for Inactive)
REMARK    1  A    between atoms: C_2  and  C_4
REMARK    2  A    between atoms: N_8  and  C_9
REMARK    3  A    between atoms: C_9  and  C_10
REMARK    4  A    between atoms: C_10  and  C_13
REMARK    5  A    between atoms: C_18  and  O_19
REMARK    6  A    between atoms: O_19  and  C_20
REMARK                            x       y       z     vdW  Elec       q    Type
REMARK                         _______ _______ _______ _____ _____    ______ ____
ROOT
ATOM      1  C   UNL     1      45.777   6.242  11.346  0.00  0.00    +0.000 C 
ATOM      2  F   UNL     1      44.946   7.311  11.148  0.00  0.00    +0.000 F 
ATOM      3  F   UNL     1      47.004   6.654  10.905  0.00  0.00    +0.000 F 
ENDROOT
BRANCH   1   4
ATOM      4  C   UNL     1      45.308   5.012  10.590  0.00  0.00    +0.000 A 
ATOM      5  C   UNL     1      44.497   4.058  11.223  0.00  0.00    +0.000 A 
ATOM      6  C   UNL     1      44.084   2.928  10.525  0.00  0.00    +0.000 A 
ATOM      7  F   UNL     1      43.317   2.021  11.142  0.00  0.00    +0.000 F 
ATOM      8  C   UNL     1      44.456   2.726   9.203  0.00  0.00    +0.000 A 
ATOM      9  C   UNL     1      45.247   3.673   8.554  0.00  0.00    +0.000 A 
ATOM     10  C   UNL     1      45.683   4.806   9.246  0.00  0.00    +0.000 A 
BRANCH   9  11
ATOM     11  O   UNL     1      45.562   3.375   7.253  0.00  0.00    +0.000 OA
BRANCH  11  12
ATOM     12  C   UNL     1      46.946   3.153   6.899  0.00  0.00    +0.000 C 
ATOM     13  C   UNL     1      47.272   2.741   5.457  0.00  0.00    +0.000 C 
ATOM     14  O   UNL     1      47.988   1.565   5.903  0.00  0.00    +0.000 OA
ATOM     15  C   UNL     1      47.498   1.762   7.250  0.00  0.00    +0.000 C 
ENDBRANCH  11  12
ENDBRANCH   9  11
ENDBRANCH   1   4
BRANCH   1  16
ATOM     16  C   UNL     1      45.854   5.967  12.873  0.00  0.00    +0.000 C 
BRANCH  16  21
ATOM     17  C   UNL     1      48.508   4.351  16.943  0.00  0.00    +0.000 A 
ATOM     18  C   UNL     1      47.490   3.719  16.241  0.00  0.00    +0.000 A 
ATOM     19  C   UNL     1      47.014   4.297  15.063  0.00  0.00    +0.000 A 
ATOM     20  C   UNL     1      47.552   5.501  14.616  0.00  0.00    +0.000 A 
ATOM     21  N   UNL     1      47.216   6.076  13.407  0.00  0.00    +0.000 N 
ATOM     22  N   UNL     1      48.508   6.144  15.314  0.00  0.00    +0.000 NA
ATOM     23  C   UNL     1      48.963   5.569  16.460  0.00  0.00    +0.000 A 
ATOM     24  H   UNL     1      47.641   7.002  13.359  0.00  0.00    +0.000 HD
BRANCH  17  26
ATOM     25  N   UNL     1      48.278   3.169  19.048  0.00  0.00    +0.000 N 
ATOM     26  C   UNL     1      49.120   3.777  18.158  0.00  0.00    +0.000 C 
ATOM     27  O   UNL     1      50.329   3.802  18.341  0.00  0.00    +0.000 OA
ATOM     28  H   UNL     1      48.718   2.669  19.811  0.00  0.00    +0.000 HD
ATOM     29  H   UNL     1      47.336   2.899  18.803  0.00  0.00    +0.000 HD
ENDBRANCH  17  26
ENDBRANCH  16  21
ENDBRANCH   1  16
TORSDOF 6
ENDMDL
MODEL 7
REMARK VINA RESULT:    -7.248      3.233      8.051
REMARK INTER + INTRA:         -10.643
REMARK INTER:                  -9.969
REMARK INTRA:                  -0.674
REMARK UNBOUND:                -0.852
REMARK  Name = 
REMARK  6 active torsions:
REMARK  status: ('A' for Active; 'I' for Inactive)
REMARK    1  A    between atoms: C_2  and  C_4
REMARK    2  A    between atoms: N_8  and  C_9
REMARK    3  A    between atoms: C_9  and  C_10
REMARK    4  A    between atoms: C_10  and  C_13
REMARK    5  A    between atoms: C_18  and  O_19
REMARK    6  A    between atoms: O_19  and  C_20
REMARK                            x       y       z     vdW  Elec       q    Type
REMARK                         _______ _______ _______ _____ _____    ______ ____
ROOT
ATOM      1  C   UNL     1      46.650   6.766  12.339  0.00  0.00    +0.000 C 
ATOM      2  F   UNL     1      46.198   7.709  13.220  0.00  0.00    +0.000 F 
ATOM      3  F   UNL     1      47.441   7.447  11.457  0.00  0.00    +0.000 F 
ENDROOT
BRANCH   1   4
ATOM      4  C   UNL     1      45.508   6.065  11.624  0.00  0.00    +0.000 A 
ATOM      5  C   UNL     1      44.208   6.113  12.146  0.00  0.00    +0.000 A 
ATOM      6  C   UNL     1      43.173   5.457  11.490  0.00  0.00    +0.000 A 
ATOM      7  F   UNL     1      41.937   5.503  12.002  0.00  0.00    +0.000 F 
ATOM      8  C   UNL     1      43.401   4.754  10.315  0.00  0.00    +0.000 A 
ATOM      9  C   UNL     1      44.685   4.711   9.772  0.00  0.00    +0.000 A 
ATOM     10  C   UNL     1      45.738   5.352  10.428  0.00  0.00    +0.000 A 
BRANCH   9  11
ATOM     11  O   UNL     1      44.803   3.986   8.614  0.00  0.00    +0.000 OA
BRANCH  11  12
ATOM     12  C   UNL     1      46.084   3.407   8.276  0.00  0.00    +0.000 C 
ATOM     13  C   UNL     1      46.457   3.282   6.792  0.00  0.00    +0.000 C 
ATOM     14  O   UNL     1      46.705   1.862   6.923  0.00  0.00    +0.000 OA
ATOM     15  C   UNL     1      46.123   1.870   8.248  0.00  0.00    +0.000 C 
ENDBRANCH  11  12
ENDBRANCH   9  11
ENDBRANCH   1   4
BRANCH   1  16
ATOM     16  C   UNL     1      47.525   5.752  13.125  0.00  0.00    +0.000 C 
BRANCH  16  21
ATOM     17  C   UNL     1      48.342   4.477  18.016  0.00  0.00    +0.000 A 
ATOM     18  C   UNL     1      48.796   5.576  17.300  0.00  0.00    +0.000 A 
ATOM     19  C   UNL     1      48.317   5.791  16.006  0.00  0.00    +0.000 A 
ATOM     20  C   UNL     1      47.406   4.898  15.448  0.00  0.00    +0.000 A 
ATOM     21  N   UNL     1      46.802   5.101  14.224  0.00  0.00    +0.000 N 
ATOM     22  N   UNL     1      46.996   3.804  16.119  0.00  0.00    +0.000 NA
ATOM     23  C   UNL     1      47.470   3.608  17.378  0.00  0.00    +0.000 A 
ATOM     24  H   UNL     1      46.278   4.262  13.977  0.00  0.00    +0.000 HD
BRANCH  17  26
ATOM     25  N   UNL     1      48.310   3.036  19.968  0.00  0.00    +0.000 N 
ATOM     26  C   UNL     1      48.740   4.211  19.414  0.00  0.00    +0.000 C 
ATOM     27  O   UNL     1      49.456   4.983  20.036  0.00  0.00    +0.000 OA
ATOM     28  H   UNL     1      48.691   2.804  20.877  0.00  0.00    +0.000 HD
ATOM     29  H   UNL     1      47.956   2.272  19.408  0.00  0.00    +0.000 HD
ENDBRANCH  17  26
ENDBRANCH  16  21
ENDBRANCH   1  16
TORSDOF 6
ENDMDL
MODEL 8
REMARK VINA RESULT:    -6.910      3.637      8.118
REMARK INTER + INTRA:         -10.186
REMARK INTER:                  -9.456
REMARK INTRA:                  -0.730
REMARK UNBOUND:                -0.852
REMARK  Name = 
REMARK  6 active torsions:
REMARK  status: ('A' for Active; 'I' for Inactive)
REMARK    1  A    between atoms: C_2  and  C_4
REMARK    2  A    between atoms: N_8  and  C_9
REMARK    3  A    between atoms: C_9  and  C_10
REMARK    4  A    between atoms: C_10  and  C_13
REMARK    5  A    between atoms: C_18  and  O_19
REMARK    6  A    between atoms: O_19  and  C_20
REMARK                            x       y       z     vdW  Elec       q    Type
REMARK                         _______ _______ _______ _____ _____    ______ ____
ROOT
ATOM      1  C   UNL     1      45.365   6.503  11.632  0.00  0.00    +0.000 C 
ATOM      2  F   UNL     1      44.844   6.601  12.893  0.00  0.00    +0.000 F 
ATOM      3  F   UNL     1      44.889   7.594  10.961  0.00  0.00    +0.000 F 
ENDROOT
BRANCH   1   4
ATOM      4  C   UNL     1      44.951   5.214  10.946  0.00  0.00    +0.000 A 
ATOM      5  C   UNL     1      44.176   4.265  11.628  0.00  0.00    +0.000 A 
ATOM      6  C   UNL     1      43.814   3.082  10.995  0.00  0.00    +0.000 A 
ATOM      7  F   UNL     1      43.080   2.180  11.658  0.00  0.00    +0.000 F 
ATOM      8  C   UNL     1      44.202   2.820   9.688  0.00  0.00    +0.000 A 
ATOM      9  C   UNL     1      44.958   3.761   8.989  0.00  0.00    +0.000 A 
ATOM     10  C   UNL     1      45.343   4.947   9.617  0.00  0.00    +0.000 A 
BRANCH   9  11
ATOM     11  O   UNL     1      45.293   3.403   7.708  0.00  0.00    +0.000 OA
BRANCH  11  12
ATOM     12  C   UNL     1      46.641   2.956   7.434  0.00  0.00    +0.000 C 
ATOM     13  C   UNL     1      47.044   2.714   5.973  0.00  0.00    +0.000 C 
ATOM     14  O   UNL     1      47.467   1.359   6.264  0.00  0.00    +0.000 OA
ATOM     15  C   UNL     1      46.873   1.443   7.580  0.00  0.00    +0.000 C 
ENDBRANCH  11  12
ENDBRANCH   9  11
ENDBRANCH   1   4
BRANCH   1  16
ATOM     16  C   UNL     1      46.911   6.609  11.740  0.00  0.00    +0.000 C 
BRANCH  16  21
ATOM     17  C   UNL     1      49.239   8.375  15.944  0.00  0.00    +0.000 A 
ATOM     18  C   UNL     1      48.274   8.976  15.148  0.00  0.00    +0.000 A 
ATOM     19  C   UNL     1      47.674   8.235  14.128  0.00  0.00    +0.000 A 
ATOM     20  C   UNL     1      48.058   6.914  13.914  0.00  0.00    +0.000 A 
ATOM     21  N   UNL     1      47.435   6.084  13.005  0.00  0.00    +0.000 N 
ATOM     22  N   UNL     1      49.026   6.338  14.653  0.00  0.00    +0.000 NA
ATOM     23  C   UNL     1      49.601   7.071  15.643  0.00  0.00    +0.000 A 
ATOM     24  H   UNL     1      47.966   5.215  12.941  0.00  0.00    +0.000 HD
BRANCH  17  26
ATOM     25  N   UNL     1      51.011   9.776  16.829  0.00  0.00    +0.000 N 
ATOM     26  C   UNL     1      49.874   9.060  17.089  0.00  0.00    +0.000 C 
ATOM     27  O   UNL     1      49.385   9.027  18.209  0.00  0.00    +0.000 OA
ATOM     28  H   UNL     1      51.365  10.344  17.589  0.00  0.00    +0.000 HD
ATOM     29  H   UNL     1      51.281  10.041  15.892  0.00  0.00    +0.000 HD
ENDBRANCH  17  26
ENDBRANCH  16  21
ENDBRANCH   1  16
TORSDOF 6
ENDMDL
MODEL 9
REMARK VINA RESULT:    -6.775      3.078      7.032
REMARK INTER + INTRA:         -10.004
REMARK INTER:                  -9.384
REMARK INTRA:                  -0.620
REMARK UNBOUND:                -0.852
REMARK  Name = 
REMARK  6 active torsions:
REMARK  status: ('A' for Active; 'I' for Inactive)
REMARK    1  A    between atoms: C_2  and  C_4
REMARK    2  A    between atoms: N_8  and  C_9
REMARK    3  A    between atoms: C_9  and  C_10
REMARK    4  A    between atoms: C_10  and  C_13
REMARK    5  A    between atoms: C_18  and  O_19
REMARK    6  A    between atoms: O_19  and  C_20
REMARK                            x       y       z     vdW  Elec       q    Type
REMARK                         _______ _______ _______ _____ _____    ______ ____
ROOT
ATOM      1  C   UNL     1      45.988   7.611  12.159  0.00  0.00    +0.000 C 
ATOM      2  F   UNL     1      45.913   8.060  13.449  0.00  0.00    +0.000 F 
ATOM      3  F   UNL     1      45.588   8.666  11.387  0.00  0.00    +0.000 F 
ENDROOT
BRANCH   1   4
ATOM      4  C   UNL     1      45.106   6.397  11.929  0.00  0.00    +0.000 A 
ATOM      5  C   UNL     1      44.175   6.003  12.900  0.00  0.00    +0.000 A 
ATOM      6  C   UNL     1      43.382   4.882  12.685  0.00  0.00    +0.000 A 
ATOM      7  F   UNL     1      42.502   4.510  13.623  0.00  0.00    +0.000 F 
ATOM      8  C   UNL     1      43.489   4.141  11.515  0.00  0.00    +0.000 A 
ATOM      9  C   UNL     1      44.397   4.530  10.531  0.00  0.00    +0.000 A 
ATOM     10  C   UNL     1      45.212   5.645  10.740  0.00  0.00    +0.000 A 
BRANCH   9  11
ATOM     11  O   UNL     1      44.429   3.728   9.419  0.00  0.00    +0.000 OA
BRANCH  11  12
ATOM     12  C   UNL     1      45.700   3.217   8.957  0.00  0.00    +0.000 C 
ATOM     13  C   UNL     1      46.082   3.436   7.487  0.00  0.00    +0.000 C 
ATOM     14  O   UNL     1      46.299   2.019   7.282  0.00  0.00    +0.000 OA
ATOM     15  C   UNL     1      45.707   1.729   8.569  0.00  0.00    +0.000 C 
ENDBRANCH  11  12
ENDBRANCH   9  11
ENDBRANCH   1   4
BRANCH   1  16
ATOM     16  C   UNL     1      47.476   7.291  11.845  0.00  0.00    +0.000 C 
BRANCH  16  21
ATOM     17  C   UNL     1      47.621   4.271  15.977  0.00  0.00    +0.000 A 
ATOM     18  C   UNL     1      47.244   3.973  14.675  0.00  0.00    +0.000 A 
ATOM     19  C   UNL     1      47.430   4.930  13.675  0.00  0.00    +0.000 A 
ATOM     20  C   UNL     1      47.974   6.170  13.997  0.00  0.00    +0.000 A 
ATOM     21  N   UNL     1      48.293   7.123  13.051  0.00  0.00    +0.000 N 
ATOM     22  N   UNL     1      48.301   6.484  15.266  0.00  0.00    +0.000 NA
ATOM     23  C   UNL     1      48.116   5.543  16.229  0.00  0.00    +0.000 A 
ATOM     24  H   UNL     1      48.558   7.982  13.533  0.00  0.00    +0.000 HD
BRANCH  17  26
ATOM     25  N   UNL     1      48.699   2.933  17.689  0.00  0.00    +0.000 N 
ATOM     26  C   UNL     1      47.528   3.296  17.083  0.00  0.00    +0.000 C 
ATOM     27  O   UNL     1      46.451   2.864  17.469  0.00  0.00    +0.000 OA
ATOM     28  H   UNL     1      48.614   2.366  18.524  0.00  0.00    +0.000 HD
ATOM     29  H   UNL     1      49.553   3.463  17.578  0.00  0.00    +0.000 HD
ENDBRANCH  17  26
ENDBRANCH  16  21
ENDBRANCH   1  16
TORSDOF 6
ENDMDL
