MODEL 1
REMARK VINA RESULT:    -9.899      0.000      0.000
REMARK INTER + INTRA:         -13.647
REMARK INTER:                 -12.792
REMARK INTRA:                  -0.854
REMARK UNBOUND:                -0.854
REMARK  Name = 
REMARK  5 active torsions:
REMARK  status: ('A' for Active; 'I' for Inactive)
REMARK    1  A    between atoms: C_2  and  C_4
REMARK    2  A    between atoms: N_8  and  C_9
REMARK    3  A    between atoms: C_9  and  C_10
REMARK    4  A    between atoms: C_10  and  C_13
REMARK    5  A    between atoms: C_17  and  C_18
REMARK                            x       y       z     vdW  Elec       q    Type
REMARK                         _______ _______ _______ _____ _____    ______ ____
ROOT
ATOM      1  C   UNL     1      43.576   5.738  12.074  0.00  0.00    +0.000 C 
ATOM      2  F   UNL     1      43.029   6.837  11.472  0.00  0.00    +0.000 F 
ATOM      3  F   UNL     1      42.873   5.569  13.231  0.00  0.00    +0.000 F 
ENDROOT
BRANCH   1   4
ATOM      4  C   UNL     1      45.062   5.910  12.334  0.00  0.00    +0.000 A 
ATOM      5  C   UNL     1      45.863   6.631  11.441  0.00  0.00    +0.000 A 
ATOM      6  C   UNL     1      47.210   6.837  11.720  0.00  0.00    +0.000 A 
ATOM      7  C   UNL     1      47.766   6.339  12.901  0.00  0.00    +0.000 A 
ATOM      8  C   UNL     1      46.991   5.628  13.834  0.00  0.00    +0.000 A 
ATOM      9  C   UNL     1      45.638   5.406  13.514  0.00  0.00    +0.000 A 
BRANCH   8  10
ATOM     10  C   UNL     1      47.552   5.184  15.131  0.00  0.00    +0.000 A 
ATOM     11  C   UNL     1      48.570   5.895  15.783  0.00  0.00    +0.000 A 
ATOM     12  C   UNL     1      49.103   5.395  16.963  0.00  0.00    +0.000 A 
ATOM     13  N   UNL     1      48.694   4.254  17.549  0.00  0.00    +0.000 NA
ATOM     14  C   UNL     1      47.707   3.588  16.923  0.00  0.00    +0.000 A 
ATOM     15  F   UNL     1      47.280   2.445  17.480  0.00  0.00    +0.000 F 
ATOM     16  C   UNL     1      47.119   4.000  15.740  0.00  0.00    +0.000 A 
ENDBRANCH   8  10
ENDBRANCH   1   4
BRANCH   1  17
ATOM     17  C   UNL     1      43.345   4.510  11.151  0.00  0.00    +0.000 C 
BRANCH  17  22
ATOM     18  C   UNL     1      46.454   2.346   7.736  0.00  0.00    +0.000 A 
ATOM     19  C   UNL     1      45.647   1.753   8.700  0.00  0.00    +0.000 A 
ATOM     20  C   UNL     1      44.751   2.547   9.417  0.00  0.00    +0.000 A 
ATOM     21  C   UNL     1      44.683   3.915   9.169  0.00  0.00    +0.000 A 
ATOM     22  N   UNL     1      43.749   4.743   9.761  0.00  0.00    +0.000 N 
ATOM     23  N   UNL     1      45.488   4.504   8.263  0.00  0.00    +0.000 NA
ATOM     24  C   UNL     1      46.357   3.718   7.572  0.00  0.00    +0.000 A 
ATOM     25  H   UNL     1      43.969   5.709   9.518  0.00  0.00    +0.000 HD
BRANCH  18  27
ATOM     26  N   UNL     1      48.536   2.211   6.495  0.00  0.00    +0.000 N 
ATOM     27  C   UNL     1      47.390   1.574   6.893  0.00  0.00    +0.000 C 
ATOM     28  O   UNL     1      47.173   0.408   6.595  0.00  0.00    +0.000 OA
ATOM     29  H   UNL     1      49.221   1.637   6.013  0.00  0.00    +0.000 HD
ATOM     30  H   UNL     1      48.862   3.063   6.924  0.00  0.00    +0.000 HD
ENDBRANCH  18  27
ENDBRANCH  17  22
ENDBRANCH   1  17
TORSDOF 5
ENDMDL
MODEL 2
REMARK VINA RESULT:    -9.842      2.503      3.742
REMARK INTER + INTRA:         -13.573
REMARK INTER:                 -12.502
REMARK INTRA:                  -1.071
REMARK UNBOUND:                -0.854
REMARK  Name = 
REMARK  5 active torsions:
REMARK  status: ('A' for Active; 'I' for Inactive)
REMARK    1  A    between atoms: C_2  and  C_4
REMARK    2  A    between atoms: N_8  and  C_9
REMARK    3  A    between atoms: C_9  and  C_10
REMARK    4  A    between atoms: C_10  and  C_13
REMARK    5  A    between atoms: C_17  and  C_18
REMARK                            x       y       z     vdW  Elec       q    Type
REMARK                         _______ _______ _______ _____ _____    ______ ____
ROOT
ATOM      1  C   UNL     1      43.395   5.581  12.114  0.00  0.00    +0.000 C 
ATOM      2  F   UNL     1      43.027   6.741  11.490  0.00  0.00    +0.000 F 
ATOM      3  F   UNL     1      42.499   5.414  13.130  0.00  0.00    +0.000 F 
ENDROOT
BRANCH   1   4
ATOM      4  C   UNL     1      44.824   5.636  12.624  0.00  0.00    +0.000 A 
ATOM      5  C   UNL     1      45.362   4.569  13.354  0.00  0.00    +0.000 A 
ATOM      6  C   UNL     1      46.691   4.601  13.763  0.00  0.00    +0.000 A 
ATOM      7  C   UNL     1      47.501   5.691  13.432  0.00  0.00    +0.000 A 
ATOM      8  C   UNL     1      47.005   6.772  12.682  0.00  0.00    +0.000 A 
ATOM      9  C   UNL     1      45.649   6.731  12.308  0.00  0.00    +0.000 A 
BRANCH   8  10
ATOM     10  C   UNL     1      47.883   7.882  12.247  0.00  0.00    +0.000 A 
ATOM     11  C   UNL     1      47.415   9.199  12.132  0.00  0.00    +0.000 A 
ATOM     12  C   UNL     1      48.267  10.187  11.656  0.00  0.00    +0.000 A 
ATOM     13  N   UNL     1      49.546   9.969  11.299  0.00  0.00    +0.000 NA
ATOM     14  C   UNL     1      49.989   8.705  11.426  0.00  0.00    +0.000 A 
ATOM     15  F   UNL     1      51.259   8.454  11.075  0.00  0.00    +0.000 F 
ATOM     16  C   UNL     1      49.215   7.652  11.882  0.00  0.00    +0.000 A 
ENDBRANCH   8  10
ENDBRANCH   1   4
BRANCH   1  17
ATOM     17  C   UNL     1      43.245   4.413  11.102  0.00  0.00    +0.000 C 
BRANCH  17  22
ATOM     18  C   UNL     1      46.517   2.543   7.664  0.00  0.00    +0.000 A 
ATOM     19  C   UNL     1      45.681   1.872   8.549  0.00  0.00    +0.000 A 
ATOM     20  C   UNL     1      44.747   2.600   9.286  0.00  0.00    +0.000 A 
ATOM     21  C   UNL     1      44.669   3.982   9.136  0.00  0.00    +0.000 A 
ATOM     22  N   UNL     1      43.700   4.753   9.749  0.00  0.00    +0.000 N 
ATOM     23  N   UNL     1      45.500   4.646   8.309  0.00  0.00    +0.000 NA
ATOM     24  C   UNL     1      46.406   3.923   7.598  0.00  0.00    +0.000 A 
ATOM     25  H   UNL     1      43.915   5.736   9.588  0.00  0.00    +0.000 HD
BRANCH  18  27
ATOM     26  N   UNL     1      48.559   2.584   6.353  0.00  0.00    +0.000 N 
ATOM     27  C   UNL     1      47.496   1.847   6.805  0.00  0.00    +0.000 C 
ATOM     28  O   UNL     1      47.386   0.658   6.540  0.00  0.00    +0.000 OA
ATOM     29  H   UNL     1      49.281   2.069   5.859  0.00  0.00    +0.000 HD
ATOM     30  H   UNL     1      48.813   3.474   6.751  0.00  0.00    +0.000 HD
ENDBRANCH  18  27
ENDBRANCH  17  22
ENDBRANCH   1  17
TORSDOF 5
ENDMDL
MODEL 3
REMARK VINA RESULT:    -9.415      2.626      4.334
REMARK INTER + INTRA:         -13.021
REMARK INTER:                 -12.005
REMARK INTRA:                  -1.017
REMARK UNBOUND:                -0.854
REMARK  Name = 
REMARK  5 active torsions:
REMARK  status: ('A' for Active; 'I' for Inactive)
REMARK    1  A    between atoms: C_2  and  C_4
REMARK    2  A    between atoms: N_8  and  C_9
REMARK    3  A    between atoms: C_9  and  C_10
REMARK    4  A    between atoms: C_10  and  C_13
REMARK    5  A    between atoms: C_17  and  C_18
REMARK                            x       y       z     vdW  Elec       q    Type
REMARK                         _______ _______ _______ _____ _____    ______ ____
ROOT
ATOM      1  C   UNL     1      43.374   4.543  12.715  0.00  0.00    +0.000 C 
ATOM      2  F   UNL     1      42.352   5.418  12.469  0.00  0.00    +0.000 F 
ATOM      3  F   UNL     1      43.020   3.882  13.856  0.00  0.00    +0.000 F 
ENDROOT
BRANCH   1   4
ATOM      4  C   UNL     1      44.708   5.252  12.863  0.00  0.00    +0.000 A 
ATOM      5  C   UNL     1      45.860   4.537  13.215  0.00  0.00    +0.000 A 
ATOM      6  C   UNL     1      47.090   5.184  13.286  0.00  0.00    +0.000 A 
ATOM      7  C   UNL     1      47.184   6.546  12.991  0.00  0.00    +0.000 A 
ATOM      8  C   UNL     1      46.055   7.295  12.613  0.00  0.00    +0.000 A 
ATOM      9  C   UNL     1      44.818   6.625  12.579  0.00  0.00    +0.000 A 
BRANCH   8  10
ATOM     10  C   UNL     1      46.167   8.714  12.206  0.00  0.00    +0.000 A 
ATOM     11  C   UNL     1      47.401   9.377  12.154  0.00  0.00    +0.000 A 
ATOM     12  C   UNL     1      47.438  10.726  11.829  0.00  0.00    +0.000 A 
ATOM     13  N   UNL     1      46.347  11.460  11.541  0.00  0.00    +0.000 NA
ATOM     14  C   UNL     1      45.170  10.811  11.579  0.00  0.00    +0.000 A 
ATOM     15  F   UNL     1      44.063  11.516  11.300  0.00  0.00    +0.000 F 
ATOM     16  C   UNL     1      45.030   9.472  11.901  0.00  0.00    +0.000 A 
ENDBRANCH   8  10
ENDBRANCH   1   4
BRANCH   1  17
ATOM     17  C   UNL     1      43.446   3.532  11.539  0.00  0.00    +0.000 C 
BRANCH  17  22
ATOM     18  C   UNL     1      46.497   2.749   7.527  0.00  0.00    +0.000 A 
ATOM     19  C   UNL     1      45.846   1.827   8.338  0.00  0.00    +0.000 A 
ATOM     20  C   UNL     1      44.925   2.284   9.281  0.00  0.00    +0.000 A 
ATOM     21  C   UNL     1      44.679   3.648   9.408  0.00  0.00    +0.000 A 
ATOM     22  N   UNL     1      43.706   4.165  10.242  0.00  0.00    +0.000 N 
ATOM     23  N   UNL     1      45.334   4.552   8.653  0.00  0.00    +0.000 NA
ATOM     24  C   UNL     1      46.229   4.093   7.737  0.00  0.00    +0.000 A 
ATOM     25  H   UNL     1      43.792   5.181  10.254  0.00  0.00    +0.000 HD
BRANCH  18  27
ATOM     26  N   UNL     1      47.499   3.147   5.353  0.00  0.00    +0.000 N 
ATOM     27  C   UNL     1      47.445   2.352   6.467  0.00  0.00    +0.000 C 
ATOM     28  O   UNL     1      48.177   1.379   6.592  0.00  0.00    +0.000 OA
ATOM     29  H   UNL     1      48.231   2.928   4.683  0.00  0.00    +0.000 HD
ATOM     30  H   UNL     1      47.108   4.075   5.327  0.00  0.00    +0.000 HD
ENDBRANCH  18  27
ENDBRANCH  17  22
ENDBRANCH   1  17
TORSDOF 5
ENDMDL
MODEL 4
REMARK VINA RESULT:    -8.937      2.555      3.451
REMARK INTER + INTRA:         -12.403
REMARK INTER:                 -11.638
REMARK INTRA:                  -0.765
REMARK UNBOUND:                -0.854
REMARK  Name = 
REMARK  5 active torsions:
REMARK  status: ('A' for Active; 'I' for Inactive)
REMARK    1  A    between atoms: C_2  and  C_4
REMARK    2  A    between atoms: N_8  and  C_9
REMARK    3  A    between atoms: C_9  and  C_10
REMARK    4  A    between atoms: C_10  and  C_13
REMARK    5  A    between atoms: C_17  and  C_18
REMARK                            x       y       z     vdW  Elec       q    Type
REMARK                         _______ _______ _______ _____ _____    ______ ____
ROOT
ATOM      1  C   UNL     1      44.310   4.685  12.251  0.00  0.00    +0.000 C 
ATOM      2  F   UNL     1      43.665   4.602  13.454  0.00  0.00    +0.000 F 
ATOM      3  F   UNL     1      45.237   3.684  12.266  0.00  0.00    +0.000 F 
ENDROOT
BRANCH   1   4
ATOM      4  C   UNL     1      44.950   6.046  12.040  0.00  0.00    +0.000 A 
ATOM      5  C   UNL     1      44.166   7.160  11.718  0.00  0.00    +0.000 A 
ATOM      6  C   UNL     1      44.753   8.415  11.589  0.00  0.00    +0.000 A 
ATOM      7  C   UNL     1      46.126   8.571  11.796  0.00  0.00    +0.000 A 
ATOM      8  C   UNL     1      46.944   7.482  12.142  0.00  0.00    +0.000 A 
ATOM      9  C   UNL     1      46.333   6.218  12.236  0.00  0.00    +0.000 A 
BRANCH   8  10
ATOM     10  C   UNL     1      48.380   7.660  12.457  0.00  0.00    +0.000 A 
ATOM     11  C   UNL     1      48.861   7.634  13.775  0.00  0.00    +0.000 A 
ATOM     12  C   UNL     1      50.207   7.872  14.015  0.00  0.00    +0.000 A 
ATOM     13  N   UNL     1      51.110   8.121  13.049  0.00  0.00    +0.000 NA
ATOM     14  C   UNL     1      50.642   8.130  11.788  0.00  0.00    +0.000 A 
ATOM     15  F   UNL     1      51.518   8.378  10.803  0.00  0.00    +0.000 F 
ATOM     16  C   UNL     1      49.318   7.913  11.448  0.00  0.00    +0.000 A 
ENDBRANCH   8  10
ENDBRANCH   1   4
BRANCH   1  17
ATOM     17  C   UNL     1      43.278   4.412  11.124  0.00  0.00    +0.000 C 
BRANCH  17  22
ATOM     18  C   UNL     1      46.507   2.499   7.669  0.00  0.00    +0.000 A 
ATOM     19  C   UNL     1      45.630   1.840   8.522  0.00  0.00    +0.000 A 
ATOM     20  C   UNL     1      44.719   2.588   9.270  0.00  0.00    +0.000 A 
ATOM     21  C   UNL     1      44.707   3.975   9.163  0.00  0.00    +0.000 A 
ATOM     22  N   UNL     1      43.767   4.771   9.788  0.00  0.00    +0.000 N 
ATOM     23  N   UNL     1      45.578   4.625   8.367  0.00  0.00    +0.000 NA
ATOM     24  C   UNL     1      46.460   3.884   7.644  0.00  0.00    +0.000 A 
ATOM     25  H   UNL     1      44.029   5.748   9.660  0.00  0.00    +0.000 HD
BRANCH  18  27
ATOM     26  N   UNL     1      48.572   2.481   6.395  0.00  0.00    +0.000 N 
ATOM     27  C   UNL     1      47.465   1.785   6.800  0.00  0.00    +0.000 C 
ATOM     28  O   UNL     1      47.298   0.613   6.488  0.00  0.00    +0.000 OA
ATOM     29  H   UNL     1      49.276   1.947   5.893  0.00  0.00    +0.000 HD
ATOM     30  H   UNL     1      48.864   3.341   6.831  0.00  0.00    +0.000 HD
ENDBRANCH  18  27
ENDBRANCH  17  22
ENDBRANCH   1  17
TORSDOF 5
ENDMDL
MODEL 5
REMARK VINA RESULT:    -8.888      1.441      1.902
REMARK INTER + INTRA:         -12.341
REMARK INTER:                 -11.466
REMARK INTRA:                  -0.874
REMARK UNBOUND:                -0.854
REMARK  Name = 
REMARK  5 active torsions:
REMARK  status: ('A' for Active; 'I' for Inactive)
REMARK    1  A    between atoms: C_2  and  C_4
REMARK    2  A    between atoms: N_8  and  C_9
REMARK    3  A    between atoms: C_9  and  C_10
REMARK    4  A    between atoms: C_10  and  C_13
REMARK    5  A    between atoms: C_17  and  C_18
REMARK                            x       y       z     vdW  Elec       q    Type
REMARK                         _______ _______ _______ _____ _____    ______ ____
ROOT
ATOM      1  C   UNL     1      42.996   5.505  12.153  0.00  0.00    +0.000 C 
ATOM      2  F   UNL     1      41.802   6.014  11.723  0.00  0.00    +0.000 F 
ATOM      3  F   UNL     1      42.772   5.076  13.429  0.00  0.00    +0.000 F 
ENDROOT
BRANCH   1   4
ATOM      4  C   UNL     1      44.110   6.534  12.089  0.00  0.00    +0.000 A 
ATOM      5  C   UNL     1      43.934   7.733  11.388  0.00  0.00    +0.000 A 
ATOM      6  C   UNL     1      44.937   8.698  11.388  0.00  0.00    +0.000 A 
ATOM      7  C   UNL     1      46.118   8.482  12.102  0.00  0.00    +0.000 A 
ATOM      8  C   UNL     1      46.325   7.301  12.837  0.00  0.00    +0.000 A 
ATOM      9  C   UNL     1      45.309   6.327  12.795  0.00  0.00    +0.000 A 
BRANCH   8  10
ATOM     10  C   UNL     1      47.532   7.109  13.674  0.00  0.00    +0.000 A 
ATOM     11  C   UNL     1      48.733   7.783  13.410  0.00  0.00    +0.000 A 
ATOM     12  C   UNL     1      49.851   7.515  14.188  0.00  0.00    +0.000 A 
ATOM     13  N   UNL     1      49.862   6.641  15.211  0.00  0.00    +0.000 NA
ATOM     14  C   UNL     1      48.701   6.011  15.466  0.00  0.00    +0.000 A 
ATOM     15  F   UNL     1      48.681   5.131  16.478  0.00  0.00    +0.000 F 
ATOM     16  C   UNL     1      47.537   6.204  14.742  0.00  0.00    +0.000 A 
ENDBRANCH   8  10
ENDBRANCH   1   4
BRANCH   1  17
ATOM     17  C   UNL     1      43.358   4.287  11.259  0.00  0.00    +0.000 C 
BRANCH  17  22
ATOM     18  C   UNL     1      46.502   2.479   7.673  0.00  0.00    +0.000 A 
ATOM     19  C   UNL     1      45.682   1.792   8.559  0.00  0.00    +0.000 A 
ATOM     20  C   UNL     1      44.779   2.511   9.345  0.00  0.00    +0.000 A 
ATOM     21  C   UNL     1      44.719   3.897   9.241  0.00  0.00    +0.000 A 
ATOM     22  N   UNL     1      43.780   4.663   9.906  0.00  0.00    +0.000 N 
ATOM     23  N   UNL     1      45.537   4.575   8.413  0.00  0.00    +0.000 NA
ATOM     24  C   UNL     1      46.412   3.862   7.653  0.00  0.00    +0.000 A 
ATOM     25  H   UNL     1      44.006   5.648   9.769  0.00  0.00    +0.000 HD
BRANCH  18  27
ATOM     26  N   UNL     1      48.525   2.522   6.332  0.00  0.00    +0.000 N 
ATOM     27  C   UNL     1      47.447   1.797   6.765  0.00  0.00    +0.000 C 
ATOM     28  O   UNL     1      47.295   0.625   6.445  0.00  0.00    +0.000 OA
ATOM     29  H   UNL     1      49.223   2.009   5.802  0.00  0.00    +0.000 HD
ATOM     30  H   UNL     1      48.813   3.383   6.768  0.00  0.00    +0.000 HD
ENDBRANCH  18  27
ENDBRANCH  17  22
ENDBRANCH   1  17
TORSDOF 5
ENDMDL
MODEL 6
REMARK VINA RESULT:    -8.681      1.673      2.146
REMARK INTER + INTRA:         -12.073
REMARK INTER:                 -10.983
REMARK INTRA:                  -1.090
REMARK UNBOUND:                -0.854
REMARK  Name = 
REMARK  5 active torsions:
REMARK  status: ('A' for Active; 'I' for Inactive)
REMARK    1  A    between atoms: C_2  and  C_4
REMARK    2  A    between atoms: N_8  and  C_9
REMARK    3  A    between atoms: C_9  and  C_10
REMARK    4  A    between atoms: C_10  and  C_13
REMARK    5  A    between atoms: C_17  and  C_18
REMARK                            x       y       z     vdW  Elec       q    Type
REMARK                         _______ _______ _______ _____ _____    ______ ____
ROOT
ATOM      1  C   UNL     1      44.189   5.955  11.658  0.00  0.00    +0.000 C 
ATOM      2  F   UNL     1      44.761   6.837  10.783  0.00  0.00    +0.000 F 
ATOM      3  F   UNL     1      43.314   6.695  12.399  0.00  0.00    +0.000 F 
ENDROOT
BRANCH   1   4
ATOM      4  C   UNL     1      45.224   5.264  12.528  0.00  0.00    +0.000 A 
ATOM      5  C   UNL     1      45.279   3.866  12.595  0.00  0.00    +0.000 A 
ATOM      6  C   UNL     1      46.270   3.240  13.345  0.00  0.00    +0.000 A 
ATOM      7  C   UNL     1      47.225   4.004  14.021  0.00  0.00    +0.000 A 
ATOM      8  C   UNL     1      47.217   5.409  13.962  0.00  0.00    +0.000 A 
ATOM      9  C   UNL     1      46.186   6.019  13.223  0.00  0.00    +0.000 A 
BRANCH   8  10
ATOM     10  C   UNL     1      48.283   6.218  14.596  0.00  0.00    +0.000 A 
ATOM     11  C   UNL     1      49.032   7.157  13.874  0.00  0.00    +0.000 A 
ATOM     12  C   UNL     1      50.063   7.839  14.506  0.00  0.00    +0.000 A 
ATOM     13  N   UNL     1      50.396   7.669  15.798  0.00  0.00    +0.000 NA
ATOM     14  C   UNL     1      49.661   6.777  16.487  0.00  0.00    +0.000 A 
ATOM     15  F   UNL     1      49.969   6.583  17.777  0.00  0.00    +0.000 F 
ATOM     16  C   UNL     1      48.621   6.042  15.944  0.00  0.00    +0.000 A 
ENDBRANCH   8  10
ENDBRANCH   1   4
BRANCH   1  17
ATOM     17  C   UNL     1      43.401   4.896  10.840  0.00  0.00    +0.000 C 
BRANCH  17  22
ATOM     18  C   UNL     1      46.411   2.267   7.672  0.00  0.00    +0.000 A 
ATOM     19  C   UNL     1      45.672   1.824   8.762  0.00  0.00    +0.000 A 
ATOM     20  C   UNL     1      44.786   2.705   9.384  0.00  0.00    +0.000 A 
ATOM     21  C   UNL     1      44.661   4.010   8.916  0.00  0.00    +0.000 A 
ATOM     22  N   UNL     1      43.729   4.902   9.410  0.00  0.00    +0.000 N 
ATOM     23  N   UNL     1      45.400   4.459   7.883  0.00  0.00    +0.000 NA
ATOM     24  C   UNL     1      46.260   3.589   7.286  0.00  0.00    +0.000 A 
ATOM     25  H   UNL     1      43.905   5.819   8.999  0.00  0.00    +0.000 HD
BRANCH  18  27
ATOM     26  N   UNL     1      48.434   1.977   6.361  0.00  0.00    +0.000 N 
ATOM     27  C   UNL     1      47.330   1.388   6.920  0.00  0.00    +0.000 C 
ATOM     28  O   UNL     1      47.138   0.183   6.832  0.00  0.00    +0.000 OA
ATOM     29  H   UNL     1      49.113   1.348   5.945  0.00  0.00    +0.000 HD
ATOM     30  H   UNL     1      48.751   2.896   6.624  0.00  0.00    +0.000 HD
ENDBRANCH  18  27
ENDBRANCH  17  22
ENDBRANCH   1  17
TORSDOF 5
ENDMDL
MODEL 7
REMARK VINA RESULT:    -8.367      3.221      7.979
REMARK INTER + INTRA:         -11.667
REMARK INTER:                 -10.749
REMARK INTRA:                  -0.917
REMARK UNBOUND:                -0.854
REMARK  Name = 
REMARK  5 active torsions:
REMARK  status: ('A' for Active; 'I' for Inactive)
REMARK    1  A    between atoms: C_2  and  C_4
REMARK    2  A    between atoms: N_8  and  C_9
REMARK    3  A    between atoms: C_9  and  C_10
REMARK    4  A    between atoms: C_10  and  C_13
REMARK    5  A    between atoms: C_17  and  C_18
REMARK                            x       y       z     vdW  Elec       q    Type
REMARK                         _______ _______ _______ _____ _____    ______ ____
ROOT
ATOM      1  C   UNL     1      45.619   6.557  11.561  0.00  0.00    +0.000 C 
ATOM      2  F   UNL     1      44.800   7.583  11.179  0.00  0.00    +0.000 F 
ATOM      3  F   UNL     1      46.838   6.843  11.017  0.00  0.00    +0.000 F 
ENDROOT
BRANCH   1   4
ATOM      4  C   UNL     1      45.097   5.208  11.100  0.00  0.00    +0.000 A 
ATOM      5  C   UNL     1      43.942   4.658  11.669  0.00  0.00    +0.000 A 
ATOM      6  C   UNL     1      43.435   3.452  11.196  0.00  0.00    +0.000 A 
ATOM      7  C   UNL     1      44.068   2.791  10.140  0.00  0.00    +0.000 A 
ATOM      8  C   UNL     1      45.217   3.320   9.527  0.00  0.00    +0.000 A 
ATOM      9  C   UNL     1      45.729   4.525  10.044  0.00  0.00    +0.000 A 
BRANCH   8  10
ATOM     10  C   UNL     1      45.834   2.674   8.346  0.00  0.00    +0.000 A 
ATOM     11  C   UNL     1      46.261   1.339   8.368  0.00  0.00    +0.000 A 
ATOM     12  C   UNL     1      46.892   0.805   7.252  0.00  0.00    +0.000 A 
ATOM     13  N   UNL     1      47.118   1.492   6.117  0.00  0.00    +0.000 NA
ATOM     14  C   UNL     1      46.690   2.767   6.100  0.00  0.00    +0.000 A 
ATOM     15  F   UNL     1      46.903   3.479   4.984  0.00  0.00    +0.000 F 
ATOM     16  C   UNL     1      46.061   3.390   7.164  0.00  0.00    +0.000 A 
ENDBRANCH   8  10
ENDBRANCH   1   4
BRANCH   1  17
ATOM     17  C   UNL     1      45.733   6.572  13.109  0.00  0.00    +0.000 C 
BRANCH  17  22
ATOM     18  C   UNL     1      48.368   4.067  16.686  0.00  0.00    +0.000 A 
ATOM     19  C   UNL     1      47.331   3.622  15.876  0.00  0.00    +0.000 A 
ATOM     20  C   UNL     1      46.871   4.446  14.847  0.00  0.00    +0.000 A 
ATOM     21  C   UNL     1      47.445   5.699  14.653  0.00  0.00    +0.000 A 
ATOM     22  N   UNL     1      47.117   6.521  13.593  0.00  0.00    +0.000 N 
ATOM     23  N   UNL     1      48.425   6.154  15.457  0.00  0.00    +0.000 NA
ATOM     24  C   UNL     1      48.863   5.341  16.456  0.00  0.00    +0.000 A 
ATOM     25  H   UNL     1      47.574   7.423  13.726  0.00  0.00    +0.000 HD
BRANCH  18  27
ATOM     26  N   UNL     1      48.321   3.266  18.977  0.00  0.00    +0.000 N 
ATOM     27  C   UNL     1      48.953   3.240  17.762  0.00  0.00    +0.000 C 
ATOM     28  O   UNL     1      49.933   2.535  17.568  0.00  0.00    +0.000 OA
ATOM     29  H   UNL     1      48.665   2.610  19.672  0.00  0.00    +0.000 HD
ATOM     30  H   UNL     1      47.387   3.624  19.098  0.00  0.00    +0.000 HD
ENDBRANCH  18  27
ENDBRANCH  17  22
ENDBRANCH   1  17
TORSDOF 5
ENDMDL
MODEL 8
REMARK VINA RESULT:    -8.153      3.465      8.042
REMARK INTER + INTRA:         -11.391
REMARK INTER:                 -10.591
REMARK INTRA:                  -0.799
REMARK UNBOUND:                -0.854
REMARK  Name = 
REMARK  5 active torsions:
REMARK  status: ('A' for Active; 'I' for Inactive)
REMARK    1  A    between atoms: C_2  and  C_4
REMARK    2  A    between atoms: N_8  and  C_9
REMARK    3  A    between atoms: C_9  and  C_10
REMARK    4  A    between atoms: C_10  and  C_13
REMARK    5  A    between atoms: C_17  and  C_18
REMARK                            x       y       z     vdW  Elec       q    Type
REMARK                         _______ _______ _______ _____ _____    ______ ____
ROOT
ATOM      1  C   UNL     1      46.054   7.131  12.299  0.00  0.00    +0.000 C 
ATOM      2  F   UNL     1      45.306   7.872  13.171  0.00  0.00    +0.000 F 
ATOM      3  F   UNL     1      46.650   8.037  11.470  0.00  0.00    +0.000 F 
ENDROOT
BRANCH   1   4
ATOM      4  C   UNL     1      45.210   6.130  11.530  0.00  0.00    +0.000 A 
ATOM      5  C   UNL     1      43.817   6.113  11.675  0.00  0.00    +0.000 A 
ATOM      6  C   UNL     1      43.046   5.235  10.919  0.00  0.00    +0.000 A 
ATOM      7  C   UNL     1      43.657   4.378  10.000  0.00  0.00    +0.000 A 
ATOM      8  C   UNL     1      45.051   4.380   9.810  0.00  0.00    +0.000 A 
ATOM      9  C   UNL     1      45.811   5.254  10.609  0.00  0.00    +0.000 A 
BRANCH   8  10
ATOM     10  C   UNL     1      45.692   3.544   8.769  0.00  0.00    +0.000 A 
ATOM     11  C   UNL     1      46.259   4.100   7.614  0.00  0.00    +0.000 A 
ATOM     12  C   UNL     1      46.788   3.262   6.642  0.00  0.00    +0.000 A 
ATOM     13  N   UNL     1      46.808   1.920   6.736  0.00  0.00    +0.000 NA
ATOM     14  C   UNL     1      46.275   1.397   7.855  0.00  0.00    +0.000 A 
ATOM     15  F   UNL     1      46.277   0.061   7.977  0.00  0.00    +0.000 F 
ATOM     16  C   UNL     1      45.716   2.148   8.875  0.00  0.00    +0.000 A 
ENDBRANCH   8  10
ENDBRANCH   1   4
BRANCH   1  17
ATOM     17  C   UNL     1      47.147   6.382  13.108  0.00  0.00    +0.000 C 
BRANCH  17  22
ATOM     18  C   UNL     1      48.699   4.427  17.556  0.00  0.00    +0.000 A 
ATOM     19  C   UNL     1      48.943   5.679  17.006  0.00  0.00    +0.000 A 
ATOM     20  C   UNL     1      48.271   6.051  15.841  0.00  0.00    +0.000 A 
ATOM     21  C   UNL     1      47.380   5.166  15.240  0.00  0.00    +0.000 A 
ATOM     22  N   UNL     1      46.602   5.505  14.150  0.00  0.00    +0.000 N 
ATOM     23  N   UNL     1      47.166   3.936  15.745  0.00  0.00    +0.000 NA
ATOM     24  C   UNL     1      47.827   3.587  16.881  0.00  0.00    +0.000 A 
ATOM     25  H   UNL     1      46.123   4.667  13.819  0.00  0.00    +0.000 HD
BRANCH  18  27
ATOM     26  N   UNL     1      48.533   3.255  19.676  0.00  0.00    +0.000 N 
ATOM     27  C   UNL     1      49.322   3.972  18.816  0.00  0.00    +0.000 C 
ATOM     28  O   UNL     1      50.500   4.190  19.064  0.00  0.00    +0.000 OA
ATOM     29  H   UNL     1      49.002   2.853  20.482  0.00  0.00    +0.000 HD
ATOM     30  H   UNL     1      47.656   2.846  19.396  0.00  0.00    +0.000 HD
ENDBRANCH  18  27
ENDBRANCH  17  22
ENDBRANCH   1  17
TORSDOF 5
ENDMDL
MODEL 9
REMARK VINA RESULT:    -7.924      3.598      7.822
REMARK INTER + INTRA:         -11.095
REMARK INTER:                  -9.906
REMARK INTRA:                  -1.188
REMARK UNBOUND:                -0.854
REMARK  Name = 
REMARK  5 active torsions:
REMARK  status: ('A' for Active; 'I' for Inactive)
REMARK    1  A    between atoms: C_2  and  C_4
REMARK    2  A    between atoms: N_8  and  C_9
REMARK    3  A    between atoms: C_9  and  C_10
REMARK    4  A    between atoms: C_10  and  C_13
REMARK    5  A    between atoms: C_17  and  C_18
REMARK                            x       y       z     vdW  Elec       q    Type
REMARK                         _______ _______ _______ _____ _____    ______ ____
ROOT
ATOM      1  C   UNL     1      49.031   8.058  12.244  0.00  0.00    +0.000 C 
ATOM      2  F   UNL     1      49.456   9.093  11.457  0.00  0.00    +0.000 F 
ATOM      3  F   UNL     1      49.781   6.982  11.867  0.00  0.00    +0.000 F 
ENDROOT
BRANCH   1   4
ATOM      4  C   UNL     1      47.544   7.795  12.087  0.00  0.00    +0.000 A 
ATOM      5  C   UNL     1      46.604   8.748  12.497  0.00  0.00    +0.000 A 
ATOM      6  C   UNL     1      45.246   8.526  12.291  0.00  0.00    +0.000 A 
ATOM      7  C   UNL     1      44.816   7.357  11.659  0.00  0.00    +0.000 A 
ATOM      8  C   UNL     1      45.728   6.385  11.212  0.00  0.00    +0.000 A 
ATOM      9  C   UNL     1      47.094   6.619  11.461  0.00  0.00    +0.000 A 
BRANCH   8  10
ATOM     10  C   UNL     1      45.283   5.192  10.456  0.00  0.00    +0.000 A 
ATOM     11  C   UNL     1      44.517   4.179  11.050  0.00  0.00    +0.000 A 
ATOM     12  C   UNL     1      44.184   3.052  10.310  0.00  0.00    +0.000 A 
ATOM     13  N   UNL     1      44.543   2.863   9.027  0.00  0.00    +0.000 NA
ATOM     14  C   UNL     1      45.265   3.848   8.462  0.00  0.00    +0.000 A 
ATOM     15  F   UNL     1      45.640   3.687   7.184  0.00  0.00    +0.000 F 
ATOM     16  C   UNL     1      45.653   5.003   9.119  0.00  0.00    +0.000 A 
ENDBRANCH   8  10
ENDBRANCH   1   4
BRANCH   1  17
ATOM     17  C   UNL     1      49.347   8.408  13.724  0.00  0.00    +0.000 C 
BRANCH  17  22
ATOM     18  C   UNL     1      48.227   4.567  16.887  0.00  0.00    +0.000 A 
ATOM     19  C   UNL     1      47.514   5.055  15.798  0.00  0.00    +0.000 A 
ATOM     20  C   UNL     1      48.103   6.016  14.976  0.00  0.00    +0.000 A 
ATOM     21  C   UNL     1      49.385   6.480  15.259  0.00  0.00    +0.000 A 
ATOM     22  N   UNL     1      50.071   7.347  14.431  0.00  0.00    +0.000 N 
ATOM     23  N   UNL     1      50.069   6.041  16.333  0.00  0.00    +0.000 NA
ATOM     24  C   UNL     1      49.482   5.104  17.126  0.00  0.00    +0.000 A 
ATOM     25  H   UNL     1      50.931   7.634  14.900  0.00  0.00    +0.000 HD
BRANCH  18  27
ATOM     26  N   UNL     1      48.381   3.293  18.947  0.00  0.00    +0.000 N 
ATOM     27  C   UNL     1      47.703   3.511  17.777  0.00  0.00    +0.000 C 
ATOM     28  O   UNL     1      46.688   2.885  17.502  0.00  0.00    +0.000 OA
ATOM     29  H   UNL     1      47.949   2.646  19.599  0.00  0.00    +0.000 HD
ATOM     30  H   UNL     1      49.052   3.948  19.317  0.00  0.00    +0.000 HD
ENDBRANCH  18  27
ENDBRANCH  17  22
ENDBRANCH   1  17
TORSDOF 5
ENDMDL
