MODEL 1
REMARK VINA RESULT:    -9.260      0.000      0.000
REMARK INTER + INTRA:         -12.650
REMARK INTER:                 -11.426
REMARK INTRA:                  -1.224
REMARK UNBOUND:                -1.224
REMARK  Name = 
REMARK  4 active torsions:
REMARK  status: ('A' for Active; 'I' for Inactive)
REMARK    1  A    between atoms: C_2  and  C_4
REMARK    2  A    between atoms: N_8  and  C_9
REMARK    3  A    between atoms: C_9  and  C_10
REMARK    4  A    between atoms: C_14  and  C_15
REMARK                            x       y       z     vdW  Elec       q    Type
REMARK                         _______ _______ _______ _____ _____    ______ ____
ROOT
ATOM      1  C   UNL     1      43.789   4.881  11.360  0.00  0.00    +0.000 C 
ATOM      2  C   UNL     1      42.456   5.129  12.055  0.00  0.00    +0.000 C 
ATOM      3  C   UNL     1      42.955   6.106  11.044  0.00  0.00    +0.000 C 
ENDROOT
BRANCH   1   8
ATOM      4  C   UNL     1      46.565   2.767   7.501  0.00  0.00    +0.000 A 
ATOM      5  C   UNL     1      46.225   4.105   7.694  0.00  0.00    +0.000 A 
ATOM      6  C   UNL     1      45.339   4.442   8.717  0.00  0.00    +0.000 A 
ATOM      7  C   UNL     1      44.804   3.445   9.526  0.00  0.00    +0.000 A 
ATOM      8  N   UNL     1      43.821   3.689  10.491  0.00  0.00    +0.000 N 
ATOM      9  N   UNL     1      45.132   2.147   9.353  0.00  0.00    +0.000 NA
ATOM     10  C   UNL     1      45.996   1.832   8.352  0.00  0.00    +0.000 A 
ATOM     11  H   UNL     1      43.690   2.798  10.967  0.00  0.00    +0.000 HD
BRANCH   4  13
ATOM     12  N   UNL     1      47.367   2.959   5.213  0.00  0.00    +0.000 N 
ATOM     13  C   UNL     1      47.451   2.302   6.413  0.00  0.00    +0.000 C 
ATOM     14  O   UNL     1      48.236   1.380   6.575  0.00  0.00    +0.000 OA
ATOM     15  H   UNL     1      48.027   2.678   4.500  0.00  0.00    +0.000 HD
ATOM     16  H   UNL     1      46.924   3.861   5.113  0.00  0.00    +0.000 HD
ENDBRANCH   4  13
ENDBRANCH   1   8
BRANCH   1  17
ATOM     17  C   UNL     1      45.075   5.064  12.163  0.00  0.00    +0.000 A 
ATOM     18  C   UNL     1      45.567   4.064  13.015  0.00  0.00    +0.000 A 
ATOM     19  C   UNL     1      46.795   4.204  13.660  0.00  0.00    +0.000 A 
ATOM     20  C   UNL     1      47.569   5.345  13.448  0.00  0.00    +0.000 A 
ATOM     21  C   UNL     1      47.135   6.370  12.593  0.00  0.00    +0.000 A 
ATOM     22  C   UNL     1      45.871   6.214  11.990  0.00  0.00    +0.000 A 
BRANCH  21  23
ATOM     23  C   UNL     1      47.998   7.527  12.259  0.00  0.00    +0.000 A 
ATOM     24  C   UNL     1      49.357   7.347  11.944  0.00  0.00    +0.000 A 
ATOM     25  C   UNL     1      50.165   8.419  11.552  0.00  0.00    +0.000 A 
ATOM     26  C   UNL     1      49.628   9.698  11.459  0.00  0.00    +0.000 A 
ATOM     27  C   UNL     1      48.289   9.909  11.774  0.00  0.00    +0.000 A 
ATOM     28  C   UNL     1      47.486   8.835  12.178  0.00  0.00    +0.000 A 
ENDBRANCH  21  23
ENDBRANCH   1  17
TORSDOF 4
ENDMDL
MODEL 2
REMARK VINA RESULT:    -8.723      1.575      3.373
REMARK INTER + INTRA:         -11.988
REMARK INTER:                 -11.400
REMARK INTRA:                  -0.588
REMARK UNBOUND:                -1.224
REMARK  Name = 
REMARK  4 active torsions:
REMARK  status: ('A' for Active; 'I' for Inactive)
REMARK    1  A    between atoms: C_2  and  C_4
REMARK    2  A    between atoms: N_8  and  C_9
REMARK    3  A    between atoms: C_9  and  C_10
REMARK    4  A    between atoms: C_14  and  C_15
REMARK                            x       y       z     vdW  Elec       q    Type
REMARK                         _______ _______ _______ _____ _____    ______ ____
ROOT
ATOM      1  C   UNL     1      43.901   4.876  11.515  0.00  0.00    +0.000 C 
ATOM      2  C   UNL     1      42.751   4.943  12.512  0.00  0.00    +0.000 C 
ATOM      3  C   UNL     1      42.807   5.917  11.383  0.00  0.00    +0.000 C 
ENDROOT
BRANCH   1   8
ATOM      4  C   UNL     1      46.485   2.759   7.526  0.00  0.00    +0.000 A 
ATOM      5  C   UNL     1      46.073   4.081   7.690  0.00  0.00    +0.000 A 
ATOM      6  C   UNL     1      45.254   4.410   8.770  0.00  0.00    +0.000 A 
ATOM      7  C   UNL     1      44.855   3.421   9.663  0.00  0.00    +0.000 A 
ATOM      8  N   UNL     1      43.941   3.649  10.697  0.00  0.00    +0.000 N 
ATOM      9  N   UNL     1      45.253   2.139   9.518  0.00  0.00    +0.000 NA
ATOM     10  C   UNL     1      46.050   1.832   8.461  0.00  0.00    +0.000 A 
ATOM     11  H   UNL     1      43.909   2.775  11.220  0.00  0.00    +0.000 HD
BRANCH   4  13
ATOM     12  N   UNL     1      47.151   2.958   5.195  0.00  0.00    +0.000 N 
ATOM     13  C   UNL     1      47.306   2.299   6.387  0.00  0.00    +0.000 C 
ATOM     14  O   UNL     1      48.102   1.379   6.501  0.00  0.00    +0.000 OA
ATOM     15  H   UNL     1      47.768   2.681   4.445  0.00  0.00    +0.000 HD
ATOM     16  H   UNL     1      46.700   3.859   5.123  0.00  0.00    +0.000 HD
ENDBRANCH   4  13
ENDBRANCH   1   8
BRANCH   1  17
ATOM     17  C   UNL     1      45.286   5.331  11.969  0.00  0.00    +0.000 A 
ATOM     18  C   UNL     1      46.003   6.325  11.285  0.00  0.00    +0.000 A 
ATOM     19  C   UNL     1      47.219   6.803  11.772  0.00  0.00    +0.000 A 
ATOM     20  C   UNL     1      47.735   6.308  12.970  0.00  0.00    +0.000 A 
ATOM     21  C   UNL     1      47.054   5.326  13.705  0.00  0.00    +0.000 A 
ATOM     22  C   UNL     1      45.848   4.837  13.163  0.00  0.00    +0.000 A 
BRANCH  21  23
ATOM     23  C   UNL     1      47.522   4.881  15.038  0.00  0.00    +0.000 A 
ATOM     24  C   UNL     1      48.277   5.737  15.860  0.00  0.00    +0.000 A 
ATOM     25  C   UNL     1      48.661   5.360  17.151  0.00  0.00    +0.000 A 
ATOM     26  C   UNL     1      48.291   4.117  17.652  0.00  0.00    +0.000 A 
ATOM     27  C   UNL     1      47.553   3.245  16.858  0.00  0.00    +0.000 A 
ATOM     28  C   UNL     1      47.181   3.621  15.562  0.00  0.00    +0.000 A 
ENDBRANCH  21  23
ENDBRANCH   1  17
TORSDOF 4
ENDMDL
MODEL 3
REMARK VINA RESULT:    -6.951      3.423      6.878
REMARK INTER + INTRA:          -9.801
REMARK INTER:                  -8.723
REMARK INTRA:                  -1.077
REMARK UNBOUND:                -1.224
REMARK  Name = 
REMARK  4 active torsions:
REMARK  status: ('A' for Active; 'I' for Inactive)
REMARK    1  A    between atoms: C_2  and  C_4
REMARK    2  A    between atoms: N_8  and  C_9
REMARK    3  A    between atoms: C_9  and  C_10
REMARK    4  A    between atoms: C_14  and  C_15
REMARK                            x       y       z     vdW  Elec       q    Type
REMARK                         _______ _______ _______ _____ _____    ______ ____
ROOT
ATOM      1  C   UNL     1      46.128   5.215  13.324  0.00  0.00    +0.000 C 
ATOM      2  C   UNL     1      46.078   4.322  14.558  0.00  0.00    +0.000 C 
ATOM      3  C   UNL     1      47.270   4.277  13.662  0.00  0.00    +0.000 C 
ENDROOT
BRANCH   1   8
ATOM      4  C   UNL     1      48.272   9.618  11.569  0.00  0.00    +0.000 A 
ATOM      5  C   UNL     1      48.850   8.355  11.679  0.00  0.00    +0.000 A 
ATOM      6  C   UNL     1      48.146   7.337  12.322  0.00  0.00    +0.000 A 
ATOM      7  C   UNL     1      46.884   7.593  12.848  0.00  0.00    +0.000 A 
ATOM      8  N   UNL     1      46.170   6.662  13.608  0.00  0.00    +0.000 N 
ATOM      9  N   UNL     1      46.311   8.811  12.740  0.00  0.00    +0.000 NA
ATOM     10  C   UNL     1      47.008   9.794  12.112  0.00  0.00    +0.000 A 
ATOM     11  H   UNL     1      45.265   7.099  13.781  0.00  0.00    +0.000 HD
BRANCH   4  13
ATOM     12  N   UNL     1      50.269  10.979  11.294  0.00  0.00    +0.000 N 
ATOM     13  C   UNL     1      48.956  10.775  10.955  0.00  0.00    +0.000 C 
ATOM     14  O   UNL     1      48.385  11.515  10.169  0.00  0.00    +0.000 OA
ATOM     15  H   UNL     1      50.745  11.731  10.814  0.00  0.00    +0.000 HD
ATOM     16  H   UNL     1      50.837  10.269  11.734  0.00  0.00    +0.000 HD
ENDBRANCH   4  13
ENDBRANCH   1   8
BRANCH   1  17
ATOM     17  C   UNL     1      45.231   4.869  12.138  0.00  0.00    +0.000 A 
ATOM     18  C   UNL     1      43.934   5.391  12.010  0.00  0.00    +0.000 A 
ATOM     19  C   UNL     1      43.167   5.150  10.871  0.00  0.00    +0.000 A 
ATOM     20  C   UNL     1      43.693   4.395   9.822  0.00  0.00    +0.000 A 
ATOM     21  C   UNL     1      44.989   3.863   9.887  0.00  0.00    +0.000 A 
ATOM     22  C   UNL     1      45.721   4.092  11.070  0.00  0.00    +0.000 A 
BRANCH  21  23
ATOM     23  C   UNL     1      45.608   3.169   8.734  0.00  0.00    +0.000 A 
ATOM     24  C   UNL     1      46.082   3.892   7.625  0.00  0.00    +0.000 A 
ATOM     25  C   UNL     1      46.737   3.259   6.564  0.00  0.00    +0.000 A 
ATOM     26  C   UNL     1      46.940   1.883   6.593  0.00  0.00    +0.000 A 
ATOM     27  C   UNL     1      46.473   1.139   7.672  0.00  0.00    +0.000 A 
ATOM     28  C   UNL     1      45.806   1.775   8.727  0.00  0.00    +0.000 A 
ENDBRANCH  21  23
ENDBRANCH   1  17
TORSDOF 4
ENDMDL
MODEL 4
REMARK VINA RESULT:    -6.816      4.718      8.264
REMARK INTER + INTRA:          -9.634
REMARK INTER:                  -8.563
REMARK INTRA:                  -1.070
REMARK UNBOUND:                -1.224
REMARK  Name = 
REMARK  4 active torsions:
REMARK  status: ('A' for Active; 'I' for Inactive)
REMARK    1  A    between atoms: C_2  and  C_4
REMARK    2  A    between atoms: N_8  and  C_9
REMARK    3  A    between atoms: C_9  and  C_10
REMARK    4  A    between atoms: C_14  and  C_15
REMARK                            x       y       z     vdW  Elec       q    Type
REMARK                         _______ _______ _______ _____ _____    ______ ____
ROOT
ATOM      1  C   UNL     1      49.039   7.904  12.673  0.00  0.00    +0.000 C 
ATOM      2  C   UNL     1      49.983   8.094  11.493  0.00  0.00    +0.000 C 
ATOM      3  C   UNL     1      49.679   9.248  12.387  0.00  0.00    +0.000 C 
ENDROOT
BRANCH   1   8
ATOM      4  C   UNL     1      48.427   6.839  17.729  0.00  0.00    +0.000 A 
ATOM      5  C   UNL     1      48.470   8.084  17.102  0.00  0.00    +0.000 A 
ATOM      6  C   UNL     1      48.797   8.154  15.749  0.00  0.00    +0.000 A 
ATOM      7  C   UNL     1      49.081   6.989  15.043  0.00  0.00    +0.000 A 
ATOM      8  N   UNL     1      49.533   6.989  13.720  0.00  0.00    +0.000 N 
ATOM      9  N   UNL     1      49.035   5.778  15.638  0.00  0.00    +0.000 NA
ATOM     10  C   UNL     1      48.716   5.724  16.958  0.00  0.00    +0.000 A 
ATOM     11  H   UNL     1      49.576   6.005  13.455  0.00  0.00    +0.000 HD
BRANCH   4  13
ATOM     12  N   UNL     1      47.205   5.726  19.513  0.00  0.00    +0.000 N 
ATOM     13  C   UNL     1      48.143   6.663  19.168  0.00  0.00    +0.000 C 
ATOM     14  O   UNL     1      48.727   7.314  20.021  0.00  0.00    +0.000 OA
ATOM     15  H   UNL     1      47.072   5.565  20.502  0.00  0.00    +0.000 HD
ATOM     16  H   UNL     1      46.887   5.010  18.874  0.00  0.00    +0.000 HD
ENDBRANCH   4  13
ENDBRANCH   1   8
BRANCH   1  17
ATOM     17  C   UNL     1      47.548   7.734  12.393  0.00  0.00    +0.000 A 
ATOM     18  C   UNL     1      46.620   8.751  12.667  0.00  0.00    +0.000 A 
ATOM     19  C   UNL     1      45.279   8.621  12.310  0.00  0.00    +0.000 A 
ATOM     20  C   UNL     1      44.841   7.474  11.648  0.00  0.00    +0.000 A 
ATOM     21  C   UNL     1      45.726   6.433  11.333  0.00  0.00    +0.000 A 
ATOM     22  C   UNL     1      47.066   6.579  11.745  0.00  0.00    +0.000 A 
BRANCH  21  23
ATOM     23  C   UNL     1      45.305   5.267  10.521  0.00  0.00    +0.000 A 
ATOM     24  C   UNL     1      45.691   5.147   9.174  0.00  0.00    +0.000 A 
ATOM     25  C   UNL     1      45.367   4.017   8.418  0.00  0.00    +0.000 A 
ATOM     26  C   UNL     1      44.652   2.974   8.996  0.00  0.00    +0.000 A 
ATOM     27  C   UNL     1      44.248   3.068  10.324  0.00  0.00    +0.000 A 
ATOM     28  C   UNL     1      44.563   4.207  11.075  0.00  0.00    +0.000 A 
ENDBRANCH  21  23
ENDBRANCH   1  17
TORSDOF 4
ENDMDL
MODEL 5
REMARK VINA RESULT:    -6.719      4.004      7.463
REMARK INTER + INTRA:          -9.515
REMARK INTER:                  -9.381
REMARK INTRA:                  -0.134
REMARK UNBOUND:                -1.224
REMARK  Name = 
REMARK  4 active torsions:
REMARK  status: ('A' for Active; 'I' for Inactive)
REMARK    1  A    between atoms: C_2  and  C_4
REMARK    2  A    between atoms: N_8  and  C_9
REMARK    3  A    between atoms: C_9  and  C_10
REMARK    4  A    between atoms: C_14  and  C_15
REMARK                            x       y       z     vdW  Elec       q    Type
REMARK                         _______ _______ _______ _____ _____    ______ ____
ROOT
ATOM      1  C   UNL     1      48.329   7.746  12.733  0.00  0.00    +0.000 C 
ATOM      2  C   UNL     1      49.509   7.177  11.955  0.00  0.00    +0.000 C 
ATOM      3  C   UNL     1      49.228   8.641  11.902  0.00  0.00    +0.000 C 
ENDROOT
BRANCH   1   8
ATOM      4  C   UNL     1      47.924   4.255  16.569  0.00  0.00    +0.000 A 
ATOM      5  C   UNL     1      47.128   4.394  15.433  0.00  0.00    +0.000 A 
ATOM      6  C   UNL     1      47.313   5.498  14.602  0.00  0.00    +0.000 A 
ATOM      7  C   UNL     1      48.281   6.446  14.915  0.00  0.00    +0.000 A 
ATOM      8  N   UNL     1      48.444   7.637  14.200  0.00  0.00    +0.000 N 
ATOM      9  N   UNL     1      49.063   6.318  16.009  0.00  0.00    +0.000 NA
ATOM     10  C   UNL     1      48.871   5.238  16.811  0.00  0.00    +0.000 A 
ATOM     11  H   UNL     1      49.267   8.080  14.607  0.00  0.00    +0.000 HD
BRANCH   4  13
ATOM     12  N   UNL     1      48.857   2.842  18.314  0.00  0.00    +0.000 N 
ATOM     13  C   UNL     1      47.770   3.152  17.541  0.00  0.00    +0.000 C 
ATOM     14  O   UNL     1      46.715   2.548  17.662  0.00  0.00    +0.000 OA
ATOM     15  H   UNL     1      48.717   2.134  19.023  0.00  0.00    +0.000 HD
ATOM     16  H   UNL     1      49.649   3.461  18.419  0.00  0.00    +0.000 HD
ENDBRANCH   4  13
ENDBRANCH   1   8
BRANCH   1  17
ATOM     17  C   UNL     1      46.917   7.463  12.226  0.00  0.00    +0.000 A 
ATOM     18  C   UNL     1      45.888   8.412  12.323  0.00  0.00    +0.000 A 
ATOM     19  C   UNL     1      44.633   8.178  11.763  0.00  0.00    +0.000 A 
ATOM     20  C   UNL     1      44.388   6.991  11.071  0.00  0.00    +0.000 A 
ATOM     21  C   UNL     1      45.384   6.014  10.927  0.00  0.00    +0.000 A 
ATOM     22  C   UNL     1      46.628   6.265  11.541  0.00  0.00    +0.000 A 
BRANCH  21  23
ATOM     23  C   UNL     1      45.181   4.808  10.091  0.00  0.00    +0.000 A 
ATOM     24  C   UNL     1      45.683   4.746   8.778  0.00  0.00    +0.000 A 
ATOM     25  C   UNL     1      45.566   3.588   8.004  0.00  0.00    +0.000 A 
ATOM     26  C   UNL     1      44.950   2.458   8.530  0.00  0.00    +0.000 A 
ATOM     27  C   UNL     1      44.435   2.492   9.822  0.00  0.00    +0.000 A 
ATOM     28  C   UNL     1      44.542   3.658  10.590  0.00  0.00    +0.000 A 
ENDBRANCH  21  23
ENDBRANCH   1  17
TORSDOF 4
ENDMDL
MODEL 6
REMARK VINA RESULT:    -6.330      3.460      5.933
REMARK INTER + INTRA:          -9.034
REMARK INTER:                  -8.570
REMARK INTRA:                  -0.464
REMARK UNBOUND:                -1.224
REMARK  Name = 
REMARK  4 active torsions:
REMARK  status: ('A' for Active; 'I' for Inactive)
REMARK    1  A    between atoms: C_2  and  C_4
REMARK    2  A    between atoms: N_8  and  C_9
REMARK    3  A    between atoms: C_9  and  C_10
REMARK    4  A    between atoms: C_14  and  C_15
REMARK                            x       y       z     vdW  Elec       q    Type
REMARK                         _______ _______ _______ _____ _____    ______ ____
ROOT
ATOM      1  C   UNL     1      47.388   8.484  13.234  0.00  0.00    +0.000 C 
ATOM      2  C   UNL     1      47.626   9.819  12.539  0.00  0.00    +0.000 C 
ATOM      3  C   UNL     1      48.260   8.581  11.998  0.00  0.00    +0.000 C 
ENDROOT
BRANCH   1   8
ATOM      4  C   UNL     1      44.505   4.593  11.332  0.00  0.00    +0.000 A 
ATOM      5  C   UNL     1      45.562   5.268  10.724  0.00  0.00    +0.000 A 
ATOM      6  C   UNL     1      46.104   6.390  11.350  0.00  0.00    +0.000 A 
ATOM      7  C   UNL     1      45.585   6.824  12.565  0.00  0.00    +0.000 A 
ATOM      8  N   UNL     1      45.993   8.005  13.193  0.00  0.00    +0.000 N 
ATOM      9  N   UNL     1      44.566   6.174  13.167  0.00  0.00    +0.000 NA
ATOM     10  C   UNL     1      44.046   5.083  12.545  0.00  0.00    +0.000 A 
ATOM     11  H   UNL     1      45.502   8.014  14.086  0.00  0.00    +0.000 HD
BRANCH   4  13
ATOM     12  N   UNL     1      44.141   3.128   9.426  0.00  0.00    +0.000 N 
ATOM     13  C   UNL     1      43.827   3.429  10.725  0.00  0.00    +0.000 C 
ATOM     14  O   UNL     1      43.028   2.752  11.355  0.00  0.00    +0.000 OA
ATOM     15  H   UNL     1      43.724   2.289   9.046  0.00  0.00    +0.000 HD
ATOM     16  H   UNL     1      44.958   3.498   8.960  0.00  0.00    +0.000 HD
ENDBRANCH   4  13
ENDBRANCH   1   8
BRANCH   1  17
ATOM     17  C   UNL     1      48.062   8.233  14.581  0.00  0.00    +0.000 A 
ATOM     18  C   UNL     1      48.287   9.267  15.502  0.00  0.00    +0.000 A 
ATOM     19  C   UNL     1      48.807   9.006  16.769  0.00  0.00    +0.000 A 
ATOM     20  C   UNL     1      49.094   7.694  17.149  0.00  0.00    +0.000 A 
ATOM     21  C   UNL     1      48.874   6.619  16.275  0.00  0.00    +0.000 A 
ATOM     22  C   UNL     1      48.386   6.924  14.989  0.00  0.00    +0.000 A 
BRANCH  21  23
ATOM     23  C   UNL     1      49.053   5.212  16.705  0.00  0.00    +0.000 A 
ATOM     24  C   UNL     1      48.082   4.238  16.414  0.00  0.00    +0.000 A 
ATOM     25  C   UNL     1      48.272   2.893  16.745  0.00  0.00    +0.000 A 
ATOM     26  C   UNL     1      49.446   2.490  17.371  0.00  0.00    +0.000 A 
ATOM     27  C   UNL     1      50.422   3.432  17.681  0.00  0.00    +0.000 A 
ATOM     28  C   UNL     1      50.222   4.781  17.359  0.00  0.00    +0.000 A 
ENDBRANCH  21  23
ENDBRANCH   1  17
TORSDOF 4
ENDMDL
MODEL 7
REMARK VINA RESULT:    -6.283      3.671      6.632
REMARK INTER + INTRA:          -8.977
REMARK INTER:                  -7.782
REMARK INTRA:                  -1.195
REMARK UNBOUND:                -1.224
REMARK  Name = 
REMARK  4 active torsions:
REMARK  status: ('A' for Active; 'I' for Inactive)
REMARK    1  A    between atoms: C_2  and  C_4
REMARK    2  A    between atoms: N_8  and  C_9
REMARK    3  A    between atoms: C_9  and  C_10
REMARK    4  A    between atoms: C_14  and  C_15
REMARK                            x       y       z     vdW  Elec       q    Type
REMARK                         _______ _______ _______ _____ _____    ______ ____
ROOT
ATOM      1  C   UNL     1      49.132   8.604  12.757  0.00  0.00    +0.000 C 
ATOM      2  C   UNL     1      50.327   9.404  12.254  0.00  0.00    +0.000 C 
ATOM      3  C   UNL     1      50.278   7.930  12.029  0.00  0.00    +0.000 C 
ENDROOT
BRANCH   1   8
ATOM      4  C   UNL     1      44.566   6.441  11.515  0.00  0.00    +0.000 A 
ATOM      5  C   UNL     1      45.840   5.879  11.448  0.00  0.00    +0.000 A 
ATOM      6  C   UNL     1      46.953   6.685  11.684  0.00  0.00    +0.000 A 
ATOM      7  C   UNL     1      46.782   8.034  11.975  0.00  0.00    +0.000 A 
ATOM      8  N   UNL     1      47.850   8.929  12.104  0.00  0.00    +0.000 N 
ATOM      9  N   UNL     1      45.553   8.588  12.049  0.00  0.00    +0.000 NA
ATOM     10  C   UNL     1      44.477   7.792  11.816  0.00  0.00    +0.000 A 
ATOM     11  H   UNL     1      47.424   9.809  12.392  0.00  0.00    +0.000 HD
BRANCH   4  13
ATOM     12  N   UNL     1      42.155   6.197  11.720  0.00  0.00    +0.000 N 
ATOM     13  C   UNL     1      43.328   5.686  11.229  0.00  0.00    +0.000 C 
ATOM     14  O   UNL     1      43.342   4.656  10.572  0.00  0.00    +0.000 OA
ATOM     15  H   UNL     1      41.309   5.710  11.458  0.00  0.00    +0.000 HD
ATOM     16  H   UNL     1      42.067   7.149  12.046  0.00  0.00    +0.000 HD
ENDBRANCH   4  13
ENDBRANCH   1   8
BRANCH   1  17
ATOM     17  C   UNL     1      48.990   8.373  14.260  0.00  0.00    +0.000 A 
ATOM     18  C   UNL     1      48.607   9.400  15.136  0.00  0.00    +0.000 A 
ATOM     19  C   UNL     1      48.380   9.149  16.489  0.00  0.00    +0.000 A 
ATOM     20  C   UNL     1      48.513   7.854  16.990  0.00  0.00    +0.000 A 
ATOM     21  C   UNL     1      48.877   6.785  16.158  0.00  0.00    +0.000 A 
ATOM     22  C   UNL     1      49.138   7.082  14.805  0.00  0.00    +0.000 A 
BRANCH  21  23
ATOM     23  C   UNL     1      48.899   5.386  16.646  0.00  0.00    +0.000 A 
ATOM     24  C   UNL     1      47.804   4.530  16.432  0.00  0.00    +0.000 A 
ATOM     25  C   UNL     1      47.841   3.186  16.818  0.00  0.00    +0.000 A 
ATOM     26  C   UNL     1      48.980   2.666  17.422  0.00  0.00    +0.000 A 
ATOM     27  C   UNL     1      50.075   3.492  17.656  0.00  0.00    +0.000 A 
ATOM     28  C   UNL     1      50.030   4.840  17.279  0.00  0.00    +0.000 A 
ENDBRANCH  21  23
ENDBRANCH   1  17
TORSDOF 4
ENDMDL
