MODEL 1
REMARK VINA RESULT:    -9.104      0.000      0.000
REMARK INTER + INTRA:         -13.560
REMARK INTER:                 -12.829
REMARK INTRA:                  -0.731
REMARK UNBOUND:                -0.731
REMARK  Name = 
REMARK  7 active torsions:
REMARK  status: ('A' for Active; 'I' for Inactive)
REMARK    1  A    between atoms: C_2  and  C_4
REMARK    2  A    between atoms: N_8  and  C_9
REMARK    3  A    between atoms: C_9  and  C_10
REMARK    4  A    between atoms: C_10  and  C_11
REMARK    5  A    between atoms: C_15  and  O_16
REMARK    6  A    between atoms: O_16  and  C_17
REMARK    7  A    between atoms: C_19  and  C_20
REMARK                            x       y       z     vdW  Elec       q    Type
REMARK                         _______ _______ _______ _____ _____    ______ ____
ROOT
ATOM      1  C   UNL     1      43.611   5.533  12.177  0.00  0.00    +0.000 C 
ENDROOT
BRANCH   1   2
ATOM      2  C   UNL     1      45.089   5.705  12.487  0.00  0.00    +0.000 A 
ATOM      3  C   UNL     1      45.887   6.702  11.907  0.00  0.00    +0.000 A 
ATOM      4  C   UNL     1      47.238   6.824  12.228  0.00  0.00    +0.000 A 
ATOM      5  C   UNL     1      47.824   5.950  13.138  0.00  0.00    +0.000 A 
ATOM      6  C   UNL     1      47.055   4.946  13.720  0.00  0.00    +0.000 A 
ATOM      7  C   UNL     1      45.697   4.828  13.400  0.00  0.00    +0.000 A 
BRANCH   6   8
ATOM      8  O   UNL     1      47.526   4.048  14.643  0.00  0.00    +0.000 OA
BRANCH   8   9
ATOM      9  C   UNL     1      47.510   4.407  16.041  0.00  0.00    +0.000 C 
ATOM     10  C   UNL     1      48.625   5.361  16.532  0.00  0.00    +0.000 C 
ATOM     11  C   UNL     1      48.906   4.402  17.715  0.00  0.00    +0.000 C 
ATOM     12  C   UNL     1      48.104   3.321  16.958  0.00  0.00    +0.000 C 
BRANCH  11  13
ATOM     13  C   UNL     1      48.391   4.803  19.080  0.00  0.00    +0.000 C 
ATOM     14  F   UNL     1      47.130   5.285  19.018  0.00  0.00    +0.000 F 
ATOM     15  F   UNL     1      48.393   3.755  19.934  0.00  0.00    +0.000 F 
ATOM     16  F   UNL     1      49.179   5.766  19.610  0.00  0.00    +0.000 F 
ENDBRANCH  11  13
ENDBRANCH   8   9
ENDBRANCH   6   8
ENDBRANCH   1   2
BRANCH   1  17
ATOM     17  C   UNL     1      43.304   4.403  11.187  0.00  0.00    +0.000 C 
BRANCH  17  22
ATOM     18  C   UNL     1      46.455   2.467   7.762  0.00  0.00    +0.000 A 
ATOM     19  C   UNL     1      45.640   1.822   8.681  0.00  0.00    +0.000 A 
ATOM     20  C   UNL     1      44.709   2.571   9.397  0.00  0.00    +0.000 A 
ATOM     21  C   UNL     1      44.627   3.950   9.204  0.00  0.00    +0.000 A 
ATOM     22  N   UNL     1      43.665   4.744   9.821  0.00  0.00    +0.000 N 
ATOM     23  N   UNL     1      45.446   4.591   8.350  0.00  0.00    +0.000 NA
ATOM     24  C   UNL     1      46.344   3.843   7.649  0.00  0.00    +0.000 A 
ATOM     25  H   UNL     1      43.929   5.713   9.650  0.00  0.00    +0.000 HD
BRANCH  18  27
ATOM     26  N   UNL     1      48.515   2.435   6.479  0.00  0.00    +0.000 N 
ATOM     27  C   UNL     1      47.413   1.743   6.906  0.00  0.00    +0.000 C 
ATOM     28  O   UNL     1      47.255   0.567   6.622  0.00  0.00    +0.000 OA
ATOM     29  H   UNL     1      49.224   1.892   5.998  0.00  0.00    +0.000 HD
ATOM     30  H   UNL     1      48.809   3.300   6.909  0.00  0.00    +0.000 HD
ENDBRANCH  18  27
ENDBRANCH  17  22
ENDBRANCH   1  17
TORSDOF 7
ENDMDL
MODEL 2
REMARK VINA RESULT:    -8.354      3.568      4.655
REMARK INTER + INTRA:         -12.504
REMARK INTER:                 -11.710
REMARK INTRA:                  -0.794
REMARK UNBOUND:                -0.731
REMARK  Name = 
REMARK  7 active torsions:
REMARK  status: ('A' for Active; 'I' for Inactive)
REMARK    1  A    between atoms: C_2  and  C_4
REMARK    2  A    between atoms: N_8  and  C_9
REMARK    3  A    between atoms: C_9  and  C_10
REMARK    4  A    between atoms: C_10  and  C_11
REMARK    5  A    between atoms: C_15  and  O_16
REMARK    6  A    between atoms: O_16  and  C_17
REMARK    7  A    between atoms: C_19  and  C_20
REMARK                            x       y       z     vdW  Elec       q    Type
REMARK                         _______ _______ _______ _____ _____    ______ ____
ROOT
ATOM      1  C   UNL     1      43.748   5.761  11.927  0.00  0.00    +0.000 C 
ENDROOT
BRANCH   1   2
ATOM      2  C   UNL     1      45.064   5.478  12.633  0.00  0.00    +0.000 A 
ATOM      3  C   UNL     1      45.478   4.190  13.002  0.00  0.00    +0.000 A 
ATOM      4  C   UNL     1      46.698   3.980  13.644  0.00  0.00    +0.000 A 
ATOM      5  C   UNL     1      47.534   5.054  13.931  0.00  0.00    +0.000 A 
ATOM      6  C   UNL     1      47.140   6.343  13.583  0.00  0.00    +0.000 A 
ATOM      7  C   UNL     1      45.917   6.552  12.935  0.00  0.00    +0.000 A 
BRANCH   6   8
ATOM      8  O   UNL     1      47.894   7.467  13.799  0.00  0.00    +0.000 OA
BRANCH   8   9
ATOM      9  C   UNL     1      49.172   7.591  13.139  0.00  0.00    +0.000 C 
ATOM     10  C   UNL     1      49.763   9.016  13.016  0.00  0.00    +0.000 C 
ATOM     11  C   UNL     1      50.031   8.761  11.512  0.00  0.00    +0.000 C 
ATOM     12  C   UNL     1      49.072   7.554  11.601  0.00  0.00    +0.000 C 
BRANCH  11  13
ATOM     13  C   UNL     1      51.456   8.470  11.094  0.00  0.00    +0.000 C 
ATOM     14  F   UNL     1      51.948   9.435  10.285  0.00  0.00    +0.000 F 
ATOM     15  F   UNL     1      52.273   8.371  12.166  0.00  0.00    +0.000 F 
ATOM     16  F   UNL     1      51.513   7.297  10.424  0.00  0.00    +0.000 F 
ENDBRANCH  11  13
ENDBRANCH   8   9
ENDBRANCH   6   8
ENDBRANCH   1   2
BRANCH   1  17
ATOM     17  C   UNL     1      43.285   4.642  10.988  0.00  0.00    +0.000 C 
BRANCH  17  22
ATOM     18  C   UNL     1      46.384   2.311   7.767  0.00  0.00    +0.000 A 
ATOM     19  C   UNL     1      45.521   1.775   8.713  0.00  0.00    +0.000 A 
ATOM     20  C   UNL     1      44.619   2.620   9.356  0.00  0.00    +0.000 A 
ATOM     21  C   UNL     1      44.613   3.984   9.068  0.00  0.00    +0.000 A 
ATOM     22  N   UNL     1      43.686   4.868   9.609  0.00  0.00    +0.000 N 
ATOM     23  N   UNL     1      45.479   4.521   8.188  0.00  0.00    +0.000 NA
ATOM     24  C   UNL     1      46.348   3.680   7.559  0.00  0.00    +0.000 A 
ATOM     25  H   UNL     1      44.003   5.808   9.377  0.00  0.00    +0.000 HD
BRANCH  18  27
ATOM     26  N   UNL     1      48.493   2.063   6.593  0.00  0.00    +0.000 N 
ATOM     27  C   UNL     1      47.316   1.481   6.982  0.00  0.00    +0.000 C 
ATOM     28  O   UNL     1      47.070   0.314   6.725  0.00  0.00    +0.000 OA
ATOM     29  H   UNL     1      49.174   1.446   6.164  0.00  0.00    +0.000 HD
ATOM     30  H   UNL     1      48.839   2.913   7.013  0.00  0.00    +0.000 HD
ENDBRANCH  18  27
ENDBRANCH  17  22
ENDBRANCH   1  17
TORSDOF 7
ENDMDL
MODEL 3
REMARK VINA RESULT:    -7.822      5.387      9.179
REMARK INTER + INTRA:         -11.754
REMARK INTER:                 -11.395
REMARK INTRA:                  -0.359
REMARK UNBOUND:                -0.731
REMARK  Name = 
REMARK  7 active torsions:
REMARK  status: ('A' for Active; 'I' for Inactive)
REMARK    1  A    between atoms: C_2  and  C_4
REMARK    2  A    between atoms: N_8  and  C_9
REMARK    3  A    between atoms: C_9  and  C_10
REMARK    4  A    between atoms: C_10  and  C_11
REMARK    5  A    between atoms: C_15  and  O_16
REMARK    6  A    between atoms: O_16  and  C_17
REMARK    7  A    between atoms: C_19  and  C_20
REMARK                            x       y       z     vdW  Elec       q    Type
REMARK                         _______ _______ _______ _____ _____    ______ ____
ROOT
ATOM      1  C   UNL     1      46.533   6.479  12.299  0.00  0.00    +0.000 C 
ENDROOT
BRANCH   1   2
ATOM      2  C   UNL     1      45.242   5.710  12.068  0.00  0.00    +0.000 A 
ATOM      3  C   UNL     1      44.069   5.936  12.802  0.00  0.00    +0.000 A 
ATOM      4  C   UNL     1      42.907   5.207  12.548  0.00  0.00    +0.000 A 
ATOM      5  C   UNL     1      42.892   4.234  11.555  0.00  0.00    +0.000 A 
ATOM      6  C   UNL     1      44.048   3.985  10.820  0.00  0.00    +0.000 A 
ATOM      7  C   UNL     1      45.212   4.720  11.072  0.00  0.00    +0.000 A 
BRANCH   6   8
ATOM      8  O   UNL     1      44.136   3.066   9.806  0.00  0.00    +0.000 OA
BRANCH   8   9
ATOM      9  C   UNL     1      45.358   2.984   9.041  0.00  0.00    +0.000 C 
ATOM     10  C   UNL     1      45.302   3.482   7.576  0.00  0.00    +0.000 C 
ATOM     11  C   UNL     1      45.997   2.175   7.120  0.00  0.00    +0.000 C 
ATOM     12  C   UNL     1      45.645   1.571   8.497  0.00  0.00    +0.000 C 
BRANCH  11  13
ATOM     13  C   UNL     1      47.465   2.249   6.763  0.00  0.00    +0.000 C 
ATOM     14  F   UNL     1      47.660   2.185   5.427  0.00  0.00    +0.000 F 
ATOM     15  F   UNL     1      48.022   3.398   7.208  0.00  0.00    +0.000 F 
ATOM     16  F   UNL     1      48.134   1.221   7.332  0.00  0.00    +0.000 F 
ENDBRANCH  11  13
ENDBRANCH   8   9
ENDBRANCH   6   8
ENDBRANCH   1   2
BRANCH   1  17
ATOM     17  C   UNL     1      47.501   5.803  13.276  0.00  0.00    +0.000 C 
BRANCH  17  22
ATOM     18  C   UNL     1      48.707   4.559  18.010  0.00  0.00    +0.000 A 
ATOM     19  C   UNL     1      49.009   5.706  17.290  0.00  0.00    +0.000 A 
ATOM     20  C   UNL     1      48.399   5.906  16.054  0.00  0.00    +0.000 A 
ATOM     21  C   UNL     1      47.522   4.947  15.546  0.00  0.00    +0.000 A 
ATOM     22  N   UNL     1      46.815   5.122  14.361  0.00  0.00    +0.000 N 
ATOM     23  N   UNL     1      47.260   3.809  16.215  0.00  0.00    +0.000 NA
ATOM     24  C   UNL     1      47.856   3.633  17.427  0.00  0.00    +0.000 A 
ATOM     25  H   UNL     1      46.390   4.224  14.136  0.00  0.00    +0.000 HD
BRANCH  18  27
ATOM     26  N   UNL     1      48.461   3.576  20.215  0.00  0.00    +0.000 N 
ATOM     27  C   UNL     1      49.244   4.303  19.359  0.00  0.00    +0.000 C 
ATOM     28  O   UNL     1      50.356   4.684  19.686  0.00  0.00    +0.000 OA
ATOM     29  H   UNL     1      48.893   3.302  21.091  0.00  0.00    +0.000 HD
ATOM     30  H   UNL     1      47.678   3.025  19.894  0.00  0.00    +0.000 HD
ENDBRANCH  18  27
ENDBRANCH  17  22
ENDBRANCH   1  17
TORSDOF 7
ENDMDL
MODEL 4
REMARK VINA RESULT:    -7.815      5.851      9.293
REMARK INTER + INTRA:         -11.744
REMARK INTER:                 -11.216
REMARK INTRA:                  -0.528
REMARK UNBOUND:                -0.731
REMARK  Name = 
REMARK  7 active torsions:
REMARK  status: ('A' for Active; 'I' for Inactive)
REMARK    1  A    between atoms: C_2  and  C_4
REMARK    2  A    between atoms: N_8  and  C_9
REMARK    3  A    between atoms: C_9  and  C_10
REMARK    4  A    between atoms: C_10  and  C_11
REMARK    5  A    between atoms: C_15  and  O_16
REMARK    6  A    between atoms: O_16  and  C_17
REMARK    7  A    between atoms: C_19  and  C_20
REMARK                            x       y       z     vdW  Elec       q    Type
REMARK                         _______ _______ _______ _____ _____    ______ ____
ROOT
ATOM      1  C   UNL     1      46.936   4.423  13.814  0.00  0.00    +0.000 C 
ENDROOT
BRANCH   1   2
ATOM      2  C   UNL     1      45.597   4.334  13.099  0.00  0.00    +0.000 A 
ATOM      3  C   UNL     1      44.442   4.995  13.542  0.00  0.00    +0.000 A 
ATOM      4  C   UNL     1      43.237   4.887  12.848  0.00  0.00    +0.000 A 
ATOM      5  C   UNL     1      43.159   4.115  11.694  0.00  0.00    +0.000 A 
ATOM      6  C   UNL     1      44.290   3.442  11.239  0.00  0.00    +0.000 A 
ATOM      7  C   UNL     1      45.500   3.555  11.935  0.00  0.00    +0.000 A 
BRANCH   6   8
ATOM      8  O   UNL     1      44.330   2.674  10.104  0.00  0.00    +0.000 OA
BRANCH   8   9
ATOM      9  C   UNL     1      45.392   2.889   9.151  0.00  0.00    +0.000 C 
ATOM     10  C   UNL     1      44.989   3.460   7.769  0.00  0.00    +0.000 C 
ATOM     11  C   UNL     1      45.825   2.351   7.083  0.00  0.00    +0.000 C 
ATOM     12  C   UNL     1      45.839   1.601   8.432  0.00  0.00    +0.000 C 
BRANCH  11  13
ATOM     13  C   UNL     1      47.168   2.742   6.506  0.00  0.00    +0.000 C 
ATOM     14  F   UNL     1      47.721   3.776   7.179  0.00  0.00    +0.000 F 
ATOM     15  F   UNL     1      48.039   1.709   6.544  0.00  0.00    +0.000 F 
ATOM     16  F   UNL     1      47.028   3.114   5.213  0.00  0.00    +0.000 F 
ENDBRANCH  11  13
ENDBRANCH   8   9
ENDBRANCH   6   8
ENDBRANCH   1   2
BRANCH   1  17
ATOM     17  C   UNL     1      46.834   4.403  15.344  0.00  0.00    +0.000 C 
BRANCH  17  22
ATOM     18  C   UNL     1      51.099   2.832  17.521  0.00  0.00    +0.000 A 
ATOM     19  C   UNL     1      50.449   4.053  17.624  0.00  0.00    +0.000 A 
ATOM     20  C   UNL     1      49.176   4.186  17.076  0.00  0.00    +0.000 A 
ATOM     21  C   UNL     1      48.586   3.110  16.412  0.00  0.00    +0.000 A 
ATOM     22  N   UNL     1      47.287   3.147  15.917  0.00  0.00    +0.000 N 
ATOM     23  N   UNL     1      49.229   1.936  16.266  0.00  0.00    +0.000 NA
ATOM     24  C   UNL     1      50.469   1.818  16.817  0.00  0.00    +0.000 A 
ATOM     25  H   UNL     1      47.167   2.315  15.341  0.00  0.00    +0.000 HD
BRANCH  18  27
ATOM     26  N   UNL     1      52.711   1.281  18.462  0.00  0.00    +0.000 N 
ATOM     27  C   UNL     1      52.414   2.577  18.139  0.00  0.00    +0.000 C 
ATOM     28  O   UNL     1      53.221   3.476  18.316  0.00  0.00    +0.000 OA
ATOM     29  H   UNL     1      53.662   1.104  18.769  0.00  0.00    +0.000 HD
ATOM     30  H   UNL     1      52.195   0.499  18.087  0.00  0.00    +0.000 HD
ENDBRANCH  18  27
ENDBRANCH  17  22
ENDBRANCH   1  17
TORSDOF 7
ENDMDL
MODEL 5
REMARK VINA RESULT:    -7.804      5.149      8.385
REMARK INTER + INTRA:         -11.728
REMARK INTER:                 -10.917
REMARK INTRA:                  -0.811
REMARK UNBOUND:                -0.731
REMARK  Name = 
REMARK  7 active torsions:
REMARK  status: ('A' for Active; 'I' for Inactive)
REMARK    1  A    between atoms: C_2  and  C_4
REMARK    2  A    between atoms: N_8  and  C_9
REMARK    3  A    between atoms: C_9  and  C_10
REMARK    4  A    between atoms: C_10  and  C_11
REMARK    5  A    between atoms: C_15  and  O_16
REMARK    6  A    between atoms: O_16  and  C_17
REMARK    7  A    between atoms: C_19  and  C_20
REMARK                            x       y       z     vdW  Elec       q    Type
REMARK                         _______ _______ _______ _____ _____    ______ ____
ROOT
ATOM      1  C   UNL     1      46.080   7.233  11.858  0.00  0.00    +0.000 C 
ENDROOT
BRANCH   1   2
ATOM      2  C   UNL     1      44.993   6.171  11.906  0.00  0.00    +0.000 A 
ATOM      3  C   UNL     1      43.996   6.135  12.892  0.00  0.00    +0.000 A 
ATOM      4  C   UNL     1      43.016   5.142  12.891  0.00  0.00    +0.000 A 
ATOM      5  C   UNL     1      43.010   4.163  11.903  0.00  0.00    +0.000 A 
ATOM      6  C   UNL     1      43.996   4.173  10.920  0.00  0.00    +0.000 A 
ATOM      7  C   UNL     1      44.976   5.173  10.920  0.00  0.00    +0.000 A 
BRANCH   6   8
ATOM      8  O   UNL     1      44.071   3.271   9.890  0.00  0.00    +0.000 OA
BRANCH   8   9
ATOM      9  C   UNL     1      45.274   3.215   9.095  0.00  0.00    +0.000 C 
ATOM     10  C   UNL     1      45.140   3.577   7.596  0.00  0.00    +0.000 C 
ATOM     11  C   UNL     1      45.923   2.292   7.229  0.00  0.00    +0.000 C 
ATOM     12  C   UNL     1      45.657   1.786   8.664  0.00  0.00    +0.000 C 
BRANCH  11  13
ATOM     13  C   UNL     1      47.371   2.446   6.819  0.00  0.00    +0.000 C 
ATOM     14  F   UNL     1      47.894   3.614   7.253  0.00  0.00    +0.000 F 
ATOM     15  F   UNL     1      48.132   1.443   7.310  0.00  0.00    +0.000 F 
ATOM     16  F   UNL     1      47.477   2.419   5.471  0.00  0.00    +0.000 F 
ENDBRANCH  11  13
ENDBRANCH   8   9
ENDBRANCH   6   8
ENDBRANCH   1   2
BRANCH   1  17
ATOM     17  C   UNL     1      47.468   6.696  11.492  0.00  0.00    +0.000 C 
BRANCH  17  22
ATOM     18  C   UNL     1      47.572   4.457  16.007  0.00  0.00    +0.000 A 
ATOM     19  C   UNL     1      47.156   3.960  14.780  0.00  0.00    +0.000 A 
ATOM     20  C   UNL     1      47.403   4.709  13.632  0.00  0.00    +0.000 A 
ATOM     21  C   UNL     1      48.033   5.949  13.730  0.00  0.00    +0.000 A 
ATOM     22  N   UNL     1      48.386   6.708  12.619  0.00  0.00    +0.000 N 
ATOM     23  N   UNL     1      48.397   6.461  14.921  0.00  0.00    +0.000 NA
ATOM     24  C   UNL     1      48.158   5.712  16.034  0.00  0.00    +0.000 A 
ATOM     25  H   UNL     1      48.668   7.624  12.965  0.00  0.00    +0.000 HD
BRANCH  18  27
ATOM     26  N   UNL     1      48.352   3.925  18.243  0.00  0.00    +0.000 N 
ATOM     27  C   UNL     1      47.422   3.699  17.263  0.00  0.00    +0.000 C 
ATOM     28  O   UNL     1      46.488   2.935  17.440  0.00  0.00    +0.000 OA
ATOM     29  H   UNL     1      48.166   3.493  19.142  0.00  0.00    +0.000 HD
ATOM     30  H   UNL     1      48.960   4.731  18.235  0.00  0.00    +0.000 HD
ENDBRANCH  18  27
ENDBRANCH  17  22
ENDBRANCH   1  17
TORSDOF 7
ENDMDL
MODEL 6
REMARK VINA RESULT:    -7.760      4.489      5.205
REMARK INTER + INTRA:         -11.666
REMARK INTER:                 -11.053
REMARK INTRA:                  -0.613
REMARK UNBOUND:                -0.731
REMARK  Name = 
REMARK  7 active torsions:
REMARK  status: ('A' for Active; 'I' for Inactive)
REMARK    1  A    between atoms: C_2  and  C_4
REMARK    2  A    between atoms: N_8  and  C_9
REMARK    3  A    between atoms: C_9  and  C_10
REMARK    4  A    between atoms: C_10  and  C_11
REMARK    5  A    between atoms: C_15  and  O_16
REMARK    6  A    between atoms: O_16  and  C_17
REMARK    7  A    between atoms: C_19  and  C_20
REMARK                            x       y       z     vdW  Elec       q    Type
REMARK                         _______ _______ _______ _____ _____    ______ ____
ROOT
ATOM      1  C   UNL     1      44.650   4.514  12.194  0.00  0.00    +0.000 C 
ENDROOT
BRANCH   1   2
ATOM      2  C   UNL     1      45.357   5.860  12.226  0.00  0.00    +0.000 A 
ATOM      3  C   UNL     1      44.677   7.086  12.217  0.00  0.00    +0.000 A 
ATOM      4  C   UNL     1      45.370   8.296  12.252  0.00  0.00    +0.000 A 
ATOM      5  C   UNL     1      46.760   8.307  12.297  0.00  0.00    +0.000 A 
ATOM      6  C   UNL     1      47.457   7.102  12.298  0.00  0.00    +0.000 A 
ATOM      7  C   UNL     1      46.760   5.888  12.267  0.00  0.00    +0.000 A 
BRANCH   6   8
ATOM      8  O   UNL     1      48.823   6.998  12.362  0.00  0.00    +0.000 OA
BRANCH   8   9
ATOM      9  C   UNL     1      49.632   7.970  11.667  0.00  0.00    +0.000 C 
ATOM     10  C   UNL     1      50.796   7.425  10.804  0.00  0.00    +0.000 C 
ATOM     11  C   UNL     1      51.750   8.448  11.469  0.00  0.00    +0.000 C 
ATOM     12  C   UNL     1      50.684   8.647  12.568  0.00  0.00    +0.000 C 
BRANCH  11  13
ATOM     13  C   UNL     1      52.138   9.670  10.665  0.00  0.00    +0.000 C 
ATOM     14  F   UNL     1      51.054  10.366  10.257  0.00  0.00    +0.000 F 
ATOM     15  F   UNL     1      52.920  10.504  11.385  0.00  0.00    +0.000 F 
ATOM     16  F   UNL     1      52.834   9.301   9.566  0.00  0.00    +0.000 F 
ENDBRANCH  11  13
ENDBRANCH   8   9
ENDBRANCH   6   8
ENDBRANCH   1   2
BRANCH   1  17
ATOM     17  C   UNL     1      43.463   4.450  11.226  0.00  0.00    +0.000 C 
BRANCH  17  22
ATOM     18  C   UNL     1      46.475   2.492   7.689  0.00  0.00    +0.000 A 
ATOM     19  C   UNL     1      45.637   1.854   8.592  0.00  0.00    +0.000 A 
ATOM     20  C   UNL     1      44.753   2.621   9.348  0.00  0.00    +0.000 A 
ATOM     21  C   UNL     1      44.741   4.009   9.211  0.00  0.00    +0.000 A 
ATOM     22  N   UNL     1      43.828   4.826   9.871  0.00  0.00    +0.000 N 
ATOM     23  N   UNL     1      45.583   4.641   8.373  0.00  0.00    +0.000 NA
ATOM     24  C   UNL     1      46.434   3.876   7.633  0.00  0.00    +0.000 A 
ATOM     25  H   UNL     1      44.140   5.786   9.734  0.00  0.00    +0.000 HD
BRANCH  18  27
ATOM     26  N   UNL     1      48.441   2.451   6.267  0.00  0.00    +0.000 N 
ATOM     27  C   UNL     1      47.385   1.756   6.793  0.00  0.00    +0.000 C 
ATOM     28  O   UNL     1      47.231   0.567   6.563  0.00  0.00    +0.000 OA
ATOM     29  H   UNL     1      49.125   1.904   5.756  0.00  0.00    +0.000 HD
ATOM     30  H   UNL     1      48.746   3.336   6.645  0.00  0.00    +0.000 HD
ENDBRANCH  18  27
ENDBRANCH  17  22
ENDBRANCH   1  17
TORSDOF 7
ENDMDL
MODEL 7
REMARK VINA RESULT:    -7.623      2.299      2.890
REMARK INTER + INTRA:         -11.473
REMARK INTER:                 -11.022
REMARK INTRA:                  -0.451
REMARK UNBOUND:                -0.731
REMARK  Name = 
REMARK  7 active torsions:
REMARK  status: ('A' for Active; 'I' for Inactive)
REMARK    1  A    between atoms: C_2  and  C_4
REMARK    2  A    between atoms: N_8  and  C_9
REMARK    3  A    between atoms: C_9  and  C_10
REMARK    4  A    between atoms: C_10  and  C_11
REMARK    5  A    between atoms: C_15  and  O_16
REMARK    6  A    between atoms: O_16  and  C_17
REMARK    7  A    between atoms: C_19  and  C_20
REMARK                            x       y       z     vdW  Elec       q    Type
REMARK                         _______ _______ _______ _____ _____    ______ ____
ROOT
ATOM      1  C   UNL     1      44.594   4.745  12.145  0.00  0.00    +0.000 C 
ENDROOT
BRANCH   1   2
ATOM      2  C   UNL     1      45.254   6.113  12.085  0.00  0.00    +0.000 A 
ATOM      3  C   UNL     1      44.534   7.317  12.119  0.00  0.00    +0.000 A 
ATOM      4  C   UNL     1      45.185   8.549  12.067  0.00  0.00    +0.000 A 
ATOM      5  C   UNL     1      46.572   8.606  11.980  0.00  0.00    +0.000 A 
ATOM      6  C   UNL     1      47.307   7.425  11.935  0.00  0.00    +0.000 A 
ATOM      7  C   UNL     1      46.652   6.189  11.992  0.00  0.00    +0.000 A 
BRANCH   6   8
ATOM      8  O   UNL     1      48.675   7.368  11.872  0.00  0.00    +0.000 OA
BRANCH   8   9
ATOM      9  C   UNL     1      49.420   7.081  13.074  0.00  0.00    +0.000 C 
ATOM     10  C   UNL     1      48.604   6.670  14.323  0.00  0.00    +0.000 C 
ATOM     11  C   UNL     1      49.395   7.703  15.164  0.00  0.00    +0.000 C 
ATOM     12  C   UNL     1      49.857   8.346  13.839  0.00  0.00    +0.000 C 
BRANCH  11  13
ATOM     13  C   UNL     1      50.477   7.178  16.082  0.00  0.00    +0.000 C 
ATOM     14  F   UNL     1      50.782   8.064  17.056  0.00  0.00    +0.000 F 
ATOM     15  F   UNL     1      50.102   6.022  16.675  0.00  0.00    +0.000 F 
ATOM     16  F   UNL     1      51.604   6.930  15.377  0.00  0.00    +0.000 F 
ENDBRANCH  11  13
ENDBRANCH   8   9
ENDBRANCH   6   8
ENDBRANCH   1   2
BRANCH   1  17
ATOM     17  C   UNL     1      43.457   4.550  11.135  0.00  0.00    +0.000 C 
BRANCH  17  22
ATOM     18  C   UNL     1      46.500   2.501   7.679  0.00  0.00    +0.000 A 
ATOM     19  C   UNL     1      45.640   1.887   8.578  0.00  0.00    +0.000 A 
ATOM     20  C   UNL     1      44.754   2.677   9.308  0.00  0.00    +0.000 A 
ATOM     21  C   UNL     1      44.760   4.062   9.149  0.00  0.00    +0.000 A 
ATOM     22  N   UNL     1      43.848   4.901   9.781  0.00  0.00    +0.000 N 
ATOM     23  N   UNL     1      45.624   4.670   8.314  0.00  0.00    +0.000 NA
ATOM     24  C   UNL     1      46.477   3.884   7.600  0.00  0.00    +0.000 A 
ATOM     25  H   UNL     1      44.174   5.855   9.634  0.00  0.00    +0.000 HD
BRANCH  18  27
ATOM     26  N   UNL     1      48.523   2.394   6.343  0.00  0.00    +0.000 N 
ATOM     27  C   UNL     1      47.415   1.739   6.809  0.00  0.00    +0.000 C 
ATOM     28  O   UNL     1      47.218   0.563   6.549  0.00  0.00    +0.000 OA
ATOM     29  H   UNL     1      49.204   1.825   5.852  0.00  0.00    +0.000 HD
ATOM     30  H   UNL     1      48.851   3.257   6.752  0.00  0.00    +0.000 HD
ENDBRANCH  18  27
ENDBRANCH  17  22
ENDBRANCH   1  17
TORSDOF 7
ENDMDL
MODEL 8
REMARK VINA RESULT:    -7.432      3.240      4.335
REMARK INTER + INTRA:         -11.204
REMARK INTER:                 -10.670
REMARK INTRA:                  -0.534
REMARK UNBOUND:                -0.731
REMARK  Name = 
REMARK  7 active torsions:
REMARK  status: ('A' for Active; 'I' for Inactive)
REMARK    1  A    between atoms: C_2  and  C_4
REMARK    2  A    between atoms: N_8  and  C_9
REMARK    3  A    between atoms: C_9  and  C_10
REMARK    4  A    between atoms: C_10  and  C_11
REMARK    5  A    between atoms: C_15  and  O_16
REMARK    6  A    between atoms: O_16  and  C_17
REMARK    7  A    between atoms: C_19  and  C_20
REMARK                            x       y       z     vdW  Elec       q    Type
REMARK                         _______ _______ _______ _____ _____    ______ ____
ROOT
ATOM      1  C   UNL     1      43.492   5.161  12.251  0.00  0.00    +0.000 C 
ENDROOT
BRANCH   1   2
ATOM      2  C   UNL     1      44.906   5.458  12.723  0.00  0.00    +0.000 A 
ATOM      3  C   UNL     1      45.630   4.606  13.571  0.00  0.00    +0.000 A 
ATOM      4  C   UNL     1      46.928   4.919  13.972  0.00  0.00    +0.000 A 
ATOM      5  C   UNL     1      47.534   6.092  13.535  0.00  0.00    +0.000 A 
ATOM      6  C   UNL     1      46.832   6.958  12.701  0.00  0.00    +0.000 A 
ATOM      7  C   UNL     1      45.531   6.640  12.295  0.00  0.00    +0.000 A 
BRANCH   6   8
ATOM      8  O   UNL     1      47.341   8.126  12.196  0.00  0.00    +0.000 OA
BRANCH   8   9
ATOM      9  C   UNL     1      48.537   8.681  12.783  0.00  0.00    +0.000 C 
ATOM     10  C   UNL     1      48.423   9.218  14.230  0.00  0.00    +0.000 C 
ATOM     11  C   UNL     1      49.125  10.525  13.787  0.00  0.00    +0.000 C 
ATOM     12  C   UNL     1      48.831  10.123  12.325  0.00  0.00    +0.000 C 
BRANCH  11  13
ATOM     13  C   UNL     1      50.579  10.703  14.166  0.00  0.00    +0.000 C 
ATOM     14  F   UNL     1      51.238   9.523  14.194  0.00  0.00    +0.000 F 
ATOM     15  F   UNL     1      51.219  11.515  13.296  0.00  0.00    +0.000 F 
ATOM     16  F   UNL     1      50.674  11.262  15.394  0.00  0.00    +0.000 F 
ENDBRANCH  11  13
ENDBRANCH   8   9
ENDBRANCH   6   8
ENDBRANCH   1   2
BRANCH   1  17
ATOM     17  C   UNL     1      43.408   4.113  11.136  0.00  0.00    +0.000 C 
BRANCH  17  22
ATOM     18  C   UNL     1      46.623   2.789   7.487  0.00  0.00    +0.000 A 
ATOM     19  C   UNL     1      45.832   1.993   8.303  0.00  0.00    +0.000 A 
ATOM     20  C   UNL     1      44.875   2.601   9.113  0.00  0.00    +0.000 A 
ATOM     21  C   UNL     1      44.745   3.990   9.115  0.00  0.00    +0.000 A 
ATOM     22  N   UNL     1      43.756   4.655   9.833  0.00  0.00    +0.000 N 
ATOM     23  N   UNL     1      45.541   4.773   8.363  0.00  0.00    +0.000 NA
ATOM     24  C   UNL     1      46.464   4.163   7.569  0.00  0.00    +0.000 A 
ATOM     25  H   UNL     1      43.986   5.648   9.801  0.00  0.00    +0.000 HD
BRANCH  18  27
ATOM     26  N   UNL     1      47.782   2.890   5.357  0.00  0.00    +0.000 N 
ATOM     27  C   UNL     1      47.606   2.227   6.542  0.00  0.00    +0.000 C 
ATOM     28  O   UNL     1      48.264   1.237   6.818  0.00  0.00    +0.000 OA
ATOM     29  H   UNL     1      48.546   2.566   4.774  0.00  0.00    +0.000 HD
ATOM     30  H   UNL     1      47.466   3.838   5.217  0.00  0.00    +0.000 HD
ENDBRANCH  18  27
ENDBRANCH  17  22
ENDBRANCH   1  17
TORSDOF 7
ENDMDL
MODEL 9
REMARK VINA RESULT:    -7.380      1.751      2.259
REMARK INTER + INTRA:         -11.130
REMARK INTER:                 -11.346
REMARK INTRA:                   0.215
REMARK UNBOUND:                -0.731
REMARK  Name = 
REMARK  7 active torsions:
REMARK  status: ('A' for Active; 'I' for Inactive)
REMARK    1  A    between atoms: C_2  and  C_4
REMARK    2  A    between atoms: N_8  and  C_9
REMARK    3  A    between atoms: C_9  and  C_10
REMARK    4  A    between atoms: C_10  and  C_11
REMARK    5  A    between atoms: C_15  and  O_16
REMARK    6  A    between atoms: O_16  and  C_17
REMARK    7  A    between atoms: C_19  and  C_20
REMARK                            x       y       z     vdW  Elec       q    Type
REMARK                         _______ _______ _______ _____ _____    ______ ____
ROOT
ATOM      1  C   UNL     1      43.558   4.549  12.532  0.00  0.00    +0.000 C 
ENDROOT
BRANCH   1   2
ATOM      2  C   UNL     1      44.574   5.673  12.410  0.00  0.00    +0.000 A 
ATOM      3  C   UNL     1      44.483   6.693  11.451  0.00  0.00    +0.000 A 
ATOM      4  C   UNL     1      45.438   7.706  11.381  0.00  0.00    +0.000 A 
ATOM      5  C   UNL     1      46.508   7.724  12.270  0.00  0.00    +0.000 A 
ATOM      6  C   UNL     1      46.625   6.717  13.224  0.00  0.00    +0.000 A 
ATOM      7  C   UNL     1      45.663   5.703  13.295  0.00  0.00    +0.000 A 
BRANCH   6   8
ATOM      8  O   UNL     1      47.625   6.651  14.159  0.00  0.00    +0.000 OA
BRANCH   8   9
ATOM      9  C   UNL     1      47.923   5.380  14.776  0.00  0.00    +0.000 C 
ATOM     10  C   UNL     1      46.723   4.562  15.310  0.00  0.00    +0.000 C 
ATOM     11  C   UNL     1      47.473   4.361  16.651  0.00  0.00    +0.000 C 
ATOM     12  C   UNL     1      48.419   5.507  16.230  0.00  0.00    +0.000 C 
BRANCH  11  13
ATOM     13  C   UNL     1      48.108   3.012  16.904  0.00  0.00    +0.000 C 
ATOM     14  F   UNL     1      49.309   3.128  17.512  0.00  0.00    +0.000 F 
ATOM     15  F   UNL     1      47.322   2.237  17.684  0.00  0.00    +0.000 F 
ATOM     16  F   UNL     1      48.295   2.360  15.734  0.00  0.00    +0.000 F 
ENDBRANCH  11  13
ENDBRANCH   8   9
ENDBRANCH   6   8
ENDBRANCH   1   2
BRANCH   1  17
ATOM     17  C   UNL     1      43.319   3.773  11.232  0.00  0.00    +0.000 C 
BRANCH  17  22
ATOM     18  C   UNL     1      46.442   2.835   7.388  0.00  0.00    +0.000 A 
ATOM     19  C   UNL     1      46.019   4.049   7.911  0.00  0.00    +0.000 A 
ATOM     20  C   UNL     1      45.301   4.054   9.104  0.00  0.00    +0.000 A 
ATOM     21  C   UNL     1      44.993   2.850   9.739  0.00  0.00    +0.000 A 
ATOM     22  N   UNL     1      44.355   2.787  10.973  0.00  0.00    +0.000 N 
ATOM     23  N   UNL     1      45.358   1.665   9.214  0.00  0.00    +0.000 NA
ATOM     24  C   UNL     1      46.069   1.677   8.052  0.00  0.00    +0.000 A 
ATOM     25  H   UNL     1      44.102   1.812  11.125  0.00  0.00    +0.000 HD
BRANCH  18  27
ATOM     26  N   UNL     1      48.613   2.524   6.349  0.00  0.00    +0.000 N 
ATOM     27  C   UNL     1      47.273   2.740   6.174  0.00  0.00    +0.000 C 
ATOM     28  O   UNL     1      46.783   2.808   5.058  0.00  0.00    +0.000 OA
ATOM     29  H   UNL     1      49.149   2.337   5.508  0.00  0.00    +0.000 HD
ATOM     30  H   UNL     1      48.997   2.196   7.223  0.00  0.00    +0.000 HD
ENDBRANCH  18  27
ENDBRANCH  17  22
ENDBRANCH   1  17
TORSDOF 7
ENDMDL
