MODEL 1
REMARK VINA RESULT:    -9.428      0.000      0.000
REMARK INTER + INTRA:         -13.005
REMARK INTER:                 -12.184
REMARK INTRA:                  -0.821
REMARK UNBOUND:                -0.821
REMARK  Name = 
REMARK  5 active torsions:
REMARK  status: ('A' for Active; 'I' for Inactive)
REMARK    1  A    between atoms: C_2  and  C_4
REMARK    2  A    between atoms: N_8  and  C_9
REMARK    3  A    between atoms: C_9  and  C_10
REMARK    4  A    between atoms: C_10  and  C_13
REMARK    5  A    between atoms: C_17  and  N_18
REMARK                            x       y       z     vdW  Elec       q    Type
REMARK                         _______ _______ _______ _____ _____    ______ ____
ROOT
ATOM      1  C   UNL     1      43.114   5.566  12.099  0.00  0.00    +0.000 C 
ATOM      2  F   UNL     1      42.208   6.442  11.567  0.00  0.00    +0.000 F 
ATOM      3  F   UNL     1      42.562   5.144  13.275  0.00  0.00    +0.000 F 
ENDROOT
BRANCH   1   4
ATOM      4  C   UNL     1      44.476   6.200  12.309  0.00  0.00    +0.000 A 
ATOM      5  C   UNL     1      44.778   7.446  11.754  0.00  0.00    +0.000 A 
ATOM      6  C   UNL     1      46.001   8.050  12.030  0.00  0.00    +0.000 A 
ATOM      7  C   UNL     1      46.911   7.424  12.886  0.00  0.00    +0.000 A 
ATOM      8  C   UNL     1      46.640   6.182  13.475  0.00  0.00    +0.000 A 
ATOM      9  C   UNL     1      45.424   5.572  13.136  0.00  0.00    +0.000 A 
BRANCH   8  10
ATOM     10  N   UNL     1      47.520   5.606  14.365  0.00  0.00    +0.000 N 
ATOM     11  C   UNL     1      47.325   4.275  14.953  0.00  0.00    +0.000 C 
ATOM     12  C   UNL     1      47.321   4.378  16.485  0.00  0.00    +0.000 C 
ATOM     13  O   UNL     1      48.514   5.013  16.973  0.00  0.00    +0.000 OA
ATOM     14  C   UNL     1      48.633   6.340  16.434  0.00  0.00    +0.000 C 
ATOM     15  C   UNL     1      48.685   6.334  14.895  0.00  0.00    +0.000 C 
ENDBRANCH   8  10
ENDBRANCH   1   4
BRANCH   1  16
ATOM     16  C   UNL     1      43.241   4.353  11.134  0.00  0.00    +0.000 C 
BRANCH  16  21
ATOM     17  C   UNL     1      46.531   2.537   7.673  0.00  0.00    +0.000 A 
ATOM     18  C   UNL     1      45.686   1.855   8.542  0.00  0.00    +0.000 A 
ATOM     19  C   UNL     1      44.763   2.581   9.295  0.00  0.00    +0.000 A 
ATOM     20  C   UNL     1      44.695   3.966   9.170  0.00  0.00    +0.000 A 
ATOM     21  N   UNL     1      43.728   4.724   9.800  0.00  0.00    +0.000 N 
ATOM     22  N   UNL     1      45.531   4.636   8.355  0.00  0.00    +0.000 NA
ATOM     23  C   UNL     1      46.436   3.918   7.632  0.00  0.00    +0.000 A 
ATOM     24  H   UNL     1      43.918   5.715   9.652  0.00  0.00    +0.000 HD
BRANCH  17  26
ATOM     25  N   UNL     1      48.564   2.582   6.347  0.00  0.00    +0.000 N 
ATOM     26  C   UNL     1      47.511   1.840   6.811  0.00  0.00    +0.000 C 
ATOM     27  O   UNL     1      47.405   0.652   6.555  0.00  0.00    +0.000 OA
ATOM     28  H   UNL     1      49.281   2.078   5.837  0.00  0.00    +0.000 HD
ATOM     29  H   UNL     1      48.813   3.480   6.733  0.00  0.00    +0.000 HD
ENDBRANCH  17  26
ENDBRANCH  16  21
ENDBRANCH   1  16
TORSDOF 5
ENDMDL
MODEL 2
REMARK VINA RESULT:    -9.300      1.870      2.815
REMARK INTER + INTRA:         -12.840
REMARK INTER:                 -11.829
REMARK INTRA:                  -1.011
REMARK UNBOUND:                -0.821
REMARK  Name = 
REMARK  5 active torsions:
REMARK  status: ('A' for Active; 'I' for Inactive)
REMARK    1  A    between atoms: C_2  and  C_4
REMARK    2  A    between atoms: N_8  and  C_9
REMARK    3  A    between atoms: C_9  and  C_10
REMARK    4  A    between atoms: C_10  and  C_13
REMARK    5  A    between atoms: C_17  and  N_18
REMARK                            x       y       z     vdW  Elec       q    Type
REMARK                         _______ _______ _______ _____ _____    ______ ____
ROOT
ATOM      1  C   UNL     1      43.487   5.528  12.224  0.00  0.00    +0.000 C 
ATOM      2  F   UNL     1      43.250   6.728  11.612  0.00  0.00    +0.000 F 
ATOM      3  F   UNL     1      42.546   5.433  13.211  0.00  0.00    +0.000 F 
ENDROOT
BRANCH   1   4
ATOM      4  C   UNL     1      44.897   5.428  12.774  0.00  0.00    +0.000 A 
ATOM      5  C   UNL     1      45.423   4.197  13.173  0.00  0.00    +0.000 A 
ATOM      6  C   UNL     1      46.748   4.112  13.593  0.00  0.00    +0.000 A 
ATOM      7  C   UNL     1      47.556   5.251  13.585  0.00  0.00    +0.000 A 
ATOM      8  C   UNL     1      47.072   6.501  13.178  0.00  0.00    +0.000 A 
ATOM      9  C   UNL     1      45.720   6.568  12.812  0.00  0.00    +0.000 A 
BRANCH   8  10
ATOM     10  N   UNL     1      47.898   7.602  13.116  0.00  0.00    +0.000 N 
ATOM     11  C   UNL     1      47.415   8.985  13.219  0.00  0.00    +0.000 C 
ATOM     12  C   UNL     1      47.840   9.778  11.975  0.00  0.00    +0.000 C 
ATOM     13  O   UNL     1      49.262   9.717  11.772  0.00  0.00    +0.000 OA
ATOM     14  C   UNL     1      49.686   8.355  11.603  0.00  0.00    +0.000 C 
ATOM     15  C   UNL     1      49.336   7.486  12.825  0.00  0.00    +0.000 C 
ENDBRANCH   8  10
ENDBRANCH   1   4
BRANCH   1  16
ATOM     16  C   UNL     1      43.246   4.397  11.184  0.00  0.00    +0.000 C 
BRANCH  16  21
ATOM     17  C   UNL     1      46.479   2.525   7.697  0.00  0.00    +0.000 A 
ATOM     18  C   UNL     1      45.651   1.857   8.594  0.00  0.00    +0.000 A 
ATOM     19  C   UNL     1      44.740   2.595   9.351  0.00  0.00    +0.000 A 
ATOM     20  C   UNL     1      44.666   3.977   9.201  0.00  0.00    +0.000 A 
ATOM     21  N   UNL     1      43.708   4.744   9.834  0.00  0.00    +0.000 N 
ATOM     22  N   UNL     1      45.485   4.635   8.359  0.00  0.00    +0.000 NA
ATOM     23  C   UNL     1      46.379   3.905   7.633  0.00  0.00    +0.000 A 
ATOM     24  H   UNL     1      43.892   5.733   9.665  0.00  0.00    +0.000 HD
BRANCH  17  26
ATOM     25  N   UNL     1      48.539   2.525   6.413  0.00  0.00    +0.000 N 
ATOM     26  C   UNL     1      47.445   1.815   6.831  0.00  0.00    +0.000 C 
ATOM     27  O   UNL     1      47.292   0.642   6.531  0.00  0.00    +0.000 OA
ATOM     28  H   UNL     1      49.243   2.008   5.901  0.00  0.00    +0.000 HD
ATOM     29  H   UNL     1      48.819   3.397   6.836  0.00  0.00    +0.000 HD
ENDBRANCH  17  26
ENDBRANCH  16  21
ENDBRANCH   1  16
TORSDOF 5
ENDMDL
MODEL 3
REMARK VINA RESULT:    -8.605      1.788      2.287
REMARK INTER + INTRA:         -11.942
REMARK INTER:                 -11.426
REMARK INTRA:                  -0.516
REMARK UNBOUND:                -0.821
REMARK  Name = 
REMARK  5 active torsions:
REMARK  status: ('A' for Active; 'I' for Inactive)
REMARK    1  A    between atoms: C_2  and  C_4
REMARK    2  A    between atoms: N_8  and  C_9
REMARK    3  A    between atoms: C_9  and  C_10
REMARK    4  A    between atoms: C_10  and  C_13
REMARK    5  A    between atoms: C_17  and  N_18
REMARK                            x       y       z     vdW  Elec       q    Type
REMARK                         _______ _______ _______ _____ _____    ______ ____
ROOT
ATOM      1  C   UNL     1      44.321   4.569  12.292  0.00  0.00    +0.000 C 
ATOM      2  F   UNL     1      43.661   4.491  13.488  0.00  0.00    +0.000 F 
ATOM      3  F   UNL     1      45.134   3.472  12.255  0.00  0.00    +0.000 F 
ENDROOT
BRANCH   1   4
ATOM      4  C   UNL     1      45.106   5.860  12.148  0.00  0.00    +0.000 A 
ATOM      5  C   UNL     1      44.461   7.059  11.837  0.00  0.00    +0.000 A 
ATOM      6  C   UNL     1      45.186   8.247  11.795  0.00  0.00    +0.000 A 
ATOM      7  C   UNL     1      46.550   8.241  12.096  0.00  0.00    +0.000 A 
ATOM      8  C   UNL     1      47.232   7.063  12.429  0.00  0.00    +0.000 A 
ATOM      9  C   UNL     1      46.488   5.875  12.410  0.00  0.00    +0.000 A 
BRANCH   8  10
ATOM     10  N   UNL     1      48.563   7.084  12.784  0.00  0.00    +0.000 N 
ATOM     11  C   UNL     1      49.037   6.940  14.166  0.00  0.00    +0.000 C 
ATOM     12  C   UNL     1      49.891   8.156  14.552  0.00  0.00    +0.000 C 
ATOM     13  O   UNL     1      50.975   8.352  13.628  0.00  0.00    +0.000 OA
ATOM     14  C   UNL     1      50.470   8.562  12.300  0.00  0.00    +0.000 C 
ATOM     15  C   UNL     1      49.627   7.371  11.809  0.00  0.00    +0.000 C 
ENDBRANCH   8  10
ENDBRANCH   1   4
BRANCH   1  16
ATOM     16  C   UNL     1      43.272   4.463  11.150  0.00  0.00    +0.000 C 
BRANCH  16  21
ATOM     17  C   UNL     1      46.473   2.478   7.696  0.00  0.00    +0.000 A 
ATOM     18  C   UNL     1      45.561   1.844   8.534  0.00  0.00    +0.000 A 
ATOM     19  C   UNL     1      44.684   2.622   9.290  0.00  0.00    +0.000 A 
ATOM     20  C   UNL     1      44.727   4.010   9.200  0.00  0.00    +0.000 A 
ATOM     21  N   UNL     1      43.811   4.827   9.833  0.00  0.00    +0.000 N 
ATOM     22  N   UNL     1      45.628   4.633   8.417  0.00  0.00    +0.000 NA
ATOM     23  C   UNL     1      46.487   3.863   7.690  0.00  0.00    +0.000 A 
ATOM     24  H   UNL     1      44.081   5.803   9.715  0.00  0.00    +0.000 HD
BRANCH  17  26
ATOM     25  N   UNL     1      48.505   2.409   6.370  0.00  0.00    +0.000 N 
ATOM     26  C   UNL     1      47.411   1.727   6.833  0.00  0.00    +0.000 C 
ATOM     27  O   UNL     1      47.236   0.548   6.574  0.00  0.00    +0.000 OA
ATOM     28  H   UNL     1      49.191   1.866   5.860  0.00  0.00    +0.000 HD
ATOM     29  H   UNL     1      48.806   3.289   6.759  0.00  0.00    +0.000 HD
ENDBRANCH  17  26
ENDBRANCH  16  21
ENDBRANCH   1  16
TORSDOF 5
ENDMDL
MODEL 4
REMARK VINA RESULT:    -8.440      2.951      4.181
REMARK INTER + INTRA:         -11.729
REMARK INTER:                 -11.057
REMARK INTRA:                  -0.672
REMARK UNBOUND:                -0.821
REMARK  Name = 
REMARK  5 active torsions:
REMARK  status: ('A' for Active; 'I' for Inactive)
REMARK    1  A    between atoms: C_2  and  C_4
REMARK    2  A    between atoms: N_8  and  C_9
REMARK    3  A    between atoms: C_9  and  C_10
REMARK    4  A    between atoms: C_10  and  C_13
REMARK    5  A    between atoms: C_17  and  N_18
REMARK                            x       y       z     vdW  Elec       q    Type
REMARK                         _______ _______ _______ _____ _____    ______ ____
ROOT
ATOM      1  C   UNL     1      44.206   4.277  12.394  0.00  0.00    +0.000 C 
ATOM      2  F   UNL     1      43.414   4.290  13.509  0.00  0.00    +0.000 F 
ATOM      3  F   UNL     1      44.986   3.161  12.515  0.00  0.00    +0.000 F 
ENDROOT
BRANCH   1   4
ATOM      4  C   UNL     1      45.040   5.538  12.262  0.00  0.00    +0.000 A 
ATOM      5  C   UNL     1      46.434   5.473  12.227  0.00  0.00    +0.000 A 
ATOM      6  C   UNL     1      47.178   6.631  12.019  0.00  0.00    +0.000 A 
ATOM      7  C   UNL     1      46.527   7.850  11.813  0.00  0.00    +0.000 A 
ATOM      8  C   UNL     1      45.130   7.955  11.824  0.00  0.00    +0.000 A 
ATOM      9  C   UNL     1      44.408   6.783  12.091  0.00  0.00    +0.000 A 
BRANCH   8  10
ATOM     10  N   UNL     1      44.502   9.153  11.558  0.00  0.00    +0.000 N 
ATOM     11  C   UNL     1      43.299   9.270  10.723  0.00  0.00    +0.000 C 
ATOM     12  C   UNL     1      43.565  10.236   9.561  0.00  0.00    +0.000 C 
ATOM     13  O   UNL     1      44.020  11.516  10.033  0.00  0.00    +0.000 OA
ATOM     14  C   UNL     1      45.237  11.370  10.782  0.00  0.00    +0.000 C 
ATOM     15  C   UNL     1      45.058  10.442  11.998  0.00  0.00    +0.000 C 
ENDBRANCH   8  10
ENDBRANCH   1   4
BRANCH   1  16
ATOM     16  C   UNL     1      43.289   4.121  11.148  0.00  0.00    +0.000 C 
BRANCH  16  21
ATOM     17  C   UNL     1      46.636   2.882   7.492  0.00  0.00    +0.000 A 
ATOM     18  C   UNL     1      45.723   2.082   8.172  0.00  0.00    +0.000 A 
ATOM     19  C   UNL     1      44.804   2.687   9.030  0.00  0.00    +0.000 A 
ATOM     20  C   UNL     1      44.806   4.069   9.194  0.00  0.00    +0.000 A 
ATOM     21  N   UNL     1      43.849   4.732   9.936  0.00  0.00    +0.000 N 
ATOM     22  N   UNL     1      45.707   4.846   8.564  0.00  0.00    +0.000 NA
ATOM     23  C   UNL     1      46.608   4.245   7.737  0.00  0.00    +0.000 A 
ATOM     24  H   UNL     1      44.091   5.721  10.005  0.00  0.00    +0.000 HD
BRANCH  17  26
ATOM     25  N   UNL     1      47.782   2.999   5.355  0.00  0.00    +0.000 N 
ATOM     26  C   UNL     1      47.619   2.325   6.536  0.00  0.00    +0.000 C 
ATOM     27  O   UNL     1      48.277   1.333   6.802  0.00  0.00    +0.000 OA
ATOM     28  H   UNL     1      48.522   2.669   4.747  0.00  0.00    +0.000 HD
ATOM     29  H   UNL     1      47.447   3.939   5.211  0.00  0.00    +0.000 HD
ENDBRANCH  17  26
ENDBRANCH  16  21
ENDBRANCH   1  16
TORSDOF 5
ENDMDL
MODEL 5
REMARK VINA RESULT:    -8.318      2.136      3.196
REMARK INTER + INTRA:         -11.570
REMARK INTER:                 -10.637
REMARK INTRA:                  -0.933
REMARK UNBOUND:                -0.821
REMARK  Name = 
REMARK  5 active torsions:
REMARK  status: ('A' for Active; 'I' for Inactive)
REMARK    1  A    between atoms: C_2  and  C_4
REMARK    2  A    between atoms: N_8  and  C_9
REMARK    3  A    between atoms: C_9  and  C_10
REMARK    4  A    between atoms: C_10  and  C_13
REMARK    5  A    between atoms: C_17  and  N_18
REMARK                            x       y       z     vdW  Elec       q    Type
REMARK                         _______ _______ _______ _____ _____    ______ ____
ROOT
ATOM      1  C   UNL     1      43.455   4.578  12.691  0.00  0.00    +0.000 C 
ATOM      2  F   UNL     1      42.547   5.586  12.870  0.00  0.00    +0.000 F 
ATOM      3  F   UNL     1      43.038   3.566  13.509  0.00  0.00    +0.000 F 
ENDROOT
BRANCH   1   4
ATOM      4  C   UNL     1      44.873   5.014  13.007  0.00  0.00    +0.000 A 
ATOM      5  C   UNL     1      45.723   4.195  13.753  0.00  0.00    +0.000 A 
ATOM      6  C   UNL     1      47.047   4.573  13.959  0.00  0.00    +0.000 A 
ATOM      7  C   UNL     1      47.530   5.755  13.392  0.00  0.00    +0.000 A 
ATOM      8  C   UNL     1      46.715   6.597  12.624  0.00  0.00    +0.000 A 
ATOM      9  C   UNL     1      45.373   6.219  12.480  0.00  0.00    +0.000 A 
BRANCH   8  10
ATOM     10  N   UNL     1      47.222   7.727  12.021  0.00  0.00    +0.000 N 
ATOM     11  C   UNL     1      48.537   7.778  11.369  0.00  0.00    +0.000 C 
ATOM     12  C   UNL     1      49.391   8.884  12.004  0.00  0.00    +0.000 C 
ATOM     13  O   UNL     1      48.720  10.155  11.965  0.00  0.00    +0.000 OA
ATOM     14  C   UNL     1      47.473  10.086  12.675  0.00  0.00    +0.000 C 
ATOM     15  C   UNL     1      46.529   9.024  12.082  0.00  0.00    +0.000 C 
ENDBRANCH   8  10
ENDBRANCH   1   4
BRANCH   1  16
ATOM     16  C   UNL     1      43.368   4.104  11.213  0.00  0.00    +0.000 C 
BRANCH  16  21
ATOM     17  C   UNL     1      46.505   2.909   7.361  0.00  0.00    +0.000 A 
ATOM     18  C   UNL     1      46.151   4.155   7.867  0.00  0.00    +0.000 A 
ATOM     19  C   UNL     1      45.386   4.218   9.032  0.00  0.00    +0.000 A 
ATOM     20  C   UNL     1      44.990   3.047   9.672  0.00  0.00    +0.000 A 
ATOM     21  N   UNL     1      44.334   3.047  10.887  0.00  0.00    +0.000 N 
ATOM     22  N   UNL     1      45.301   1.837   9.171  0.00  0.00    +0.000 NA
ATOM     23  C   UNL     1      46.040   1.786   8.026  0.00  0.00    +0.000 A 
ATOM     24  H   UNL     1      44.054   2.096  11.127  0.00  0.00    +0.000 HD
BRANCH  17  26
ATOM     25  N   UNL     1      48.670   2.469   6.354  0.00  0.00    +0.000 N 
ATOM     26  C   UNL     1      47.346   2.754   6.153  0.00  0.00    +0.000 C 
ATOM     27  O   UNL     1      46.874   2.843   5.031  0.00  0.00    +0.000 OA
ATOM     28  H   UNL     1      49.219   2.271   5.525  0.00  0.00    +0.000 HD
ATOM     29  H   UNL     1      49.032   2.148   7.239  0.00  0.00    +0.000 HD
ENDBRANCH  17  26
ENDBRANCH  16  21
ENDBRANCH   1  16
TORSDOF 5
ENDMDL
MODEL 6
REMARK VINA RESULT:    -8.265      1.635      2.063
REMARK INTER + INTRA:         -11.502
REMARK INTER:                 -10.483
REMARK INTRA:                  -1.019
REMARK UNBOUND:                -0.821
REMARK  Name = 
REMARK  5 active torsions:
REMARK  status: ('A' for Active; 'I' for Inactive)
REMARK    1  A    between atoms: C_2  and  C_4
REMARK    2  A    between atoms: N_8  and  C_9
REMARK    3  A    between atoms: C_9  and  C_10
REMARK    4  A    between atoms: C_10  and  C_13
REMARK    5  A    between atoms: C_17  and  N_18
REMARK                            x       y       z     vdW  Elec       q    Type
REMARK                         _______ _______ _______ _____ _____    ______ ____
ROOT
ATOM      1  C   UNL     1      43.754   4.600  12.638  0.00  0.00    +0.000 C 
ATOM      2  F   UNL     1      42.595   4.831  13.328  0.00  0.00    +0.000 F 
ATOM      3  F   UNL     1      44.482   3.755  13.426  0.00  0.00    +0.000 F 
ENDROOT
BRANCH   1   4
ATOM      4  C   UNL     1      44.509   5.881  12.333  0.00  0.00    +0.000 A 
ATOM      5  C   UNL     1      43.940   6.872  11.530  0.00  0.00    +0.000 A 
ATOM      6  C   UNL     1      44.613   8.075  11.333  0.00  0.00    +0.000 A 
ATOM      7  C   UNL     1      45.839   8.300  11.964  0.00  0.00    +0.000 A 
ATOM      8  C   UNL     1      46.436   7.338  12.789  0.00  0.00    +0.000 A 
ATOM      9  C   UNL     1      45.763   6.115  12.926  0.00  0.00    +0.000 A 
BRANCH   8  10
ATOM     10  N   UNL     1      47.614   7.598  13.453  0.00  0.00    +0.000 N 
ATOM     11  C   UNL     1      48.483   6.551  14.005  0.00  0.00    +0.000 C 
ATOM     12  C   UNL     1      48.688   6.783  15.508  0.00  0.00    +0.000 C 
ATOM     13  O   UNL     1      49.198   8.101  15.773  0.00  0.00    +0.000 OA
ATOM     14  C   UNL     1      48.286   9.098  15.285  0.00  0.00    +0.000 C 
ATOM     15  C   UNL     1      48.048   8.969  13.769  0.00  0.00    +0.000 C 
ENDBRANCH   8  10
ENDBRANCH   1   4
BRANCH   1  16
ATOM     16  C   UNL     1      43.394   3.873  11.312  0.00  0.00    +0.000 C 
BRANCH  16  21
ATOM     17  C   UNL     1      46.497   2.866   7.380  0.00  0.00    +0.000 A 
ATOM     18  C   UNL     1      46.134   4.088   7.937  0.00  0.00    +0.000 A 
ATOM     19  C   UNL     1      45.382   4.096   9.113  0.00  0.00    +0.000 A 
ATOM     20  C   UNL     1      45.010   2.897   9.712  0.00  0.00    +0.000 A 
ATOM     21  N   UNL     1      44.368   2.842  10.934  0.00  0.00    +0.000 N 
ATOM     22  N   UNL     1      45.330   1.711   9.162  0.00  0.00    +0.000 NA
ATOM     23  C   UNL     1      46.055   1.713   8.007  0.00  0.00    +0.000 A 
ATOM     24  H   UNL     1      44.103   1.879  11.141  0.00  0.00    +0.000 HD
BRANCH  17  26
ATOM     25  N   UNL     1      48.654   2.490   6.331  0.00  0.00    +0.000 N 
ATOM     26  C   UNL     1      47.324   2.768   6.157  0.00  0.00    +0.000 C 
ATOM     27  O   UNL     1      46.838   2.896   5.045  0.00  0.00    +0.000 OA
ATOM     28  H   UNL     1      49.194   2.330   5.488  0.00  0.00    +0.000 HD
ATOM     29  H   UNL     1      49.030   2.138   7.198  0.00  0.00    +0.000 HD
ENDBRANCH  17  26
ENDBRANCH  16  21
ENDBRANCH   1  16
TORSDOF 5
ENDMDL
MODEL 7
REMARK VINA RESULT:    -7.497      2.103      7.588
REMARK INTER + INTRA:         -10.509
REMARK INTER:                  -9.567
REMARK INTRA:                  -0.943
REMARK UNBOUND:                -0.821
REMARK  Name = 
REMARK  5 active torsions:
REMARK  status: ('A' for Active; 'I' for Inactive)
REMARK    1  A    between atoms: C_2  and  C_4
REMARK    2  A    between atoms: N_8  and  C_9
REMARK    3  A    between atoms: C_9  and  C_10
REMARK    4  A    between atoms: C_10  and  C_13
REMARK    5  A    between atoms: C_17  and  N_18
REMARK                            x       y       z     vdW  Elec       q    Type
REMARK                         _______ _______ _______ _____ _____    ______ ____
ROOT
ATOM      1  C   UNL     1      45.978   6.722  11.799  0.00  0.00    +0.000 C 
ATOM      2  F   UNL     1      45.293   7.776  11.260  0.00  0.00    +0.000 F 
ATOM      3  F   UNL     1      47.218   6.764  11.226  0.00  0.00    +0.000 F 
ENDROOT
BRANCH   1   4
ATOM      4  C   UNL     1      45.285   5.395  11.550  0.00  0.00    +0.000 A 
ATOM      5  C   UNL     1      44.328   4.910  12.444  0.00  0.00    +0.000 A 
ATOM      6  C   UNL     1      43.641   3.734  12.154  0.00  0.00    +0.000 A 
ATOM      7  C   UNL     1      43.888   3.060  10.955  0.00  0.00    +0.000 A 
ATOM      8  C   UNL     1      44.828   3.522  10.025  0.00  0.00    +0.000 A 
ATOM      9  C   UNL     1      45.544   4.677  10.368  0.00  0.00    +0.000 A 
BRANCH   8  10
ATOM     10  N   UNL     1      45.015   2.880   8.820  0.00  0.00    +0.000 N 
ATOM     11  C   UNL     1      45.256   1.437   8.699  0.00  0.00    +0.000 C 
ATOM     12  C   UNL     1      46.577   1.190   7.956  0.00  0.00    +0.000 C 
ATOM     13  O   UNL     1      46.594   1.849   6.679  0.00  0.00    +0.000 OA
ATOM     14  C   UNL     1      46.429   3.266   6.843  0.00  0.00    +0.000 C 
ATOM     15  C   UNL     1      45.105   3.615   7.548  0.00  0.00    +0.000 C 
ENDBRANCH   8  10
ENDBRANCH   1   4
BRANCH   1  16
ATOM     16  C   UNL     1      46.118   6.963  13.328  0.00  0.00    +0.000 C 
BRANCH  16  21
ATOM     17  C   UNL     1      48.506   4.096  16.820  0.00  0.00    +0.000 A 
ATOM     18  C   UNL     1      47.424   3.786  16.001  0.00  0.00    +0.000 A 
ATOM     19  C   UNL     1      47.044   4.695  15.013  0.00  0.00    +0.000 A 
ATOM     20  C   UNL     1      47.743   5.887  14.854  0.00  0.00    +0.000 A 
ATOM     21  N   UNL     1      47.488   6.769  13.822  0.00  0.00    +0.000 N 
ATOM     22  N   UNL     1      48.770   6.209  15.662  0.00  0.00    +0.000 NA
ATOM     23  C   UNL     1      49.127   5.319  16.632  0.00  0.00    +0.000 A 
ATOM     24  H   UNL     1      48.042   7.616  13.947  0.00  0.00    +0.000 HD
BRANCH  17  26
ATOM     25  N   UNL     1      48.329   3.182  19.061  0.00  0.00    +0.000 N 
ATOM     26  C   UNL     1      48.997   3.173  17.866  0.00  0.00    +0.000 C 
ATOM     27  O   UNL     1      49.931   2.415  17.662  0.00  0.00    +0.000 OA
ATOM     28  H   UNL     1      48.608   2.483  19.739  0.00  0.00    +0.000 HD
ATOM     29  H   UNL     1      47.420   3.603  19.177  0.00  0.00    +0.000 HD
ENDBRANCH  17  26
ENDBRANCH  16  21
ENDBRANCH   1  16
TORSDOF 5
ENDMDL
MODEL 8
REMARK VINA RESULT:    -7.409      2.298      8.246
REMARK INTER + INTRA:         -10.396
REMARK INTER:                  -9.892
REMARK INTRA:                  -0.503
REMARK UNBOUND:                -0.821
REMARK  Name = 
REMARK  5 active torsions:
REMARK  status: ('A' for Active; 'I' for Inactive)
REMARK    1  A    between atoms: C_2  and  C_4
REMARK    2  A    between atoms: N_8  and  C_9
REMARK    3  A    between atoms: C_9  and  C_10
REMARK    4  A    between atoms: C_10  and  C_13
REMARK    5  A    between atoms: C_17  and  N_18
REMARK                            x       y       z     vdW  Elec       q    Type
REMARK                         _______ _______ _______ _____ _____    ______ ____
ROOT
ATOM      1  C   UNL     1      45.855   5.822  12.410  0.00  0.00    +0.000 C 
ATOM      2  F   UNL     1      45.007   6.634  13.112  0.00  0.00    +0.000 F 
ATOM      3  F   UNL     1      46.392   6.615  11.435  0.00  0.00    +0.000 F 
ENDROOT
BRANCH   1   4
ATOM      4  C   UNL     1      45.149   4.611  11.829  0.00  0.00    +0.000 A 
ATOM      5  C   UNL     1      44.047   4.047  12.477  0.00  0.00    +0.000 A 
ATOM      6  C   UNL     1      43.360   2.991  11.885  0.00  0.00    +0.000 A 
ATOM      7  C   UNL     1      43.753   2.520  10.630  0.00  0.00    +0.000 A 
ATOM      8  C   UNL     1      44.842   3.069   9.940  0.00  0.00    +0.000 A 
ATOM      9  C   UNL     1      45.549   4.094  10.584  0.00  0.00    +0.000 A 
BRANCH   8  10
ATOM     10  N   UNL     1      45.179   2.635   8.676  0.00  0.00    +0.000 N 
ATOM     11  C   UNL     1      45.566   1.252   8.370  0.00  0.00    +0.000 C 
ATOM     12  C   UNL     1      46.956   1.233   7.719  0.00  0.00    +0.000 C 
ATOM     13  O   UNL     1      47.004   2.076   6.555  0.00  0.00    +0.000 OA
ATOM     14  C   UNL     1      46.691   3.433   6.907  0.00  0.00    +0.000 C 
ATOM     15  C   UNL     1      45.291   3.558   7.536  0.00  0.00    +0.000 C 
ENDBRANCH   8  10
ENDBRANCH   1   4
BRANCH   1  16
ATOM     16  C   UNL     1      46.989   5.360  13.368  0.00  0.00    +0.000 C 
BRANCH  16  21
ATOM     17  C   UNL     1      48.645   4.475  18.121  0.00  0.00    +0.000 A 
ATOM     18  C   UNL     1      48.863   5.570  17.290  0.00  0.00    +0.000 A 
ATOM     19  C   UNL     1      48.174   5.647  16.080  0.00  0.00    +0.000 A 
ATOM     20  C   UNL     1      47.283   4.642  15.718  0.00  0.00    +0.000 A 
ATOM     21  N   UNL     1      46.488   4.720  14.592  0.00  0.00    +0.000 N 
ATOM     22  N   UNL     1      47.090   3.563  16.500  0.00  0.00    +0.000 NA
ATOM     23  C   UNL     1      47.777   3.492  17.676  0.00  0.00    +0.000 A 
ATOM     24  H   UNL     1      45.985   3.842  14.463  0.00  0.00    +0.000 HD
BRANCH  17  26
ATOM     25  N   UNL     1      48.599   3.694  20.418  0.00  0.00    +0.000 N 
ATOM     26  C   UNL     1      49.306   4.335  19.437  0.00  0.00    +0.000 C 
ATOM     27  O   UNL     1      50.441   4.741  19.628  0.00  0.00    +0.000 OA
ATOM     28  H   UNL     1      49.091   3.517  21.286  0.00  0.00    +0.000 HD
ATOM     29  H   UNL     1      47.779   3.138  20.228  0.00  0.00    +0.000 HD
ENDBRANCH  17  26
ENDBRANCH  16  21
ENDBRANCH   1  16
TORSDOF 5
ENDMDL
MODEL 9
REMARK VINA RESULT:    -6.929      3.189      7.373
REMARK INTER + INTRA:          -9.775
REMARK INTER:                  -8.870
REMARK INTRA:                  -0.905
REMARK UNBOUND:                -0.821
REMARK  Name = 
REMARK  5 active torsions:
REMARK  status: ('A' for Active; 'I' for Inactive)
REMARK    1  A    between atoms: C_2  and  C_4
REMARK    2  A    between atoms: N_8  and  C_9
REMARK    3  A    between atoms: C_9  and  C_10
REMARK    4  A    between atoms: C_10  and  C_13
REMARK    5  A    between atoms: C_17  and  N_18
REMARK                            x       y       z     vdW  Elec       q    Type
REMARK                         _______ _______ _______ _____ _____    ______ ____
ROOT
ATOM      1  C   UNL     1      48.456   7.604  12.277  0.00  0.00    +0.000 C 
ATOM      2  F   UNL     1      49.170   8.334  11.367  0.00  0.00    +0.000 F 
ATOM      3  F   UNL     1      48.917   6.323  12.155  0.00  0.00    +0.000 F 
ENDROOT
BRANCH   1   4
ATOM      4  C   UNL     1      46.960   7.692  12.043  0.00  0.00    +0.000 A 
ATOM      5  C   UNL     1      46.304   8.925  12.069  0.00  0.00    +0.000 A 
ATOM      6  C   UNL     1      44.946   8.995  11.766  0.00  0.00    +0.000 A 
ATOM      7  C   UNL     1      44.252   7.837  11.406  0.00  0.00    +0.000 A 
ATOM      8  C   UNL     1      44.877   6.584  11.352  0.00  0.00    +0.000 A 
ATOM      9  C   UNL     1      46.230   6.535  11.716  0.00  0.00    +0.000 A 
BRANCH   8  10
ATOM     10  N   UNL     1      44.194   5.463  10.936  0.00  0.00    +0.000 N 
ATOM     11  C   UNL     1      43.015   4.927  11.628  0.00  0.00    +0.000 C 
ATOM     12  C   UNL     1      43.265   3.467  12.029  0.00  0.00    +0.000 C 
ATOM     13  O   UNL     1      43.634   2.665  10.894  0.00  0.00    +0.000 OA
ATOM     14  C   UNL     1      44.832   3.176  10.287  0.00  0.00    +0.000 C 
ATOM     15  C   UNL     1      44.663   4.632   9.815  0.00  0.00    +0.000 C 
ENDBRANCH   8  10
ENDBRANCH   1   4
BRANCH   1  16
ATOM     16  C   UNL     1      48.798   8.132  13.699  0.00  0.00    +0.000 C 
BRANCH  16  21
ATOM     17  C   UNL     1      48.061   4.300  16.997  0.00  0.00    +0.000 A 
ATOM     18  C   UNL     1      47.321   4.666  15.877  0.00  0.00    +0.000 A 
ATOM     19  C   UNL     1      47.814   5.669  15.041  0.00  0.00    +0.000 A 
ATOM     20  C   UNL     1      49.027   6.286  15.330  0.00  0.00    +0.000 A 
ATOM     21  N   UNL     1      49.619   7.200  14.481  0.00  0.00    +0.000 N 
ATOM     22  N   UNL     1      49.733   5.960  16.429  0.00  0.00    +0.000 NA
ATOM     23  C   UNL     1      49.238   4.986  17.245  0.00  0.00    +0.000 A 
ATOM     24  H   UNL     1      50.447   7.597  14.926  0.00  0.00    +0.000 HD
BRANCH  17  26
ATOM     25  N   UNL     1      48.331   3.085  19.081  0.00  0.00    +0.000 N 
ATOM     26  C   UNL     1      47.630   3.221  17.913  0.00  0.00    +0.000 C 
ATOM     27  O   UNL     1      46.674   2.508  17.655  0.00  0.00    +0.000 OA
ATOM     28  H   UNL     1      47.973   2.409  19.746  0.00  0.00    +0.000 HD
ATOM     29  H   UNL     1      48.951   3.798  19.433  0.00  0.00    +0.000 HD
ENDBRANCH  17  26
ENDBRANCH  16  21
ENDBRANCH   1  16
TORSDOF 5
ENDMDL
