MODEL 1
REMARK VINA RESULT:    -9.589      0.000      0.000
REMARK INTER + INTRA:         -13.072
REMARK INTER:                 -12.392
REMARK INTRA:                  -0.680
REMARK UNBOUND:                -0.680
REMARK  Name = 
REMARK  5 active torsions:
REMARK  status: ('A' for Active; 'I' for Inactive)
REMARK    1  A    between atoms: C_2  and  C_4
REMARK    2  A    between atoms: C_7  and  N_8
REMARK    3  A    between atoms: N_8  and  C_9
REMARK    4  A    between atoms: C_9  and  C_10
REMARK    5  A    between atoms: C_14  and  C_15
REMARK                            x       y       z     vdW  Elec       q    Type
REMARK                         _______ _______ _______ _____ _____    ______ ____
ROOT
ATOM      1  C   UNL     1      43.919   5.060  11.426  0.00  0.00    +0.000 C 
ATOM      2  C   UNL     1      43.157   4.052  12.283  0.00  0.00    +0.000 C 
ATOM      3  C   UNL     1      42.716   5.475  12.256  0.00  0.00    +0.000 C 
ENDROOT
BRANCH   1   4
ATOM      4  C   UNL     1      45.291   5.524  11.920  0.00  0.00    +0.000 A 
ATOM      5  C   UNL     1      46.022   6.505  11.233  0.00  0.00    +0.000 A 
ATOM      6  C   UNL     1      47.232   6.990  11.721  0.00  0.00    +0.000 A 
ATOM      7  C   UNL     1      47.734   6.513  12.928  0.00  0.00    +0.000 A 
ATOM      8  C   UNL     1      47.043   5.540  13.669  0.00  0.00    +0.000 A 
ATOM      9  C   UNL     1      45.845   5.039  13.122  0.00  0.00    +0.000 A 
BRANCH   8  10
ATOM     10  C   UNL     1      47.521   5.114  15.005  0.00  0.00    +0.000 A 
ATOM     11  C   UNL     1      48.360   5.949  15.768  0.00  0.00    +0.000 A 
ATOM     12  C   UNL     1      48.802   5.577  17.042  0.00  0.00    +0.000 A 
ATOM     13  C   UNL     1      48.397   4.364  17.583  0.00  0.00    +0.000 A 
ATOM     14 CL   UNL     1      48.930   3.909  19.154  0.00  0.00    +0.000 Cl
ATOM     15  C   UNL     1      47.561   3.519  16.859  0.00  0.00    +0.000 A 
ATOM     16  C   UNL     1      47.131   3.890  15.580  0.00  0.00    +0.000 A 
ENDBRANCH   8  10
ENDBRANCH   1   4
BRANCH   1  17
ATOM     17  N   UNL     1      43.821   4.816   9.975  0.00  0.00    +0.000 N 
ATOM     18  H   UNL     1      42.885   4.890   9.585  0.00  0.00    +0.000 HD
BRANCH  17  22
ATOM     19  C   UNL     1      46.394   2.305   7.736  0.00  0.00    +0.000 A 
ATOM     20  C   UNL     1      45.534   1.741   8.681  0.00  0.00    +0.000 A 
ATOM     21  C   UNL     1      44.686   2.559   9.438  0.00  0.00    +0.000 A 
ATOM     22  C   UNL     1      44.636   3.940   9.230  0.00  0.00    +0.000 A 
ATOM     23  C   UNL     1      45.547   4.497   8.317  0.00  0.00    +0.000 A 
ATOM     24  C   UNL     1      46.419   3.691   7.576  0.00  0.00    +0.000 A 
BRANCH  19  26
ATOM     25  N   UNL     1      48.444   2.081   6.440  0.00  0.00    +0.000 N 
ATOM     26  C   UNL     1      47.316   1.474   6.922  0.00  0.00    +0.000 C 
ATOM     27  O   UNL     1      47.108   0.284   6.722  0.00  0.00    +0.000 OA
ATOM     28  H   UNL     1      49.116   1.476   5.988  0.00  0.00    +0.000 HD
ATOM     29  H   UNL     1      48.778   2.958   6.808  0.00  0.00    +0.000 HD
ENDBRANCH  19  26
ENDBRANCH  17  22
ENDBRANCH   1  17
TORSDOF 5
ENDMDL
MODEL 2
REMARK VINA RESULT:    -9.588      2.693      4.075
REMARK INTER + INTRA:         -13.070
REMARK INTER:                 -11.728
REMARK INTRA:                  -1.342
REMARK UNBOUND:                -0.680
REMARK  Name = 
REMARK  5 active torsions:
REMARK  status: ('A' for Active; 'I' for Inactive)
REMARK    1  A    between atoms: C_2  and  C_4
REMARK    2  A    between atoms: C_7  and  N_8
REMARK    3  A    between atoms: N_8  and  C_9
REMARK    4  A    between atoms: C_9  and  C_10
REMARK    5  A    between atoms: C_14  and  C_15
REMARK                            x       y       z     vdW  Elec       q    Type
REMARK                         _______ _______ _______ _____ _____    ______ ____
ROOT
ATOM      1  C   UNL     1      43.834   5.019  11.423  0.00  0.00    +0.000 C 
ATOM      2  C   UNL     1      42.504   5.308  12.114  0.00  0.00    +0.000 C 
ATOM      3  C   UNL     1      43.003   6.239  11.064  0.00  0.00    +0.000 C 
ENDROOT
BRANCH   1   4
ATOM      4  C   UNL     1      45.119   5.269  12.216  0.00  0.00    +0.000 A 
ATOM      5  C   UNL     1      45.556   4.374  13.203  0.00  0.00    +0.000 A 
ATOM      6  C   UNL     1      46.764   4.553  13.869  0.00  0.00    +0.000 A 
ATOM      7  C   UNL     1      47.580   5.634  13.547  0.00  0.00    +0.000 A 
ATOM      8  C   UNL     1      47.205   6.559  12.559  0.00  0.00    +0.000 A 
ATOM      9  C   UNL     1      45.954   6.371  11.937  0.00  0.00    +0.000 A 
BRANCH   8  10
ATOM     10  C   UNL     1      48.122   7.643  12.138  0.00  0.00    +0.000 A 
ATOM     11  C   UNL     1      47.698   8.987  12.148  0.00  0.00    +0.000 A 
ATOM     12  C   UNL     1      48.555  10.028  11.779  0.00  0.00    +0.000 A 
ATOM     13  C   UNL     1      49.862   9.744  11.407  0.00  0.00    +0.000 A 
ATOM     14 CL   UNL     1      50.922  11.023  10.963  0.00  0.00    +0.000 Cl
ATOM     15  C   UNL     1      50.316   8.428  11.395  0.00  0.00    +0.000 A 
ATOM     16  C   UNL     1      49.451   7.388  11.753  0.00  0.00    +0.000 A 
ENDBRANCH   8  10
ENDBRANCH   1   4
BRANCH   1  17
ATOM     17  N   UNL     1      43.833   3.800  10.593  0.00  0.00    +0.000 N 
ATOM     18  H   UNL     1      43.484   2.963  11.053  0.00  0.00    +0.000 HD
BRANCH  17  22
ATOM     19  C   UNL     1      46.531   2.737   7.506  0.00  0.00    +0.000 A 
ATOM     20  C   UNL     1      46.193   4.080   7.691  0.00  0.00    +0.000 A 
ATOM     21  C   UNL     1      45.292   4.445   8.699  0.00  0.00    +0.000 A 
ATOM     22  C   UNL     1      44.759   3.496   9.575  0.00  0.00    +0.000 A 
ATOM     23  C   UNL     1      45.066   2.145   9.341  0.00  0.00    +0.000 A 
ATOM     24  C   UNL     1      45.942   1.766   8.317  0.00  0.00    +0.000 A 
BRANCH  19  26
ATOM     25  N   UNL     1      47.464   3.020   5.275  0.00  0.00    +0.000 N 
ATOM     26  C   UNL     1      47.472   2.307   6.443  0.00  0.00    +0.000 C 
ATOM     27  O   UNL     1      48.257   1.381   6.608  0.00  0.00    +0.000 OA
ATOM     28  H   UNL     1      48.187   2.789   4.607  0.00  0.00    +0.000 HD
ATOM     29  H   UNL     1      47.042   3.934   5.209  0.00  0.00    +0.000 HD
ENDBRANCH  19  26
ENDBRANCH  17  22
ENDBRANCH   1  17
TORSDOF 5
ENDMDL
MODEL 3
REMARK VINA RESULT:    -8.514      2.407      3.147
REMARK INTER + INTRA:         -11.682
REMARK INTER:                 -10.989
REMARK INTRA:                  -0.693
REMARK UNBOUND:                -0.680
REMARK  Name = 
REMARK  5 active torsions:
REMARK  status: ('A' for Active; 'I' for Inactive)
REMARK    1  A    between atoms: C_2  and  C_4
REMARK    2  A    between atoms: C_7  and  N_8
REMARK    3  A    between atoms: N_8  and  C_9
REMARK    4  A    between atoms: C_9  and  C_10
REMARK    5  A    between atoms: C_14  and  C_15
REMARK                            x       y       z     vdW  Elec       q    Type
REMARK                         _______ _______ _______ _____ _____    ______ ____
ROOT
ATOM      1  C   UNL     1      43.997   5.046  11.628  0.00  0.00    +0.000 C 
ATOM      2  C   UNL     1      44.393   4.007  12.675  0.00  0.00    +0.000 C 
ATOM      3  C   UNL     1      43.104   4.740  12.818  0.00  0.00    +0.000 C 
ENDROOT
BRANCH   1   4
ATOM      4  C   UNL     1      44.730   6.390  11.644  0.00  0.00    +0.000 A 
ATOM      5  C   UNL     1      44.062   7.590  11.358  0.00  0.00    +0.000 A 
ATOM      6  C   UNL     1      44.702   8.822  11.450  0.00  0.00    +0.000 A 
ATOM      7  C   UNL     1      46.033   8.884  11.852  0.00  0.00    +0.000 A 
ATOM      8  C   UNL     1      46.753   7.719  12.165  0.00  0.00    +0.000 A 
ATOM      9  C   UNL     1      46.086   6.486  12.016  0.00  0.00    +0.000 A 
BRANCH   8  10
ATOM     10  C   UNL     1      48.132   7.792  12.698  0.00  0.00    +0.000 A 
ATOM     11  C   UNL     1      49.155   8.423  11.963  0.00  0.00    +0.000 A 
ATOM     12  C   UNL     1      50.459   8.525  12.459  0.00  0.00    +0.000 A 
ATOM     13  C   UNL     1      50.760   8.008  13.712  0.00  0.00    +0.000 A 
ATOM     14 CL   UNL     1      52.359   8.142  14.330  0.00  0.00    +0.000 Cl
ATOM     15  C   UNL     1      49.771   7.387  14.469  0.00  0.00    +0.000 A 
ATOM     16  C   UNL     1      48.471   7.276  13.963  0.00  0.00    +0.000 A 
ENDBRANCH   8  10
ENDBRANCH   1   4
BRANCH   1  17
ATOM     17  N   UNL     1      43.734   4.488  10.289  0.00  0.00    +0.000 N 
ATOM     18  H   UNL     1      42.807   4.091  10.159  0.00  0.00    +0.000 HD
BRANCH  17  22
ATOM     19  C   UNL     1      46.500   2.532   7.747  0.00  0.00    +0.000 A 
ATOM     20  C   UNL     1      46.351   3.918   7.663  0.00  0.00    +0.000 A 
ATOM     21  C   UNL     1      45.432   4.577   8.488  0.00  0.00    +0.000 A 
ATOM     22  C   UNL     1      44.690   3.884   9.447  0.00  0.00    +0.000 A 
ATOM     23  C   UNL     1      44.811   2.484   9.480  0.00  0.00    +0.000 A 
ATOM     24  C   UNL     1      45.705   1.811   8.640  0.00  0.00    +0.000 A 
BRANCH  19  26
ATOM     25  N   UNL     1      48.590   2.455   6.499  0.00  0.00    +0.000 N 
ATOM     26  C   UNL     1      47.455   1.794   6.883  0.00  0.00    +0.000 C 
ATOM     27  O   UNL     1      47.265   0.628   6.558  0.00  0.00    +0.000 OA
ATOM     28  H   UNL     1      49.282   1.903   6.009  0.00  0.00    +0.000 HD
ATOM     29  H   UNL     1      48.904   3.293   6.963  0.00  0.00    +0.000 HD
ENDBRANCH  19  26
ENDBRANCH  17  22
ENDBRANCH   1  17
TORSDOF 5
ENDMDL
MODEL 4
REMARK VINA RESULT:    -7.895      4.265      7.820
REMARK INTER + INTRA:         -10.882
REMARK INTER:                  -9.787
REMARK INTRA:                  -1.095
REMARK UNBOUND:                -0.680
REMARK  Name = 
REMARK  5 active torsions:
REMARK  status: ('A' for Active; 'I' for Inactive)
REMARK    1  A    between atoms: C_2  and  C_4
REMARK    2  A    between atoms: C_7  and  N_8
REMARK    3  A    between atoms: N_8  and  C_9
REMARK    4  A    between atoms: C_9  and  C_10
REMARK    5  A    between atoms: C_14  and  C_15
REMARK                            x       y       z     vdW  Elec       q    Type
REMARK                         _______ _______ _______ _____ _____    ______ ____
ROOT
ATOM      1  C   UNL     1      46.271   7.630  12.525  0.00  0.00    +0.000 C 
ATOM      2  C   UNL     1      46.417   9.018  11.908  0.00  0.00    +0.000 C 
ATOM      3  C   UNL     1      45.642   8.853  13.169  0.00  0.00    +0.000 C 
ENDROOT
BRANCH   1   4
ATOM      4  C   UNL     1      45.320   6.642  11.845  0.00  0.00    +0.000 A 
ATOM      5  C   UNL     1      43.930   6.730  12.016  0.00  0.00    +0.000 A 
ATOM      6  C   UNL     1      43.056   5.888  11.336  0.00  0.00    +0.000 A 
ATOM      7  C   UNL     1      43.556   4.940  10.447  0.00  0.00    +0.000 A 
ATOM      8  C   UNL     1      44.937   4.811  10.223  0.00  0.00    +0.000 A 
ATOM      9  C   UNL     1      45.795   5.650  10.963  0.00  0.00    +0.000 A 
BRANCH   8  10
ATOM     10  C   UNL     1      45.462   3.881   9.198  0.00  0.00    +0.000 A 
ATOM     11  C   UNL     1      46.119   4.370   8.052  0.00  0.00    +0.000 A 
ATOM     12  C   UNL     1      46.644   3.509   7.084  0.00  0.00    +0.000 A 
ATOM     13  C   UNL     1      46.534   2.135   7.253  0.00  0.00    +0.000 A 
ATOM     14 CL   UNL     1      47.188   1.073   6.069  0.00  0.00    +0.000 Cl
ATOM     15  C   UNL     1      45.898   1.618   8.377  0.00  0.00    +0.000 A 
ATOM     16  C   UNL     1      45.363   2.484   9.338  0.00  0.00    +0.000 A 
ENDBRANCH   8  10
ENDBRANCH   1   4
BRANCH   1  17
ATOM     17  N   UNL     1      47.534   7.050  13.018  0.00  0.00    +0.000 N 
ATOM     18  H   UNL     1      48.188   6.759  12.296  0.00  0.00    +0.000 HD
BRANCH  17  22
ATOM     19  C   UNL     1      47.988   4.658  16.484  0.00  0.00    +0.000 A 
ATOM     20  C   UNL     1      48.692   5.861  16.382  0.00  0.00    +0.000 A 
ATOM     21  C   UNL     1      48.561   6.656  15.236  0.00  0.00    +0.000 A 
ATOM     22  C   UNL     1      47.690   6.303  14.203  0.00  0.00    +0.000 A 
ATOM     23  C   UNL     1      47.033   5.064  14.297  0.00  0.00    +0.000 A 
ATOM     24  C   UNL     1      47.178   4.247  15.424  0.00  0.00    +0.000 A 
BRANCH  19  26
ATOM     25  N   UNL     1      47.138   2.830  17.850  0.00  0.00    +0.000 N 
ATOM     26  C   UNL     1      48.106   3.781  17.675  0.00  0.00    +0.000 C 
ATOM     27  O   UNL     1      49.050   3.868  18.451  0.00  0.00    +0.000 OA
ATOM     28  H   UNL     1      47.295   2.168  18.599  0.00  0.00    +0.000 HD
ATOM     29  H   UNL     1      46.518   2.554  17.105  0.00  0.00    +0.000 HD
ENDBRANCH  19  26
ENDBRANCH  17  22
ENDBRANCH   1  17
TORSDOF 5
ENDMDL
MODEL 5
REMARK VINA RESULT:    -7.089      3.151      4.337
REMARK INTER + INTRA:          -9.841
REMARK INTER:                  -9.219
REMARK INTRA:                  -0.622
REMARK UNBOUND:                -0.680
REMARK  Name = 
REMARK  5 active torsions:
REMARK  status: ('A' for Active; 'I' for Inactive)
REMARK    1  A    between atoms: C_2  and  C_4
REMARK    2  A    between atoms: C_7  and  N_8
REMARK    3  A    between atoms: N_8  and  C_9
REMARK    4  A    between atoms: C_9  and  C_10
REMARK    5  A    between atoms: C_14  and  C_15
REMARK                            x       y       z     vdW  Elec       q    Type
REMARK                         _______ _______ _______ _____ _____    ______ ____
ROOT
ATOM      1  C   UNL     1      45.322   5.416  12.247  0.00  0.00    +0.000 C 
ATOM      2  C   UNL     1      46.204   4.321  12.843  0.00  0.00    +0.000 C 
ATOM      3  C   UNL     1      45.068   4.862  13.639  0.00  0.00    +0.000 C 
ENDROOT
BRANCH   1   4
ATOM      4  C   UNL     1      45.899   6.831  12.163  0.00  0.00    +0.000 A 
ATOM      5  C   UNL     1      45.127   7.956  12.491  0.00  0.00    +0.000 A 
ATOM      6  C   UNL     1      45.670   9.238  12.495  0.00  0.00    +0.000 A 
ATOM      7  C   UNL     1      47.014   9.423  12.186  0.00  0.00    +0.000 A 
ATOM      8  C   UNL     1      47.842   8.336  11.861  0.00  0.00    +0.000 A 
ATOM      9  C   UNL     1      47.248   7.058  11.822  0.00  0.00    +0.000 A 
BRANCH   8  10
ATOM     10  C   UNL     1      49.295   8.519  11.641  0.00  0.00    +0.000 A 
ATOM     11  C   UNL     1      49.942   9.698  12.060  0.00  0.00    +0.000 A 
ATOM     12  C   UNL     1      51.317   9.882  11.885  0.00  0.00    +0.000 A 
ATOM     13  C   UNL     1      52.075   8.877  11.298  0.00  0.00    +0.000 A 
ATOM     14 CL   UNL     1      53.769   9.095  11.090  0.00  0.00    +0.000 Cl
ATOM     15  C   UNL     1      51.469   7.697  10.880  0.00  0.00    +0.000 A 
ATOM     16  C   UNL     1      50.090   7.523  11.046  0.00  0.00    +0.000 A 
ENDBRANCH   8  10
ENDBRANCH   1   4
BRANCH   1  17
ATOM     17  N   UNL     1      44.531   4.988  11.079  0.00  0.00    +0.000 N 
ATOM     18  H   UNL     1      43.560   4.758  11.274  0.00  0.00    +0.000 HD
BRANCH  17  22
ATOM     19  C   UNL     1      46.154   2.988   7.717  0.00  0.00    +0.000 A 
ATOM     20  C   UNL     1      45.481   2.252   8.696  0.00  0.00    +0.000 A 
ATOM     21  C   UNL     1      44.950   2.898   9.819  0.00  0.00    +0.000 A 
ATOM     22  C   UNL     1      45.026   4.285   9.962  0.00  0.00    +0.000 A 
ATOM     23  C   UNL     1      45.753   5.003   8.998  0.00  0.00    +0.000 A 
ATOM     24  C   UNL     1      46.314   4.364   7.885  0.00  0.00    +0.000 A 
BRANCH  19  26
ATOM     25  N   UNL     1      47.221   1.067   6.667  0.00  0.00    +0.000 N 
ATOM     26  C   UNL     1      46.742   2.340   6.518  0.00  0.00    +0.000 C 
ATOM     27  O   UNL     1      46.762   2.896   5.427  0.00  0.00    +0.000 OA
ATOM     28  H   UNL     1      47.511   0.599   5.818  0.00  0.00    +0.000 HD
ATOM     29  H   UNL     1      46.975   0.491   7.457  0.00  0.00    +0.000 HD
ENDBRANCH  19  26
ENDBRANCH  17  22
ENDBRANCH   1  17
TORSDOF 5
ENDMDL
MODEL 6
REMARK VINA RESULT:    -7.048      5.202      8.536
REMARK INTER + INTRA:          -9.788
REMARK INTER:                  -8.813
REMARK INTRA:                  -0.974
REMARK UNBOUND:                -0.680
REMARK  Name = 
REMARK  5 active torsions:
REMARK  status: ('A' for Active; 'I' for Inactive)
REMARK    1  A    between atoms: C_2  and  C_4
REMARK    2  A    between atoms: C_7  and  N_8
REMARK    3  A    between atoms: N_8  and  C_9
REMARK    4  A    between atoms: C_9  and  C_10
REMARK    5  A    between atoms: C_14  and  C_15
REMARK                            x       y       z     vdW  Elec       q    Type
REMARK                         _______ _______ _______ _____ _____    ______ ____
ROOT
ATOM      1  C   UNL     1      48.656   5.153  17.531  0.00  0.00    +0.000 C 
ATOM      2  C   UNL     1      47.585   5.551  18.543  0.00  0.00    +0.000 C 
ATOM      3  C   UNL     1      47.484   4.240  17.845  0.00  0.00    +0.000 C 
ENDROOT
BRANCH   1   4
ATOM      4  C   UNL     1      48.642   5.848  16.167  0.00  0.00    +0.000 A 
ATOM      5  C   UNL     1      49.635   6.771  15.807  0.00  0.00    +0.000 A 
ATOM      6  C   UNL     1      49.675   7.345  14.539  0.00  0.00    +0.000 A 
ATOM      7  C   UNL     1      48.722   6.990  13.588  0.00  0.00    +0.000 A 
ATOM      8  C   UNL     1      47.710   6.063  13.883  0.00  0.00    +0.000 A 
ATOM      9  C   UNL     1      47.674   5.537  15.191  0.00  0.00    +0.000 A 
BRANCH   8  10
ATOM     10  C   UNL     1      46.765   5.603  12.840  0.00  0.00    +0.000 A 
ATOM     11  C   UNL     1      46.611   6.326  11.641  0.00  0.00    +0.000 A 
ATOM     12  C   UNL     1      45.743   5.897  10.632  0.00  0.00    +0.000 A 
ATOM     13  C   UNL     1      45.022   4.722  10.799  0.00  0.00    +0.000 A 
ATOM     14 CL   UNL     1      43.961   4.185   9.556  0.00  0.00    +0.000 Cl
ATOM     15  C   UNL     1      45.157   3.979  11.968  0.00  0.00    +0.000 A 
ATOM     16  C   UNL     1      46.017   4.419  12.980  0.00  0.00    +0.000 A 
ENDBRANCH   8  10
ENDBRANCH   1   4
BRANCH   1  17
ATOM     17  N   UNL     1      49.993   4.939  18.115  0.00  0.00    +0.000 N 
ATOM     18  H   UNL     1      50.550   5.780  18.243  0.00  0.00    +0.000 HD
BRANCH  17  22
ATOM     19  C   UNL     1      52.488   1.539  17.722  0.00  0.00    +0.000 A 
ATOM     20  C   UNL     1      51.182   1.495  17.226  0.00  0.00    +0.000 A 
ATOM     21  C   UNL     1      50.342   2.607  17.360  0.00  0.00    +0.000 A 
ATOM     22  C   UNL     1      50.798   3.796  17.933  0.00  0.00    +0.000 A 
ATOM     23  C   UNL     1      52.093   3.805  18.476  0.00  0.00    +0.000 A 
ATOM     24  C   UNL     1      52.933   2.690  18.374  0.00  0.00    +0.000 A 
BRANCH  19  26
ATOM     25  N   UNL     1      53.204  -0.663  18.474  0.00  0.00    +0.000 N 
ATOM     26  C   UNL     1      53.406   0.379  17.611  0.00  0.00    +0.000 C 
ATOM     27  O   UNL     1      54.283   0.327  16.757  0.00  0.00    +0.000 OA
ATOM     28  H   UNL     1      53.761  -1.491  18.311  0.00  0.00    +0.000 HD
ATOM     29  H   UNL     1      52.344  -0.773  18.988  0.00  0.00    +0.000 HD
ENDBRANCH  19  26
ENDBRANCH  17  22
ENDBRANCH   1  17
TORSDOF 5
ENDMDL
MODEL 7
REMARK VINA RESULT:    -6.901      2.973      4.822
REMARK INTER + INTRA:          -9.598
REMARK INTER:                  -8.428
REMARK INTRA:                  -1.170
REMARK UNBOUND:                -0.680
REMARK  Name = 
REMARK  5 active torsions:
REMARK  status: ('A' for Active; 'I' for Inactive)
REMARK    1  A    between atoms: C_2  and  C_4
REMARK    2  A    between atoms: C_7  and  N_8
REMARK    3  A    between atoms: N_8  and  C_9
REMARK    4  A    between atoms: C_9  and  C_10
REMARK    5  A    between atoms: C_14  and  C_15
REMARK                            x       y       z     vdW  Elec       q    Type
REMARK                         _______ _______ _______ _____ _____    ______ ____
ROOT
ATOM      1  C   UNL     1      47.968   7.933  12.887  0.00  0.00    +0.000 C 
ATOM      2  C   UNL     1      48.635   8.882  11.894  0.00  0.00    +0.000 C 
ATOM      3  C   UNL     1      48.988   7.436  11.877  0.00  0.00    +0.000 C 
ENDROOT
BRANCH   1   4
ATOM      4  C   UNL     1      48.420   7.996  14.348  0.00  0.00    +0.000 A 
ATOM      5  C   UNL     1      47.934   8.981  15.221  0.00  0.00    +0.000 A 
ATOM      6  C   UNL     1      48.277   8.995  16.570  0.00  0.00    +0.000 A 
ATOM      7  C   UNL     1      49.108   8.003  17.084  0.00  0.00    +0.000 A 
ATOM      8  C   UNL     1      49.616   6.983  16.264  0.00  0.00    +0.000 A 
ATOM      9  C   UNL     1      49.285   7.026  14.894  0.00  0.00    +0.000 A 
BRANCH   8  10
ATOM     10  C   UNL     1      50.408   5.867  16.832  0.00  0.00    +0.000 A 
ATOM     11  C   UNL     1      49.779   4.674  17.240  0.00  0.00    +0.000 A 
ATOM     12  C   UNL     1      50.510   3.600  17.756  0.00  0.00    +0.000 A 
ATOM     13  C   UNL     1      51.892   3.694  17.858  0.00  0.00    +0.000 A 
ATOM     14 CL   UNL     1      52.796   2.370  18.482  0.00  0.00    +0.000 Cl
ATOM     15  C   UNL     1      52.546   4.855  17.456  0.00  0.00    +0.000 A 
ATOM     16  C   UNL     1      51.808   5.933  16.952  0.00  0.00    +0.000 A 
ENDBRANCH   8  10
ENDBRANCH   1   4
BRANCH   1  17
ATOM     17  N   UNL     1      46.518   7.764  12.683  0.00  0.00    +0.000 N 
ATOM     18  H   UNL     1      45.927   8.371  13.245  0.00  0.00    +0.000 HD
BRANCH  17  22
ATOM     19  C   UNL     1      44.646   4.146  11.521  0.00  0.00    +0.000 A 
ATOM     20  C   UNL     1      45.027   4.326  12.853  0.00  0.00    +0.000 A 
ATOM     21  C   UNL     1      45.658   5.511  13.249  0.00  0.00    +0.000 A 
ATOM     22  C   UNL     1      45.869   6.558  12.348  0.00  0.00    +0.000 A 
ATOM     23  C   UNL     1      45.530   6.339  11.002  0.00  0.00    +0.000 A 
ATOM     24  C   UNL     1      44.926   5.147  10.589  0.00  0.00    +0.000 A 
BRANCH  19  26
ATOM     25  N   UNL     1      44.525   2.276   9.966  0.00  0.00    +0.000 N 
ATOM     26  C   UNL     1      43.986   2.901  11.057  0.00  0.00    +0.000 C 
ATOM     27  O   UNL     1      43.025   2.420  11.646  0.00  0.00    +0.000 OA
ATOM     28  H   UNL     1      44.137   1.371   9.733  0.00  0.00    +0.000 HD
ATOM     29  H   UNL     1      45.455   2.484   9.635  0.00  0.00    +0.000 HD
ENDBRANCH  19  26
ENDBRANCH  17  22
ENDBRANCH   1  17
TORSDOF 5
ENDMDL
MODEL 8
REMARK VINA RESULT:    -6.783      4.804      8.461
REMARK INTER + INTRA:          -9.445
REMARK INTER:                  -8.121
REMARK INTRA:                  -1.324
REMARK UNBOUND:                -0.680
REMARK  Name = 
REMARK  5 active torsions:
REMARK  status: ('A' for Active; 'I' for Inactive)
REMARK    1  A    between atoms: C_2  and  C_4
REMARK    2  A    between atoms: C_7  and  N_8
REMARK    3  A    between atoms: N_8  and  C_9
REMARK    4  A    between atoms: C_9  and  C_10
REMARK    5  A    between atoms: C_14  and  C_15
REMARK                            x       y       z     vdW  Elec       q    Type
REMARK                         _______ _______ _______ _____ _____    ______ ____
ROOT
ATOM      1  C   UNL     1      49.552   8.431  12.760  0.00  0.00    +0.000 C 
ATOM      2  C   UNL     1      50.418   8.319  11.508  0.00  0.00    +0.000 C 
ATOM      3  C   UNL     1      50.120   9.663  12.076  0.00  0.00    +0.000 C 
ENDROOT
BRANCH   1   4
ATOM      4  C   UNL     1      48.047   8.192  12.611  0.00  0.00    +0.000 A 
ATOM      5  C   UNL     1      47.114   9.197  12.908  0.00  0.00    +0.000 A 
ATOM      6  C   UNL     1      45.751   9.013  12.697  0.00  0.00    +0.000 A 
ATOM      7  C   UNL     1      45.287   7.815  12.162  0.00  0.00    +0.000 A 
ATOM      8  C   UNL     1      46.172   6.775  11.833  0.00  0.00    +0.000 A 
ATOM      9  C   UNL     1      47.541   6.979  12.102  0.00  0.00    +0.000 A 
BRANCH   8  10
ATOM     10  C   UNL     1      45.691   5.546  11.162  0.00  0.00    +0.000 A 
ATOM     11  C   UNL     1      45.695   5.445   9.757  0.00  0.00    +0.000 A 
ATOM     12  C   UNL     1      45.269   4.284   9.104  0.00  0.00    +0.000 A 
ATOM     13  C   UNL     1      44.844   3.192   9.850  0.00  0.00    +0.000 A 
ATOM     14 CL   UNL     1      44.330   1.759   9.050  0.00  0.00    +0.000 Cl
ATOM     15  C   UNL     1      44.836   3.255  11.240  0.00  0.00    +0.000 A 
ATOM     16  C   UNL     1      45.251   4.424  11.888  0.00  0.00    +0.000 A 
ENDBRANCH   8  10
ENDBRANCH   1   4
BRANCH   1  17
ATOM     17  N   UNL     1      50.163   7.858  13.973  0.00  0.00    +0.000 N 
ATOM     18  H   UNL     1      50.909   7.187  13.807  0.00  0.00    +0.000 HD
BRANCH  17  22
ATOM     19  C   UNL     1      48.258   6.989  17.655  0.00  0.00    +0.000 A 
ATOM     20  C   UNL     1      48.619   8.306  17.362  0.00  0.00    +0.000 A 
ATOM     21  C   UNL     1      49.262   8.607  16.155  0.00  0.00    +0.000 A 
ATOM     22  C   UNL     1      49.502   7.620  15.195  0.00  0.00    +0.000 A 
ATOM     23  C   UNL     1      49.183   6.293  15.528  0.00  0.00    +0.000 A 
ATOM     24  C   UNL     1      48.567   5.977  16.745  0.00  0.00    +0.000 A 
BRANCH  19  26
ATOM     25  N   UNL     1      46.674   5.607  18.884  0.00  0.00    +0.000 N 
ATOM     26  C   UNL     1      47.586   6.626  18.927  0.00  0.00    +0.000 C 
ATOM     27  O   UNL     1      47.862   7.178  19.985  0.00  0.00    +0.000 OA
ATOM     28  H   UNL     1      46.312   5.296  19.776  0.00  0.00    +0.000 HD
ATOM     29  H   UNL     1      46.627   4.962  18.111  0.00  0.00    +0.000 HD
ENDBRANCH  19  26
ENDBRANCH  17  22
ENDBRANCH   1  17
TORSDOF 5
ENDMDL
MODEL 9
REMARK VINA RESULT:    -6.702      4.761      8.094
REMARK INTER + INTRA:          -9.341
REMARK INTER:                  -7.920
REMARK INTRA:                  -1.421
REMARK UNBOUND:                -0.680
REMARK  Name = 
REMARK  5 active torsions:
REMARK  status: ('A' for Active; 'I' for Inactive)
REMARK    1  A    between atoms: C_2  and  C_4
REMARK    2  A    between atoms: C_7  and  N_8
REMARK    3  A    between atoms: N_8  and  C_9
REMARK    4  A    between atoms: C_9  and  C_10
REMARK    5  A    between atoms: C_14  and  C_15
REMARK                            x       y       z     vdW  Elec       q    Type
REMARK                         _______ _______ _______ _____ _____    ______ ____
ROOT
ATOM      1  C   UNL     1      49.095   8.674  17.028  0.00  0.00    +0.000 C 
ATOM      2  C   UNL     1      49.239  10.148  17.398  0.00  0.00    +0.000 C 
ATOM      3  C   UNL     1      47.887   9.524  17.382  0.00  0.00    +0.000 C 
ENDROOT
BRANCH   1   4
ATOM      4  C   UNL     1      49.259   8.288  15.556  0.00  0.00    +0.000 A 
ATOM      5  C   UNL     1      50.462   8.513  14.870  0.00  0.00    +0.000 A 
ATOM      6  C   UNL     1      50.644   8.092  13.557  0.00  0.00    +0.000 A 
ATOM      7  C   UNL     1      49.623   7.412  12.899  0.00  0.00    +0.000 A 
ATOM      8  C   UNL     1      48.400   7.146  13.534  0.00  0.00    +0.000 A 
ATOM      9  C   UNL     1      48.234   7.628  14.849  0.00  0.00    +0.000 A 
BRANCH   8  10
ATOM     10  C   UNL     1      47.357   6.328  12.874  0.00  0.00    +0.000 A 
ATOM     11  C   UNL     1      46.825   5.189  13.511  0.00  0.00    +0.000 A 
ATOM     12  C   UNL     1      45.823   4.417  12.916  0.00  0.00    +0.000 A 
ATOM     13  C   UNL     1      45.319   4.782  11.674  0.00  0.00    +0.000 A 
ATOM     14 CL   UNL     1      44.078   3.841  10.945  0.00  0.00    +0.000 Cl
ATOM     15  C   UNL     1      45.816   5.906  11.021  0.00  0.00    +0.000 A 
ATOM     16  C   UNL     1      46.828   6.668  11.615  0.00  0.00    +0.000 A 
ENDBRANCH   8  10
ENDBRANCH   1   4
BRANCH   1  17
ATOM     17  N   UNL     1      49.708   7.744  17.994  0.00  0.00    +0.000 N 
ATOM     18  H   UNL     1      50.419   8.151  18.597  0.00  0.00    +0.000 HD
BRANCH  17  22
ATOM     19  C   UNL     1      50.187   3.596  17.285  0.00  0.00    +0.000 A 
ATOM     20  C   UNL     1      51.317   4.404  17.428  0.00  0.00    +0.000 A 
ATOM     21  C   UNL     1      51.175   5.779  17.650  0.00  0.00    +0.000 A 
ATOM     22  C   UNL     1      49.915   6.365  17.792  0.00  0.00    +0.000 A 
ATOM     23  C   UNL     1      48.789   5.549  17.591  0.00  0.00    +0.000 A 
ATOM     24  C   UNL     1      48.919   4.178  17.339  0.00  0.00    +0.000 A 
BRANCH  19  26
ATOM     25  N   UNL     1      51.144   1.427  17.841  0.00  0.00    +0.000 N 
ATOM     26  C   UNL     1      50.294   2.137  17.038  0.00  0.00    +0.000 C 
ATOM     27  O   UNL     1      49.622   1.575  16.182  0.00  0.00    +0.000 OA
ATOM     28  H   UNL     1      51.119   0.421  17.737  0.00  0.00    +0.000 HD
ATOM     29  H   UNL     1      51.492   1.798  18.712  0.00  0.00    +0.000 HD
ENDBRANCH  19  26
ENDBRANCH  17  22
ENDBRANCH   1  17
TORSDOF 5
ENDMDL
