MODEL 1
REMARK VINA RESULT:    -9.289      0.000      0.000
REMARK INTER + INTRA:         -12.067
REMARK INTER:                 -11.461
REMARK INTRA:                  -0.606
REMARK UNBOUND:                -0.606
REMARK  Name = 
REMARK  5 active torsions:
REMARK  status: ('A' for Active; 'I' for Inactive)
REMARK    1  A    between atoms: C_1  and  C_2
REMARK    2  A    between atoms: C_12  and  C_13
REMARK    3  A    between atoms: C_13  and  N_14
REMARK    4  A    between atoms: N_14  and  C_15
REMARK    5  A    between atoms: C_18  and  C_19
REMARK                            x       y       z     vdW  Elec       q    Type
REMARK                         _______ _______ _______ _____ _____    ______ ____
ROOT
ATOM      1  C   UNL     1      43.986   4.876  11.472  0.00  0.00    +0.000 C 
ATOM      2  C   UNL     1      43.389   6.275  11.407  0.00  0.00    +0.000 C 
ATOM      3  C   UNL     1      42.731   5.249  12.265  0.00  0.00    +0.000 C 
ENDROOT
BRANCH   1  15
ATOM      4  C   UNL     1      48.233   7.415  11.405  0.00  0.00    +0.000 C 
ATOM      5  C   UNL     1      48.766   7.298  12.831  0.00  0.00    +0.000 C 
ATOM      6  C   UNL     1      49.045   8.723  13.384  0.00  0.00    +0.000 C 
ATOM      7  O   UNL     1      49.599   8.686  14.713  0.00  0.00    +0.000 OA
ATOM      8  C   UNL     1      48.697   8.021  15.610  0.00  0.00    +0.000 C 
ATOM      9  C   UNL     1      48.448   6.579  15.157  0.00  0.00    +0.000 C 
ATOM     10  N   UNL     1      47.873   6.597  13.797  0.00  0.00    +0.000 N 
ATOM     11  C   UNL     1      47.130   5.492  13.400  0.00  0.00    +0.000 A 
ATOM     12  C   UNL     1      47.309   4.225  13.935  0.00  0.00    +0.000 A 
ATOM     13  N   UNL     1      46.507   3.186  13.637  0.00  0.00    +0.000 NA
ATOM     14  N   UNL     1      45.472   3.414  12.810  0.00  0.00    +0.000 NA
ATOM     15  C   UNL     1      45.268   4.659  12.307  0.00  0.00    +0.000 A 
ATOM     16  N   UNL     1      46.098   5.702  12.558  0.00  0.00    +0.000 NA
ENDBRANCH   1  15
BRANCH   1  17
ATOM     17  N   UNL     1      43.755   3.882  10.390  0.00  0.00    +0.000 N 
ATOM     18  H   UNL     1      43.178   3.088  10.661  0.00  0.00    +0.000 HD
BRANCH  17  19
ATOM     19  C   UNL     1      44.743   3.519   9.450  0.00  0.00    +0.000 A 
ATOM     20  C   UNL     1      45.066   2.165   9.297  0.00  0.00    +0.000 A 
ATOM     21  C   UNL     1      45.959   1.756   8.306  0.00  0.00    +0.000 A 
ATOM     22  C   UNL     1      46.491   2.728   7.472  0.00  0.00    +0.000 A 
ATOM     23  N   UNL     1      46.193   4.051   7.563  0.00  0.00    +0.000 NA
ATOM     24  C   UNL     1      45.326   4.403   8.541  0.00  0.00    +0.000 A 
BRANCH  22  25
ATOM     25  C   UNL     1      47.447   2.352   6.390  0.00  0.00    +0.000 C 
ATOM     26  N   UNL     1      47.406   3.156   5.283  0.00  0.00    +0.000 N 
ATOM     27  O   UNL     1      48.208   1.398   6.473  0.00  0.00    +0.000 OA
ATOM     28  H   UNL     1      46.748   3.928   5.264  0.00  0.00    +0.000 HD
ATOM     29  H   UNL     1      48.018   2.971   4.504  0.00  0.00    +0.000 HD
ENDBRANCH  22  25
ENDBRANCH  17  19
ENDBRANCH   1  17
TORSDOF 4
ENDMDL
MODEL 2
REMARK VINA RESULT:    -7.616      1.450      2.463
REMARK INTER + INTRA:         -10.003
REMARK INTER:                 -10.058
REMARK INTRA:                   0.055
REMARK UNBOUND:                -0.606
REMARK  Name = 
REMARK  5 active torsions:
REMARK  status: ('A' for Active; 'I' for Inactive)
REMARK    1  A    between atoms: C_1  and  C_2
REMARK    2  A    between atoms: C_12  and  C_13
REMARK    3  A    between atoms: C_13  and  N_14
REMARK    4  A    between atoms: N_14  and  C_15
REMARK    5  A    between atoms: C_18  and  C_19
REMARK                            x       y       z     vdW  Elec       q    Type
REMARK                         _______ _______ _______ _____ _____    ______ ____
ROOT
ATOM      1  C   UNL     1      44.326   4.303  11.667  0.00  0.00    +0.000 C 
ATOM      2  C   UNL     1      43.746   3.610  12.893  0.00  0.00    +0.000 C 
ATOM      3  C   UNL     1      45.139   3.287  12.473  0.00  0.00    +0.000 C 
ENDROOT
BRANCH   1  15
ATOM      4  C   UNL     1      47.813   6.275  14.573  0.00  0.00    +0.000 C 
ATOM      5  C   UNL     1      48.327   7.476  13.783  0.00  0.00    +0.000 C 
ATOM      6  C   UNL     1      49.871   7.367  13.645  0.00  0.00    +0.000 C 
ATOM      7  O   UNL     1      50.431   8.498  12.952  0.00  0.00    +0.000 OA
ATOM      8  C   UNL     1      49.866   8.605  11.637  0.00  0.00    +0.000 C 
ATOM      9  C   UNL     1      48.348   8.798  11.715  0.00  0.00    +0.000 C 
ATOM     10  N   UNL     1      47.755   7.643  12.417  0.00  0.00    +0.000 N 
ATOM     11  C   UNL     1      46.416   7.361  12.172  0.00  0.00    +0.000 A 
ATOM     12  C   UNL     1      45.502   8.321  11.761  0.00  0.00    +0.000 A 
ATOM     13  N   UNL     1      44.239   8.021  11.407  0.00  0.00    +0.000 NA
ATOM     14  N   UNL     1      43.876   6.727  11.427  0.00  0.00    +0.000 NA
ATOM     15  C   UNL     1      44.773   5.776  11.797  0.00  0.00    +0.000 A 
ATOM     16  N   UNL     1      46.033   6.069  12.204  0.00  0.00    +0.000 NA
ENDBRANCH   1  15
BRANCH   1  17
ATOM     17  N   UNL     1      43.983   3.860  10.290  0.00  0.00    +0.000 N 
ATOM     18  H   UNL     1      43.146   3.285  10.226  0.00  0.00    +0.000 HD
BRANCH  17  19
ATOM     19  C   UNL     1      44.952   3.489   9.334  0.00  0.00    +0.000 A 
ATOM     20  C   UNL     1      45.227   2.128   9.142  0.00  0.00    +0.000 A 
ATOM     21  C   UNL     1      46.099   1.715   8.135  0.00  0.00    +0.000 A 
ATOM     22  C   UNL     1      46.661   2.689   7.324  0.00  0.00    +0.000 A 
ATOM     23  N   UNL     1      46.411   4.020   7.453  0.00  0.00    +0.000 NA
ATOM     24  C   UNL     1      45.561   4.376   8.445  0.00  0.00    +0.000 A 
BRANCH  22  25
ATOM     25  C   UNL     1      47.598   2.309   6.226  0.00  0.00    +0.000 C 
ATOM     26  N   UNL     1      47.528   3.103   5.113  0.00  0.00    +0.000 N 
ATOM     27  O   UNL     1      48.366   1.362   6.303  0.00  0.00    +0.000 OA
ATOM     28  H   UNL     1      46.865   3.870   5.100  0.00  0.00    +0.000 HD
ATOM     29  H   UNL     1      48.125   2.914   4.323  0.00  0.00    +0.000 HD
ENDBRANCH  22  25
ENDBRANCH  17  19
ENDBRANCH   1  17
TORSDOF 4
ENDMDL
MODEL 3
REMARK VINA RESULT:    -7.015      3.260      5.652
REMARK INTER + INTRA:          -9.261
REMARK INTER:                  -8.754
REMARK INTRA:                  -0.507
REMARK UNBOUND:                -0.606
REMARK  Name = 
REMARK  5 active torsions:
REMARK  status: ('A' for Active; 'I' for Inactive)
REMARK    1  A    between atoms: C_1  and  C_2
REMARK    2  A    between atoms: C_12  and  C_13
REMARK    3  A    between atoms: C_13  and  N_14
REMARK    4  A    between atoms: N_14  and  C_15
REMARK    5  A    between atoms: C_18  and  C_19
REMARK                            x       y       z     vdW  Elec       q    Type
REMARK                         _______ _______ _______ _____ _____    ______ ____
ROOT
ATOM      1  C   UNL     1      47.984   7.452  13.599  0.00  0.00    +0.000 C 
ATOM      2  C   UNL     1      48.957   7.119  12.477  0.00  0.00    +0.000 C 
ATOM      3  C   UNL     1      48.741   8.547  12.844  0.00  0.00    +0.000 C 
ENDROOT
BRANCH   1  15
ATOM      4  C   UNL     1      47.836   3.289  16.272  0.00  0.00    +0.000 C 
ATOM      5  C   UNL     1      49.017   3.414  17.231  0.00  0.00    +0.000 C 
ATOM      6  C   UNL     1      49.913   2.151  17.098  0.00  0.00    +0.000 C 
ATOM      7  O   UNL     1      51.023   2.179  18.014  0.00  0.00    +0.000 OA
ATOM      8  C   UNL     1      51.836   3.338  17.776  0.00  0.00    +0.000 C 
ATOM      9  C   UNL     1      51.022   4.620  17.975  0.00  0.00    +0.000 C 
ATOM     10  N   UNL     1      49.881   4.613  17.037  0.00  0.00    +0.000 N 
ATOM     11  C   UNL     1      49.324   5.839  16.695  0.00  0.00    +0.000 A 
ATOM     12  C   UNL     1      49.395   6.959  17.511  0.00  0.00    +0.000 A 
ATOM     13  N   UNL     1      48.962   8.173  17.124  0.00  0.00    +0.000 NA
ATOM     14  N   UNL     1      48.475   8.293  15.877  0.00  0.00    +0.000 NA
ATOM     15  C   UNL     1      48.432   7.209  15.059  0.00  0.00    +0.000 A 
ATOM     16  N   UNL     1      48.816   5.970  15.453  0.00  0.00    +0.000 NA
ENDBRANCH   1  15
BRANCH   1  17
ATOM     17  N   UNL     1      46.514   7.458  13.377  0.00  0.00    +0.000 N 
ATOM     18  H   UNL     1      45.981   7.956  14.087  0.00  0.00    +0.000 HD
BRANCH  17  19
ATOM     19  C   UNL     1      45.805   6.351  12.864  0.00  0.00    +0.000 A 
ATOM     20  C   UNL     1      45.362   6.387  11.536  0.00  0.00    +0.000 A 
ATOM     21  C   UNL     1      44.752   5.273  10.960  0.00  0.00    +0.000 A 
ATOM     22  C   UNL     1      44.623   4.132  11.736  0.00  0.00    +0.000 A 
ATOM     23  N   UNL     1      45.055   4.036  13.021  0.00  0.00    +0.000 NA
ATOM     24  C   UNL     1      45.638   5.142  13.541  0.00  0.00    +0.000 A 
BRANCH  22  25
ATOM     25  C   UNL     1      43.983   2.906  11.174  0.00  0.00    +0.000 C 
ATOM     26  N   UNL     1      44.595   2.400  10.059  0.00  0.00    +0.000 N 
ATOM     27  O   UNL     1      42.987   2.391  11.660  0.00  0.00    +0.000 OA
ATOM     28  H   UNL     1      45.413   2.873   9.692  0.00  0.00    +0.000 HD
ATOM     29  H   UNL     1      44.225   1.574   9.614  0.00  0.00    +0.000 HD
ENDBRANCH  22  25
ENDBRANCH  17  19
ENDBRANCH   1  17
TORSDOF 4
ENDMDL
MODEL 4
REMARK VINA RESULT:    -6.806      2.196      7.651
REMARK INTER + INTRA:          -9.004
REMARK INTER:                  -8.492
REMARK INTRA:                  -0.511
REMARK UNBOUND:                -0.606
REMARK  Name = 
REMARK  5 active torsions:
REMARK  status: ('A' for Active; 'I' for Inactive)
REMARK    1  A    between atoms: C_1  and  C_2
REMARK    2  A    between atoms: C_12  and  C_13
REMARK    3  A    between atoms: C_13  and  N_14
REMARK    4  A    between atoms: N_14  and  C_15
REMARK    5  A    between atoms: C_18  and  C_19
REMARK                            x       y       z     vdW  Elec       q    Type
REMARK                         _______ _______ _______ _____ _____    ______ ____
ROOT
ATOM      1  C   UNL     1      45.740   5.784  12.168  0.00  0.00    +0.000 C 
ATOM      2  C   UNL     1      44.866   6.787  12.907  0.00  0.00    +0.000 C 
ATOM      3  C   UNL     1      45.587   7.226  11.679  0.00  0.00    +0.000 C 
ENDROOT
BRANCH   1  15
ATOM      4  C   UNL     1      46.472   4.650   7.406  0.00  0.00    +0.000 C 
ATOM      5  C   UNL     1      46.162   3.158   7.322  0.00  0.00    +0.000 C 
ATOM      6  C   UNL     1      47.374   2.425   6.681  0.00  0.00    +0.000 C 
ATOM      7  O   UNL     1      47.129   1.015   6.524  0.00  0.00    +0.000 OA
ATOM      8  C   UNL     1      46.857   0.412   7.798  0.00  0.00    +0.000 C 
ATOM      9  C   UNL     1      45.618   1.042   8.442  0.00  0.00    +0.000 C 
ATOM     10  N   UNL     1      45.853   2.489   8.617  0.00  0.00    +0.000 N 
ATOM     11  C   UNL     1      45.114   3.145   9.594  0.00  0.00    +0.000 A 
ATOM     12  C   UNL     1      43.874   2.703  10.031  0.00  0.00    +0.000 A 
ATOM     13  N   UNL     1      43.219   3.271  11.060  0.00  0.00    +0.000 NA
ATOM     14  N   UNL     1      43.823   4.286  11.702  0.00  0.00    +0.000 NA
ATOM     15  C   UNL     1      45.052   4.704  11.302  0.00  0.00    +0.000 A 
ATOM     16  N   UNL     1      45.701   4.176  10.235  0.00  0.00    +0.000 NA
ENDBRANCH   1  15
BRANCH   1  17
ATOM     17  N   UNL     1      47.105   5.441  12.648  0.00  0.00    +0.000 N 
ATOM     18  H   UNL     1      47.598   4.763  12.070  0.00  0.00    +0.000 HD
BRANCH  17  19
ATOM     19  C   UNL     1      47.434   5.310  14.013  0.00  0.00    +0.000 A 
ATOM     20  C   UNL     1      47.018   4.163  14.702  0.00  0.00    +0.000 A 
ATOM     21  C   UNL     1      47.412   3.946  16.022  0.00  0.00    +0.000 A 
ATOM     22  C   UNL     1      48.242   4.886  16.614  0.00  0.00    +0.000 A 
ATOM     23  N   UNL     1      48.692   6.004  15.984  0.00  0.00    +0.000 NA
ATOM     24  C   UNL     1      48.282   6.176  14.705  0.00  0.00    +0.000 A 
BRANCH  22  25
ATOM     25  C   UNL     1      48.702   4.707  18.023  0.00  0.00    +0.000 C 
ATOM     26  N   UNL     1      49.749   3.839  18.178  0.00  0.00    +0.000 N 
ATOM     27  O   UNL     1      48.186   5.281  18.971  0.00  0.00    +0.000 OA
ATOM     28  H   UNL     1      50.132   3.383  17.357  0.00  0.00    +0.000 HD
ATOM     29  H   UNL     1      50.120   3.659  19.098  0.00  0.00    +0.000 HD
ENDBRANCH  22  25
ENDBRANCH  17  19
ENDBRANCH   1  17
TORSDOF 4
ENDMDL
MODEL 5
REMARK VINA RESULT:    -6.771      3.030      4.605
REMARK INTER + INTRA:          -8.960
REMARK INTER:                  -8.985
REMARK INTRA:                   0.025
REMARK UNBOUND:                -0.606
REMARK  Name = 
REMARK  5 active torsions:
REMARK  status: ('A' for Active; 'I' for Inactive)
REMARK    1  A    between atoms: C_1  and  C_2
REMARK    2  A    between atoms: C_12  and  C_13
REMARK    3  A    between atoms: C_13  and  N_14
REMARK    4  A    between atoms: N_14  and  C_15
REMARK    5  A    between atoms: C_18  and  C_19
REMARK                            x       y       z     vdW  Elec       q    Type
REMARK                         _______ _______ _______ _____ _____    ______ ____
ROOT
ATOM      1  C   UNL     1      47.445   6.192  13.838  0.00  0.00    +0.000 C 
ATOM      2  C   UNL     1      48.562   6.619  12.896  0.00  0.00    +0.000 C 
ATOM      3  C   UNL     1      48.044   7.600  13.892  0.00  0.00    +0.000 C 
ENDROOT
BRANCH   1  15
ATOM      4  C   UNL     1      51.460   6.194  16.732  0.00  0.00    +0.000 C 
ATOM      5  C   UNL     1      50.956   5.678  18.077  0.00  0.00    +0.000 C 
ATOM      6  C   UNL     1      51.343   6.695  19.187  0.00  0.00    +0.000 C 
ATOM      7  O   UNL     1      50.941   6.244  20.494  0.00  0.00    +0.000 OA
ATOM      8  C   UNL     1      49.520   6.047  20.537  0.00  0.00    +0.000 C 
ATOM      9  C   UNL     1      49.089   4.989  19.516  0.00  0.00    +0.000 C 
ATOM     10  N   UNL     1      49.488   5.438  18.167  0.00  0.00    +0.000 N 
ATOM     11  C   UNL     1      48.789   4.915  17.085  0.00  0.00    +0.000 A 
ATOM     12  C   UNL     1      48.144   3.687  17.120  0.00  0.00    +0.000 A 
ATOM     13  N   UNL     1      47.369   3.241  16.115  0.00  0.00    +0.000 NA
ATOM     14  N   UNL     1      47.195   4.049  15.055  0.00  0.00    +0.000 NA
ATOM     15  C   UNL     1      47.796   5.267  15.025  0.00  0.00    +0.000 A 
ATOM     16  N   UNL     1      48.621   5.707  16.007  0.00  0.00    +0.000 NA
ENDBRANCH   1  15
BRANCH   1  17
ATOM     17  N   UNL     1      46.027   6.145  13.392  0.00  0.00    +0.000 N 
ATOM     18  H   UNL     1      45.345   6.181  14.147  0.00  0.00    +0.000 HD
BRANCH  17  19
ATOM     19  C   UNL     1      45.582   5.350  12.315  0.00  0.00    +0.000 A 
ATOM     20  C   UNL     1      45.686   5.856  11.012  0.00  0.00    +0.000 A 
ATOM     21  C   UNL     1      45.356   5.062   9.914  0.00  0.00    +0.000 A 
ATOM     22  C   UNL     1      44.948   3.759  10.156  0.00  0.00    +0.000 A 
ATOM     23  N   UNL     1      44.851   3.212  11.397  0.00  0.00    +0.000 NA
ATOM     24  C   UNL     1      45.178   4.020  12.433  0.00  0.00    +0.000 A 
BRANCH  22  25
ATOM     25  C   UNL     1      44.586   2.859   9.022  0.00  0.00    +0.000 C 
ATOM     26  N   UNL     1      44.273   3.504   7.856  0.00  0.00    +0.000 N 
ATOM     27  O   UNL     1      44.562   1.641   9.118  0.00  0.00    +0.000 OA
ATOM     28  H   UNL     1      44.299   4.517   7.835  0.00  0.00    +0.000 HD
ATOM     29  H   UNL     1      44.014   2.970   7.040  0.00  0.00    +0.000 HD
ENDBRANCH  22  25
ENDBRANCH  17  19
ENDBRANCH   1  17
TORSDOF 4
ENDMDL
MODEL 6
REMARK VINA RESULT:    -6.768      3.024      7.607
REMARK INTER + INTRA:          -8.957
REMARK INTER:                  -9.375
REMARK INTRA:                   0.418
REMARK UNBOUND:                -0.606
REMARK  Name = 
REMARK  5 active torsions:
REMARK  status: ('A' for Active; 'I' for Inactive)
REMARK    1  A    between atoms: C_1  and  C_2
REMARK    2  A    between atoms: C_12  and  C_13
REMARK    3  A    between atoms: C_13  and  N_14
REMARK    4  A    between atoms: N_14  and  C_15
REMARK    5  A    between atoms: C_18  and  C_19
REMARK                            x       y       z     vdW  Elec       q    Type
REMARK                         _______ _______ _______ _____ _____    ______ ____
ROOT
ATOM      1  C   UNL     1      46.222   5.091  13.818  0.00  0.00    +0.000 C 
ATOM      2  C   UNL     1      46.442   6.571  13.541  0.00  0.00    +0.000 C 
ATOM      3  C   UNL     1      47.544   5.612  13.250  0.00  0.00    +0.000 C 
ENDROOT
BRANCH   1  15
ATOM      4  C   UNL     1      45.881   5.432   8.893  0.00  0.00    +0.000 C 
ATOM      5  C   UNL     1      45.532   4.018   8.439  0.00  0.00    +0.000 C 
ATOM      6  C   UNL     1      46.562   3.561   7.368  0.00  0.00    +0.000 C 
ATOM      7  O   UNL     1      46.262   2.249   6.858  0.00  0.00    +0.000 OA
ATOM      8  C   UNL     1      46.262   1.287   7.924  0.00  0.00    +0.000 C 
ATOM      9  C   UNL     1      45.204   1.644   8.974  0.00  0.00    +0.000 C 
ATOM     10  N   UNL     1      45.500   2.986   9.514  0.00  0.00    +0.000 N 
ATOM     11  C   UNL     1      45.003   3.293  10.775  0.00  0.00    +0.000 A 
ATOM     12  C   UNL     1      43.879   2.685  11.316  0.00  0.00    +0.000 A 
ATOM     13  N   UNL     1      43.474   2.896  12.582  0.00  0.00    +0.000 NA
ATOM     14  N   UNL     1      44.222   3.707  13.350  0.00  0.00    +0.000 NA
ATOM     15  C   UNL     1      45.342   4.280  12.840  0.00  0.00    +0.000 A 
ATOM     16  N   UNL     1      45.734   4.118  11.551  0.00  0.00    +0.000 NA
ENDBRANCH   1  15
BRANCH   1  17
ATOM     17  N   UNL     1      46.323   4.535  15.194  0.00  0.00    +0.000 N 
ATOM     18  H   UNL     1      45.805   5.055  15.899  0.00  0.00    +0.000 HD
BRANCH  17  19
ATOM     19  C   UNL     1      47.507   3.973  15.715  0.00  0.00    +0.000 A 
ATOM     20  C   UNL     1      48.233   4.693  16.673  0.00  0.00    +0.000 A 
ATOM     21  C   UNL     1      49.349   4.129  17.290  0.00  0.00    +0.000 A 
ATOM     22  C   UNL     1      49.697   2.833  16.942  0.00  0.00    +0.000 A 
ATOM     23  N   UNL     1      49.014   2.082  16.036  0.00  0.00    +0.000 NA
ATOM     24  C   UNL     1      47.940   2.671  15.459  0.00  0.00    +0.000 A 
BRANCH  22  25
ATOM     25  C   UNL     1      50.878   2.173  17.571  0.00  0.00    +0.000 C 
ATOM     26  N   UNL     1      51.529   2.933  18.505  0.00  0.00    +0.000 N 
ATOM     27  O   UNL     1      51.246   1.045  17.278  0.00  0.00    +0.000 OA
ATOM     28  H   UNL     1      51.186   3.867  18.701  0.00  0.00    +0.000 HD
ATOM     29  H   UNL     1      52.340   2.564  18.976  0.00  0.00    +0.000 HD
ENDBRANCH  22  25
ENDBRANCH  17  19
ENDBRANCH   1  17
TORSDOF 4
ENDMDL
MODEL 7
REMARK VINA RESULT:    -6.645      4.667      8.308
REMARK INTER + INTRA:          -8.805
REMARK INTER:                  -8.577
REMARK INTRA:                  -0.227
REMARK UNBOUND:                -0.606
REMARK  Name = 
REMARK  5 active torsions:
REMARK  status: ('A' for Active; 'I' for Inactive)
REMARK    1  A    between atoms: C_1  and  C_2
REMARK    2  A    between atoms: C_12  and  C_13
REMARK    3  A    between atoms: C_13  and  N_14
REMARK    4  A    between atoms: N_14  and  C_15
REMARK    5  A    between atoms: C_18  and  C_19
REMARK                            x       y       z     vdW  Elec       q    Type
REMARK                         _______ _______ _______ _____ _____    ______ ____
ROOT
ATOM      1  C   UNL     1      48.289   4.712  17.082  0.00  0.00    +0.000 C 
ATOM      2  C   UNL     1      47.185   3.717  17.411  0.00  0.00    +0.000 C 
ATOM      3  C   UNL     1      47.102   5.097  17.967  0.00  0.00    +0.000 C 
ENDROOT
BRANCH   1  15
ATOM      4  C   UNL     1      46.082   3.195  12.920  0.00  0.00    +0.000 C 
ATOM      5  C   UNL     1      45.803   4.482  12.150  0.00  0.00    +0.000 C 
ATOM      6  C   UNL     1      44.293   4.536  11.786  0.00  0.00    +0.000 C 
ATOM      7  O   UNL     1      43.967   5.705  11.011  0.00  0.00    +0.000 OA
ATOM      8  C   UNL     1      44.298   6.895  11.743  0.00  0.00    +0.000 C 
ATOM      9  C   UNL     1      45.797   6.936  12.059  0.00  0.00    +0.000 C 
ATOM     10  N   UNL     1      46.149   5.746  12.860  0.00  0.00    +0.000 N 
ATOM     11  C   UNL     1      47.285   5.822  13.656  0.00  0.00    +0.000 A 
ATOM     12  C   UNL     1      48.348   6.670  13.381  0.00  0.00    +0.000 A 
ATOM     13  N   UNL     1      49.390   6.830  14.218  0.00  0.00    +0.000 NA
ATOM     14  N   UNL     1      49.365   6.156  15.381  0.00  0.00    +0.000 NA
ATOM     15  C   UNL     1      48.313   5.348  15.674  0.00  0.00    +0.000 A 
ATOM     16  N   UNL     1      47.282   5.139  14.818  0.00  0.00    +0.000 NA
ENDBRANCH   1  15
BRANCH   1  17
ATOM     17  N   UNL     1      49.597   4.683  17.789  0.00  0.00    +0.000 N 
ATOM     18  H   UNL     1      50.056   5.588  17.867  0.00  0.00    +0.000 HD
BRANCH  17  19
ATOM     19  C   UNL     1      50.526   3.629  17.653  0.00  0.00    +0.000 A 
ATOM     20  C   UNL     1      51.852   3.841  18.053  0.00  0.00    +0.000 A 
ATOM     21  C   UNL     1      52.775   2.795  18.034  0.00  0.00    +0.000 A 
ATOM     22  C   UNL     1      52.330   1.545  17.631  0.00  0.00    +0.000 A 
ATOM     23  N   UNL     1      51.050   1.281  17.255  0.00  0.00    +0.000 NA
ATOM     24  C   UNL     1      50.190   2.326  17.286  0.00  0.00    +0.000 A 
BRANCH  22  25
ATOM     25  C   UNL     1      53.268   0.385  17.594  0.00  0.00    +0.000 C 
ATOM     26  N   UNL     1      52.947  -0.639  18.443  0.00  0.00    +0.000 N 
ATOM     27  O   UNL     1      54.253   0.347  16.871  0.00  0.00    +0.000 OA
ATOM     28  H   UNL     1      52.123  -0.550  19.028  0.00  0.00    +0.000 HD
ATOM     29  H   UNL     1      53.530  -1.460  18.483  0.00  0.00    +0.000 HD
ENDBRANCH  22  25
ENDBRANCH  17  19
ENDBRANCH   1  17
TORSDOF 4
ENDMDL
