MODEL 1
REMARK VINA RESULT:    -9.143      0.000      0.000
REMARK INTER + INTRA:         -14.318
REMARK INTER:                 -13.419
REMARK INTRA:                  -0.898
REMARK UNBOUND:                -0.898
REMARK  Name = 
REMARK  8 active torsions:
REMARK  status: ('A' for Active; 'I' for Inactive)
REMARK    1  A    between atoms: C_2  and  C_4
REMARK    2  A    between atoms: N_8  and  C_9
REMARK    3  A    between atoms: C_9  and  C_10
REMARK    4  A    between atoms: C_10  and  C_13
REMARK    5  A    between atoms: C_17  and  O_18
REMARK    6  A    between atoms: O_18  and  C_19
REMARK    7  A    between atoms: N_21  and  C_22
REMARK    8  A    between atoms: C_22  and  C_23
REMARK                            x       y       z     vdW  Elec       q    Type
REMARK                         _______ _______ _______ _____ _____    ______ ____
ROOT
ATOM      1  C   UNL     1      43.566   5.738  11.994  0.00  0.00    +0.000 C 
ATOM      2  F   UNL     1      43.088   6.910  11.478  0.00  0.00    +0.000 F 
ATOM      3  F   UNL     1      42.829   5.511  13.122  0.00  0.00    +0.000 F 
ENDROOT
BRANCH   1   4
ATOM      4  C   UNL     1      45.051   5.834  12.320  0.00  0.00    +0.000 A 
ATOM      5  C   UNL     1      45.841   6.813  11.705  0.00  0.00    +0.000 A 
ATOM      6  C   UNL     1      47.199   6.923  12.026  0.00  0.00    +0.000 A 
ATOM      7  C   UNL     1      47.792   6.066  12.963  0.00  0.00    +0.000 A 
ATOM      8  C   UNL     1      47.023   5.084  13.569  0.00  0.00    +0.000 A 
ATOM      9  C   UNL     1      45.673   4.978  13.247  0.00  0.00    +0.000 A 
BRANCH   8  10
ATOM     10  O   UNL     1      47.425   4.193  14.528  0.00  0.00    +0.000 OA
BRANCH  10  11
ATOM     11  C   UNL     1      47.386   4.581  15.920  0.00  0.00    +0.000 C 
ATOM     12  C   UNL     1      48.627   5.266  16.517  0.00  0.00    +0.000 C 
ATOM     13  N   UNL     1      48.685   4.265  17.602  0.00  0.00    +0.000 NA
ATOM     14  C   UNL     1      47.672   3.437  16.918  0.00  0.00    +0.000 C 
BRANCH  13  15
ATOM     15  C   UNL     1      48.129   4.817  18.849  0.00  0.00    +0.000 C 
BRANCH  15  16
ATOM     16  C   UNL     1      49.137   4.764  19.996  0.00  0.00    +0.000 C 
ATOM     17  F   UNL     1      48.638   3.952  20.971  0.00  0.00    +0.000 F 
ENDBRANCH  15  16
ENDBRANCH  13  15
ENDBRANCH  10  11
ENDBRANCH   8  10
ENDBRANCH   1   4
BRANCH   1  18
ATOM     18  C   UNL     1      43.271   4.608  10.978  0.00  0.00    +0.000 C 
BRANCH  18  23
ATOM     19  C   UNL     1      46.404   2.314   7.738  0.00  0.00    +0.000 A 
ATOM     20  C   UNL     1      45.556   1.770   8.695  0.00  0.00    +0.000 A 
ATOM     21  C   UNL     1      44.668   2.613   9.362  0.00  0.00    +0.000 A 
ATOM     22  C   UNL     1      44.649   3.979   9.068  0.00  0.00    +0.000 A 
ATOM     23  N   UNL     1      43.720   4.850   9.611  0.00  0.00    +0.000 N 
ATOM     24  N   UNL     1      45.495   4.516   8.173  0.00  0.00    +0.000 NA
ATOM     25  C   UNL     1      46.357   3.685   7.532  0.00  0.00    +0.000 A 
ATOM     26  H   UNL     1      43.962   5.812   9.377  0.00  0.00    +0.000 HD
BRANCH  19  28
ATOM     27  N   UNL     1      48.495   2.084   6.537  0.00  0.00    +0.000 N 
ATOM     28  C   UNL     1      47.342   1.485   6.952  0.00  0.00    +0.000 C 
ATOM     29  O   UNL     1      47.105   0.311   6.710  0.00  0.00    +0.000 OA
ATOM     30  H   UNL     1      49.177   1.488   6.086  0.00  0.00    +0.000 HD
ATOM     31  H   UNL     1      48.832   2.954   6.935  0.00  0.00    +0.000 HD
ENDBRANCH  19  28
ENDBRANCH  18  23
ENDBRANCH   1  18
TORSDOF 8
ENDMDL
MODEL 2
REMARK VINA RESULT:    -8.149      1.328      1.425
REMARK INTER + INTRA:         -12.859
REMARK INTER:                 -12.118
REMARK INTRA:                  -0.741
REMARK UNBOUND:                -0.898
REMARK  Name = 
REMARK  8 active torsions:
REMARK  status: ('A' for Active; 'I' for Inactive)
REMARK    1  A    between atoms: C_2  and  C_4
REMARK    2  A    between atoms: N_8  and  C_9
REMARK    3  A    between atoms: C_9  and  C_10
REMARK    4  A    between atoms: C_10  and  C_13
REMARK    5  A    between atoms: C_17  and  O_18
REMARK    6  A    between atoms: O_18  and  C_19
REMARK    7  A    between atoms: N_21  and  C_22
REMARK    8  A    between atoms: C_22  and  C_23
REMARK                            x       y       z     vdW  Elec       q    Type
REMARK                         _______ _______ _______ _____ _____    ______ ____
ROOT
ATOM      1  C   UNL     1      43.278   5.044  12.277  0.00  0.00    +0.000 C 
ATOM      2  F   UNL     1      42.240   5.881  11.975  0.00  0.00    +0.000 F 
ATOM      3  F   UNL     1      42.895   4.389  13.414  0.00  0.00    +0.000 F 
ENDROOT
BRANCH   1   4
ATOM      4  C   UNL     1      44.572   5.816  12.498  0.00  0.00    +0.000 A 
ATOM      5  C   UNL     1      44.725   7.098  11.956  0.00  0.00    +0.000 A 
ATOM      6  C   UNL     1      45.901   7.821  12.182  0.00  0.00    +0.000 A 
ATOM      7  C   UNL     1      46.942   7.285  12.953  0.00  0.00    +0.000 A 
ATOM      8  C   UNL     1      46.808   6.011  13.485  0.00  0.00    +0.000 A 
ATOM      9  C   UNL     1      45.636   5.295  13.256  0.00  0.00    +0.000 A 
BRANCH   8  10
ATOM     10  O   UNL     1      47.700   5.352  14.288  0.00  0.00    +0.000 OA
BRANCH  10  11
ATOM     11  C   UNL     1      48.127   5.962  15.526  0.00  0.00    +0.000 C 
ATOM     12  C   UNL     1      49.533   6.585  15.582  0.00  0.00    +0.000 C 
ATOM     13  N   UNL     1      49.870   5.773  16.769  0.00  0.00    +0.000 NA
ATOM     14  C   UNL     1      48.645   4.969  16.592  0.00  0.00    +0.000 C 
BRANCH  13  15
ATOM     15  C   UNL     1      49.771   6.580  17.997  0.00  0.00    +0.000 C 
BRANCH  15  16
ATOM     16  C   UNL     1      50.770   6.127  19.061  0.00  0.00    +0.000 C 
ATOM     17  F   UNL     1      51.157   4.851  18.773  0.00  0.00    +0.000 F 
ENDBRANCH  15  16
ENDBRANCH  13  15
ENDBRANCH  10  11
ENDBRANCH   8  10
ENDBRANCH   1   4
BRANCH   1  18
ATOM     18  C   UNL     1      43.411   4.008  11.135  0.00  0.00    +0.000 C 
BRANCH  18  23
ATOM     19  C   UNL     1      46.646   2.715   7.468  0.00  0.00    +0.000 A 
ATOM     20  C   UNL     1      45.897   1.913   8.320  0.00  0.00    +0.000 A 
ATOM     21  C   UNL     1      44.951   2.514   9.149  0.00  0.00    +0.000 A 
ATOM     22  C   UNL     1      44.775   3.900   9.116  0.00  0.00    +0.000 A 
ATOM     23  N   UNL     1      43.781   4.547   9.830  0.00  0.00    +0.000 N 
ATOM     24  N   UNL     1      45.525   4.685   8.324  0.00  0.00    +0.000 NA
ATOM     25  C   UNL     1      46.446   4.087   7.524  0.00  0.00    +0.000 A 
ATOM     26  H   UNL     1      43.910   5.556   9.776  0.00  0.00    +0.000 HD
BRANCH  19  28
ATOM     27  N   UNL     1      47.930   2.905   5.423  0.00  0.00    +0.000 N 
ATOM     28  C   UNL     1      47.636   2.156   6.524  0.00  0.00    +0.000 C 
ATOM     29  O   UNL     1      48.184   1.085   6.737  0.00  0.00    +0.000 OA
ATOM     30  H   UNL     1      48.678   2.566   4.832  0.00  0.00    +0.000 HD
ATOM     31  H   UNL     1      47.696   3.890   5.354  0.00  0.00    +0.000 HD
ENDBRANCH  19  28
ENDBRANCH  18  23
ENDBRANCH   1  18
TORSDOF 8
ENDMDL
MODEL 3
REMARK VINA RESULT:    -8.122      3.234      4.502
REMARK INTER + INTRA:         -12.819
REMARK INTER:                 -11.911
REMARK INTRA:                  -0.908
REMARK UNBOUND:                -0.898
REMARK  Name = 
REMARK  8 active torsions:
REMARK  status: ('A' for Active; 'I' for Inactive)
REMARK    1  A    between atoms: C_2  and  C_4
REMARK    2  A    between atoms: N_8  and  C_9
REMARK    3  A    between atoms: C_9  and  C_10
REMARK    4  A    between atoms: C_10  and  C_13
REMARK    5  A    between atoms: C_17  and  O_18
REMARK    6  A    between atoms: O_18  and  C_19
REMARK    7  A    between atoms: N_21  and  C_22
REMARK    8  A    between atoms: C_22  and  C_23
REMARK                            x       y       z     vdW  Elec       q    Type
REMARK                         _______ _______ _______ _____ _____    ______ ____
ROOT
ATOM      1  C   UNL     1      43.377   5.524  12.128  0.00  0.00    +0.000 C 
ATOM      2  F   UNL     1      42.933   6.700  11.589  0.00  0.00    +0.000 F 
ATOM      3  F   UNL     1      42.523   5.254  13.161  0.00  0.00    +0.000 F 
ENDROOT
BRANCH   1   4
ATOM      4  C   UNL     1      44.813   5.642  12.622  0.00  0.00    +0.000 A 
ATOM      5  C   UNL     1      45.325   4.697  13.520  0.00  0.00    +0.000 A 
ATOM      6  C   UNL     1      46.653   4.786  13.951  0.00  0.00    +0.000 A 
ATOM      7  C   UNL     1      47.494   5.810  13.496  0.00  0.00    +0.000 A 
ATOM      8  C   UNL     1      46.995   6.759  12.616  0.00  0.00    +0.000 A 
ATOM      9  C   UNL     1      45.673   6.668  12.191  0.00  0.00    +0.000 A 
BRANCH   8  10
ATOM     10  O   UNL     1      47.680   7.797  12.044  0.00  0.00    +0.000 OA
BRANCH  10  11
ATOM     11  C   UNL     1      49.053   8.040  12.427  0.00  0.00    +0.000 C 
ATOM     12  C   UNL     1      49.607   9.467  12.276  0.00  0.00    +0.000 C 
ATOM     13  N   UNL     1      50.737   8.967  11.466  0.00  0.00    +0.000 NA
ATOM     14  C   UNL     1      50.101   7.639  11.364  0.00  0.00    +0.000 C 
BRANCH  13  15
ATOM     15  C   UNL     1      51.961   8.881  12.279  0.00  0.00    +0.000 C 
BRANCH  15  16
ATOM     16  C   UNL     1      53.212   9.208  11.465  0.00  0.00    +0.000 C 
ATOM     17  F   UNL     1      53.361  10.563  11.430  0.00  0.00    +0.000 F 
ENDBRANCH  15  16
ENDBRANCH  13  15
ENDBRANCH  10  11
ENDBRANCH   8  10
ENDBRANCH   1   4
BRANCH   1  18
ATOM     18  C   UNL     1      43.223   4.415  11.060  0.00  0.00    +0.000 C 
BRANCH  18  23
ATOM     19  C   UNL     1      46.486   2.469   7.722  0.00  0.00    +0.000 A 
ATOM     20  C   UNL     1      45.655   1.829   8.633  0.00  0.00    +0.000 A 
ATOM     21  C   UNL     1      44.724   2.588   9.341  0.00  0.00    +0.000 A 
ATOM     22  C   UNL     1      44.645   3.968   9.131  0.00  0.00    +0.000 A 
ATOM     23  N   UNL     1      43.673   4.761   9.716  0.00  0.00    +0.000 N 
ATOM     24  N   UNL     1      45.475   4.597   8.281  0.00  0.00    +0.000 NA
ATOM     25  C   UNL     1      46.379   3.846   7.601  0.00  0.00    +0.000 A 
ATOM     26  H   UNL     1      43.873   5.745   9.544  0.00  0.00    +0.000 HD
BRANCH  19  28
ATOM     27  N   UNL     1      48.539   2.441   6.437  0.00  0.00    +0.000 N 
ATOM     28  C   UNL     1      47.467   1.733   6.898  0.00  0.00    +0.000 C 
ATOM     29  O   UNL     1      47.337   0.541   6.664  0.00  0.00    +0.000 OA
ATOM     30  H   UNL     1      49.257   1.913   5.958  0.00  0.00    +0.000 HD
ATOM     31  H   UNL     1      48.805   3.340   6.822  0.00  0.00    +0.000 HD
ENDBRANCH  19  28
ENDBRANCH  18  23
ENDBRANCH   1  18
TORSDOF 8
ENDMDL
MODEL 4
REMARK VINA RESULT:    -7.737      2.428      2.817
REMARK INTER + INTRA:         -12.254
REMARK INTER:                 -11.562
REMARK INTRA:                  -0.692
REMARK UNBOUND:                -0.898
REMARK  Name = 
REMARK  8 active torsions:
REMARK  status: ('A' for Active; 'I' for Inactive)
REMARK    1  A    between atoms: C_2  and  C_4
REMARK    2  A    between atoms: N_8  and  C_9
REMARK    3  A    between atoms: C_9  and  C_10
REMARK    4  A    between atoms: C_10  and  C_13
REMARK    5  A    between atoms: C_17  and  O_18
REMARK    6  A    between atoms: O_18  and  C_19
REMARK    7  A    between atoms: N_21  and  C_22
REMARK    8  A    between atoms: C_22  and  C_23
REMARK                            x       y       z     vdW  Elec       q    Type
REMARK                         _______ _______ _______ _____ _____    ______ ____
ROOT
ATOM      1  C   UNL     1      43.088   5.000  12.162  0.00  0.00    +0.000 C 
ATOM      2  F   UNL     1      41.867   5.569  11.925  0.00  0.00    +0.000 F 
ATOM      3  F   UNL     1      42.949   4.326  13.342  0.00  0.00    +0.000 F 
ENDROOT
BRANCH   1   4
ATOM      4  C   UNL     1      44.186   6.052  12.257  0.00  0.00    +0.000 A 
ATOM      5  C   UNL     1      44.028   7.289  11.620  0.00  0.00    +0.000 A 
ATOM      6  C   UNL     1      45.022   8.267  11.731  0.00  0.00    +0.000 A 
ATOM      7  C   UNL     1      46.186   8.035  12.478  0.00  0.00    +0.000 A 
ATOM      8  C   UNL     1      46.358   6.809  13.103  0.00  0.00    +0.000 A 
ATOM      9  C   UNL     1      45.368   5.838  12.989  0.00  0.00    +0.000 A 
BRANCH   8  10
ATOM     10  O   UNL     1      47.405   6.427  13.898  0.00  0.00    +0.000 OA
BRANCH  10  11
ATOM     11  C   UNL     1      48.317   7.428  14.403  0.00  0.00    +0.000 C 
ATOM     12  C   UNL     1      49.703   7.546  13.745  0.00  0.00    +0.000 C 
ATOM     13  N   UNL     1      50.363   7.400  15.059  0.00  0.00    +0.000 NA
ATOM     14  C   UNL     1      49.081   7.021  15.683  0.00  0.00    +0.000 C 
BRANCH  13  15
ATOM     15  C   UNL     1      50.805   8.709  15.566  0.00  0.00    +0.000 C 
BRANCH  15  16
ATOM     16  C   UNL     1      52.253   8.674  16.056  0.00  0.00    +0.000 C 
ATOM     17  F   UNL     1      52.246   8.610  17.418  0.00  0.00    +0.000 F 
ENDBRANCH  15  16
ENDBRANCH  13  15
ENDBRANCH  10  11
ENDBRANCH   8  10
ENDBRANCH   1   4
BRANCH   1  18
ATOM     18  C   UNL     1      43.368   3.973  11.038  0.00  0.00    +0.000 C 
BRANCH  18  23
ATOM     19  C   UNL     1      46.663   2.746   7.404  0.00  0.00    +0.000 A 
ATOM     20  C   UNL     1      45.903   1.929   8.230  0.00  0.00    +0.000 A 
ATOM     21  C   UNL     1      44.942   2.515   9.053  0.00  0.00    +0.000 A 
ATOM     22  C   UNL     1      44.764   3.901   9.041  0.00  0.00    +0.000 A 
ATOM     23  N   UNL     1      43.757   4.534   9.749  0.00  0.00    +0.000 N 
ATOM     24  N   UNL     1      45.526   4.699   8.274  0.00  0.00    +0.000 NA
ATOM     25  C   UNL     1      46.460   4.116   7.479  0.00  0.00    +0.000 A 
ATOM     26  H   UNL     1      43.885   5.544   9.714  0.00  0.00    +0.000 HD
BRANCH  19  28
ATOM     27  N   UNL     1      47.911   2.927   5.335  0.00  0.00    +0.000 N 
ATOM     28  C   UNL     1      47.670   2.204   6.467  0.00  0.00    +0.000 C 
ATOM     29  O   UNL     1      48.275   1.171   6.710  0.00  0.00    +0.000 OA
ATOM     30  H   UNL     1      48.669   2.605   4.747  0.00  0.00    +0.000 HD
ATOM     31  H   UNL     1      47.626   3.895   5.235  0.00  0.00    +0.000 HD
ENDBRANCH  19  28
ENDBRANCH  18  23
ENDBRANCH   1  18
TORSDOF 8
ENDMDL
MODEL 5
REMARK VINA RESULT:    -7.530      3.477      4.651
REMARK INTER + INTRA:         -11.950
REMARK INTER:                 -11.436
REMARK INTRA:                  -0.515
REMARK UNBOUND:                -0.898
REMARK  Name = 
REMARK  8 active torsions:
REMARK  status: ('A' for Active; 'I' for Inactive)
REMARK    1  A    between atoms: C_2  and  C_4
REMARK    2  A    between atoms: N_8  and  C_9
REMARK    3  A    between atoms: C_9  and  C_10
REMARK    4  A    between atoms: C_10  and  C_13
REMARK    5  A    between atoms: C_17  and  O_18
REMARK    6  A    between atoms: O_18  and  C_19
REMARK    7  A    between atoms: N_21  and  C_22
REMARK    8  A    between atoms: C_22  and  C_23
REMARK                            x       y       z     vdW  Elec       q    Type
REMARK                         _______ _______ _______ _____ _____    ______ ____
ROOT
ATOM      1  C   UNL     1      44.365   4.676  12.273  0.00  0.00    +0.000 C 
ATOM      2  F   UNL     1      43.696   4.507  13.453  0.00  0.00    +0.000 F 
ATOM      3  F   UNL     1      45.303   3.683  12.243  0.00  0.00    +0.000 F 
ENDROOT
BRANCH   1   4
ATOM      4  C   UNL     1      45.019   6.050  12.192  0.00  0.00    +0.000 A 
ATOM      5  C   UNL     1      44.319   7.126  11.633  0.00  0.00    +0.000 A 
ATOM      6  C   UNL     1      44.906   8.396  11.585  0.00  0.00    +0.000 A 
ATOM      7  C   UNL     1      46.193   8.617  12.094  0.00  0.00    +0.000 A 
ATOM      8  C   UNL     1      46.901   7.556  12.638  0.00  0.00    +0.000 A 
ATOM      9  C   UNL     1      46.314   6.294  12.683  0.00  0.00    +0.000 A 
BRANCH   8  10
ATOM     10  O   UNL     1      48.143   7.598  13.212  0.00  0.00    +0.000 OA
BRANCH  10  11
ATOM     11  C   UNL     1      49.170   8.427  12.623  0.00  0.00    +0.000 C 
ATOM     12  C   UNL     1      49.865   7.925  11.346  0.00  0.00    +0.000 C 
ATOM     13  N   UNL     1      51.191   8.082  11.979  0.00  0.00    +0.000 NA
ATOM     14  C   UNL     1      50.558   8.311  13.293  0.00  0.00    +0.000 C 
BRANCH  13  15
ATOM     15  C   UNL     1      51.847   9.315  11.513  0.00  0.00    +0.000 C 
BRANCH  15  16
ATOM     16  C   UNL     1      53.069   9.019  10.644  0.00  0.00    +0.000 C 
ATOM     17  F   UNL     1      52.640   8.493   9.462  0.00  0.00    +0.000 F 
ENDBRANCH  15  16
ENDBRANCH  13  15
ENDBRANCH  10  11
ENDBRANCH   8  10
ENDBRANCH   1   4
BRANCH   1  18
ATOM     18  C   UNL     1      43.366   4.444  11.114  0.00  0.00    +0.000 C 
BRANCH  18  23
ATOM     19  C   UNL     1      46.498   2.453   7.678  0.00  0.00    +0.000 A 
ATOM     20  C   UNL     1      45.630   1.826   8.562  0.00  0.00    +0.000 A 
ATOM     21  C   UNL     1      44.748   2.608   9.307  0.00  0.00    +0.000 A 
ATOM     22  C   UNL     1      44.756   3.998   9.161  0.00  0.00    +0.000 A 
ATOM     23  N   UNL     1      43.836   4.823   9.785  0.00  0.00    +0.000 N 
ATOM     24  N   UNL     1      45.622   4.613   8.337  0.00  0.00    +0.000 NA
ATOM     25  C   UNL     1      46.477   3.839   7.620  0.00  0.00    +0.000 A 
ATOM     26  H   UNL     1      44.097   5.799   9.658  0.00  0.00    +0.000 HD
BRANCH  19  28
ATOM     27  N   UNL     1      48.555   2.350   6.402  0.00  0.00    +0.000 N 
ATOM     28  C   UNL     1      47.431   1.697   6.817  0.00  0.00    +0.000 C 
ATOM     29  O   UNL     1      47.218   0.532   6.515  0.00  0.00    +0.000 OA
ATOM     30  H   UNL     1      49.237   1.800   5.897  0.00  0.00    +0.000 HD
ATOM     31  H   UNL     1      48.882   3.205   6.838  0.00  0.00    +0.000 HD
ENDBRANCH  19  28
ENDBRANCH  18  23
ENDBRANCH   1  18
TORSDOF 8
ENDMDL
MODEL 6
REMARK VINA RESULT:    -7.484      2.790      8.991
REMARK INTER + INTRA:         -11.883
REMARK INTER:                 -11.173
REMARK INTRA:                  -0.710
REMARK UNBOUND:                -0.898
REMARK  Name = 
REMARK  8 active torsions:
REMARK  status: ('A' for Active; 'I' for Inactive)
REMARK    1  A    between atoms: C_2  and  C_4
REMARK    2  A    between atoms: N_8  and  C_9
REMARK    3  A    between atoms: C_9  and  C_10
REMARK    4  A    between atoms: C_10  and  C_13
REMARK    5  A    between atoms: C_17  and  O_18
REMARK    6  A    between atoms: O_18  and  C_19
REMARK    7  A    between atoms: N_21  and  C_22
REMARK    8  A    between atoms: C_22  and  C_23
REMARK                            x       y       z     vdW  Elec       q    Type
REMARK                         _______ _______ _______ _____ _____    ______ ____
ROOT
ATOM      1  C   UNL     1      46.503   6.422  12.481  0.00  0.00    +0.000 C 
ATOM      2  F   UNL     1      46.243   7.598  13.129  0.00  0.00    +0.000 F 
ATOM      3  F   UNL     1      47.173   6.775  11.344  0.00  0.00    +0.000 F 
ENDROOT
BRANCH   1   4
ATOM      4  C   UNL     1      45.220   5.670  12.150  0.00  0.00    +0.000 A 
ATOM      5  C   UNL     1      44.023   6.010  12.793  0.00  0.00    +0.000 A 
ATOM      6  C   UNL     1      42.838   5.341  12.469  0.00  0.00    +0.000 A 
ATOM      7  C   UNL     1      42.821   4.328  11.500  0.00  0.00    +0.000 A 
ATOM      8  C   UNL     1      44.002   3.975  10.865  0.00  0.00    +0.000 A 
ATOM      9  C   UNL     1      45.179   4.642  11.192  0.00  0.00    +0.000 A 
BRANCH   8  10
ATOM     10  O   UNL     1      44.161   3.043   9.875  0.00  0.00    +0.000 OA
BRANCH  10  11
ATOM     11  C   UNL     1      45.430   2.944   9.189  0.00  0.00    +0.000 C 
ATOM     12  C   UNL     1      45.553   3.583   7.795  0.00  0.00    +0.000 C 
ATOM     13  N   UNL     1      46.029   2.305   7.227  0.00  0.00    +0.000 NA
ATOM     14  C   UNL     1      45.674   1.597   8.472  0.00  0.00    +0.000 C 
BRANCH  13  15
ATOM     15  C   UNL     1      47.491   2.325   7.055  0.00  0.00    +0.000 C 
BRANCH  15  16
ATOM     16  C   UNL     1      47.892   2.414   5.583  0.00  0.00    +0.000 C 
ATOM     17  F   UNL     1      46.802   2.802   4.862  0.00  0.00    +0.000 F 
ENDBRANCH  15  16
ENDBRANCH  13  15
ENDBRANCH  10  11
ENDBRANCH   8  10
ENDBRANCH   1   4
BRANCH   1  18
ATOM     18  C   UNL     1      47.451   5.581  13.370  0.00  0.00    +0.000 C 
BRANCH  18  23
ATOM     19  C   UNL     1      48.647   4.519  18.168  0.00  0.00    +0.000 A 
ATOM     20  C   UNL     1      48.919   5.652  17.411  0.00  0.00    +0.000 A 
ATOM     21  C   UNL     1      48.340   5.771  16.148  0.00  0.00    +0.000 A 
ATOM     22  C   UNL     1      47.509   4.757  15.664  0.00  0.00    +0.000 A 
ATOM     23  N   UNL     1      46.818   4.861  14.469  0.00  0.00    +0.000 N 
ATOM     24  N   UNL     1      47.276   3.640  16.375  0.00  0.00    +0.000 NA
ATOM     25  C   UNL     1      47.849   3.536  17.602  0.00  0.00    +0.000 A 
ATOM     26  H   UNL     1      46.383   3.969  14.237  0.00  0.00    +0.000 HD
BRANCH  19  28
ATOM     27  N   UNL     1      48.406   3.631  20.409  0.00  0.00    +0.000 N 
ATOM     28  C   UNL     1      49.181   4.335  19.534  0.00  0.00    +0.000 C 
ATOM     29  O   UNL     1      50.276   4.772  19.854  0.00  0.00    +0.000 OA
ATOM     30  H   UNL     1      48.818   3.423  21.309  0.00  0.00    +0.000 HD
ATOM     31  H   UNL     1      47.635   3.046  20.106  0.00  0.00    +0.000 HD
ENDBRANCH  19  28
ENDBRANCH  18  23
ENDBRANCH   1  18
TORSDOF 8
ENDMDL
MODEL 7
REMARK VINA RESULT:    -7.283      2.708      8.107
REMARK INTER + INTRA:         -11.587
REMARK INTER:                 -10.775
REMARK INTRA:                  -0.812
REMARK UNBOUND:                -0.898
REMARK  Name = 
REMARK  8 active torsions:
REMARK  status: ('A' for Active; 'I' for Inactive)
REMARK    1  A    between atoms: C_2  and  C_4
REMARK    2  A    between atoms: N_8  and  C_9
REMARK    3  A    between atoms: C_9  and  C_10
REMARK    4  A    between atoms: C_10  and  C_13
REMARK    5  A    between atoms: C_17  and  O_18
REMARK    6  A    between atoms: O_18  and  C_19
REMARK    7  A    between atoms: N_21  and  C_22
REMARK    8  A    between atoms: C_22  and  C_23
REMARK                            x       y       z     vdW  Elec       q    Type
REMARK                         _______ _______ _______ _____ _____    ______ ____
ROOT
ATOM      1  C   UNL     1      45.635   7.426  12.085  0.00  0.00    +0.000 C 
ATOM      2  F   UNL     1      45.611   7.975  13.337  0.00  0.00    +0.000 F 
ATOM      3  F   UNL     1      45.200   8.414  11.248  0.00  0.00    +0.000 F 
ENDROOT
BRANCH   1   4
ATOM      4  C   UNL     1      44.739   6.197  11.995  0.00  0.00    +0.000 A 
ATOM      5  C   UNL     1      43.863   5.891  13.044  0.00  0.00    +0.000 A 
ATOM      6  C   UNL     1      43.018   4.780  12.951  0.00  0.00    +0.000 A 
ATOM      7  C   UNL     1      43.026   3.958  11.816  0.00  0.00    +0.000 A 
ATOM      8  C   UNL     1      43.899   4.243  10.776  0.00  0.00    +0.000 A 
ATOM      9  C   UNL     1      44.739   5.349  10.873  0.00  0.00    +0.000 A 
BRANCH   8  10
ATOM     10  O   UNL     1      44.013   3.576   9.586  0.00  0.00    +0.000 OA
BRANCH  10  11
ATOM     11  C   UNL     1      45.324   3.339   9.027  0.00  0.00    +0.000 C 
ATOM     12  C   UNL     1      45.585   3.780   7.576  0.00  0.00    +0.000 C 
ATOM     13  N   UNL     1      46.041   2.421   7.222  0.00  0.00    +0.000 NA
ATOM     14  C   UNL     1      45.559   1.900   8.515  0.00  0.00    +0.000 C 
BRANCH  13  15
ATOM     15  C   UNL     1      47.512   2.363   7.170  0.00  0.00    +0.000 C 
BRANCH  15  16
ATOM     16  C   UNL     1      48.030   2.266   5.736  0.00  0.00    +0.000 C 
ATOM     17  F   UNL     1      47.132   2.876   4.911  0.00  0.00    +0.000 F 
ENDBRANCH  15  16
ENDBRANCH  13  15
ENDBRANCH  10  11
ENDBRANCH   8  10
ENDBRANCH   1   4
BRANCH   1  18
ATOM     18  C   UNL     1      47.106   7.095  11.732  0.00  0.00    +0.000 C 
BRANCH  18  23
ATOM     19  C   UNL     1      47.611   4.296  15.914  0.00  0.00    +0.000 A 
ATOM     20  C   UNL     1      47.169   3.935  14.648  0.00  0.00    +0.000 A 
ATOM     21  C   UNL     1      47.271   4.862  13.611  0.00  0.00    +0.000 A 
ATOM     22  C   UNL     1      47.804   6.130  13.859  0.00  0.00    +0.000 A 
ATOM     23  N   UNL     1      48.035   7.056  12.856  0.00  0.00    +0.000 N 
ATOM     24  N   UNL     1      48.195   6.498  15.091  0.00  0.00    +0.000 NA
ATOM     25  C   UNL     1      48.087   5.587  16.093  0.00  0.00    +0.000 A 
ATOM     26  H   UNL     1      48.295   7.953  13.261  0.00  0.00    +0.000 HD
BRANCH  19  28
ATOM     27  N   UNL     1      48.781   3.051  17.631  0.00  0.00    +0.000 N 
ATOM     28  C   UNL     1      47.582   3.360  17.057  0.00  0.00    +0.000 C 
ATOM     29  O   UNL     1      46.531   2.906  17.483  0.00  0.00    +0.000 OA
ATOM     30  H   UNL     1      48.748   2.490  18.472  0.00  0.00    +0.000 HD
ATOM     31  H   UNL     1      49.619   3.600  17.474  0.00  0.00    +0.000 HD
ENDBRANCH  19  28
ENDBRANCH  18  23
ENDBRANCH   1  18
TORSDOF 8
ENDMDL
MODEL 8
REMARK VINA RESULT:    -7.120      3.215      9.003
REMARK INTER + INTRA:         -11.349
REMARK INTER:                 -10.919
REMARK INTRA:                  -0.430
REMARK UNBOUND:                -0.898
REMARK  Name = 
REMARK  8 active torsions:
REMARK  status: ('A' for Active; 'I' for Inactive)
REMARK    1  A    between atoms: C_2  and  C_4
REMARK    2  A    between atoms: N_8  and  C_9
REMARK    3  A    between atoms: C_9  and  C_10
REMARK    4  A    between atoms: C_10  and  C_13
REMARK    5  A    between atoms: C_17  and  O_18
REMARK    6  A    between atoms: O_18  and  C_19
REMARK    7  A    between atoms: N_21  and  C_22
REMARK    8  A    between atoms: C_22  and  C_23
REMARK                            x       y       z     vdW  Elec       q    Type
REMARK                         _______ _______ _______ _____ _____    ______ ____
ROOT
ATOM      1  C   UNL     1      46.883   4.489  13.579  0.00  0.00    +0.000 C 
ATOM      2  F   UNL     1      47.886   5.359  13.253  0.00  0.00    +0.000 F 
ATOM      3  F   UNL     1      47.417   3.242  13.411  0.00  0.00    +0.000 F 
ENDROOT
BRANCH   1   4
ATOM      4  C   UNL     1      45.661   4.685  12.691  0.00  0.00    +0.000 A 
ATOM      5  C   UNL     1      44.982   5.910  12.695  0.00  0.00    +0.000 A 
ATOM      6  C   UNL     1      43.877   6.103  11.858  0.00  0.00    +0.000 A 
ATOM      7  C   UNL     1      43.431   5.086  11.003  0.00  0.00    +0.000 A 
ATOM      8  C   UNL     1      44.088   3.864  10.999  0.00  0.00    +0.000 A 
ATOM      9  C   UNL     1      45.186   3.676  11.834  0.00  0.00    +0.000 A 
BRANCH   8  10
ATOM     10  O   UNL     1      43.815   2.782  10.207  0.00  0.00    +0.000 OA
BRANCH  10  11
ATOM     11  C   UNL     1      44.383   2.711   8.880  0.00  0.00    +0.000 C 
ATOM     12  C   UNL     1      45.639   1.847   8.672  0.00  0.00    +0.000 C 
ATOM     13  N   UNL     1      46.356   2.992   8.075  0.00  0.00    +0.000 NA
ATOM     14  C   UNL     1      45.280   3.910   8.495  0.00  0.00    +0.000 C 
BRANCH  13  15
ATOM     15  C   UNL     1      46.382   2.881   6.607  0.00  0.00    +0.000 C 
BRANCH  15  16
ATOM     16  C   UNL     1      47.706   2.310   6.101  0.00  0.00    +0.000 C 
ATOM     17  F   UNL     1      47.845   2.645   4.786  0.00  0.00    +0.000 F 
ENDBRANCH  15  16
ENDBRANCH  13  15
ENDBRANCH  10  11
ENDBRANCH   8  10
ENDBRANCH   1   4
BRANCH   1  18
ATOM     18  C   UNL     1      46.545   4.680  15.077  0.00  0.00    +0.000 C 
BRANCH  18  23
ATOM     19  C   UNL     1      50.714   3.586  17.721  0.00  0.00    +0.000 A 
ATOM     20  C   UNL     1      50.134   4.816  17.441  0.00  0.00    +0.000 A 
ATOM     21  C   UNL     1      48.887   4.844  16.818  0.00  0.00    +0.000 A 
ATOM     22  C   UNL     1      48.248   3.647  16.483  0.00  0.00    +0.000 A 
ATOM     23  N   UNL     1      46.965   3.601  15.965  0.00  0.00    +0.000 N 
ATOM     24  N   UNL     1      48.824   2.455  16.715  0.00  0.00    +0.000 NA
ATOM     25  C   UNL     1      50.040   2.443  17.319  0.00  0.00    +0.000 A 
ATOM     26  H   UNL     1      46.741   2.654  15.666  0.00  0.00    +0.000 HD
BRANCH  19  28
ATOM     27  N   UNL     1      52.532   2.210  18.542  0.00  0.00    +0.000 N 
ATOM     28  C   UNL     1      52.011   3.465  18.420  0.00  0.00    +0.000 C 
ATOM     29  O   UNL     1      52.600   4.449  18.844  0.00  0.00    +0.000 OA
ATOM     30  H   UNL     1      53.463   2.143  18.932  0.00  0.00    +0.000 HD
ATOM     31  H   UNL     1      52.206   1.428  17.986  0.00  0.00    +0.000 HD
ENDBRANCH  19  28
ENDBRANCH  18  23
ENDBRANCH   1  18
TORSDOF 8
ENDMDL
MODEL 9
REMARK VINA RESULT:    -6.447      3.115      8.819
REMARK INTER + INTRA:         -10.360
REMARK INTER:                  -9.908
REMARK INTRA:                  -0.452
REMARK UNBOUND:                -0.898
REMARK  Name = 
REMARK  8 active torsions:
REMARK  status: ('A' for Active; 'I' for Inactive)
REMARK    1  A    between atoms: C_2  and  C_4
REMARK    2  A    between atoms: N_8  and  C_9
REMARK    3  A    between atoms: C_9  and  C_10
REMARK    4  A    between atoms: C_10  and  C_13
REMARK    5  A    between atoms: C_17  and  O_18
REMARK    6  A    between atoms: O_18  and  C_19
REMARK    7  A    between atoms: N_21  and  C_22
REMARK    8  A    between atoms: C_22  and  C_23
REMARK                            x       y       z     vdW  Elec       q    Type
REMARK                         _______ _______ _______ _____ _____    ______ ____
ROOT
ATOM      1  C   UNL     1      47.064   7.340  12.255  0.00  0.00    +0.000 C 
ATOM      2  F   UNL     1      46.271   8.400  11.913  0.00  0.00    +0.000 F 
ATOM      3  F   UNL     1      48.137   7.405  11.412  0.00  0.00    +0.000 F 
ENDROOT
BRANCH   1   4
ATOM      4  C   UNL     1      46.325   6.016  12.100  0.00  0.00    +0.000 A 
ATOM      5  C   UNL     1      46.463   5.020  13.074  0.00  0.00    +0.000 A 
ATOM      6  C   UNL     1      45.763   3.815  12.950  0.00  0.00    +0.000 A 
ATOM      7  C   UNL     1      44.912   3.582  11.860  0.00  0.00    +0.000 A 
ATOM      8  C   UNL     1      44.777   4.557  10.883  0.00  0.00    +0.000 A 
ATOM      9  C   UNL     1      45.477   5.753  11.010  0.00  0.00    +0.000 A 
BRANCH   8  10
ATOM     10  O   UNL     1      43.967   4.515   9.780  0.00  0.00    +0.000 OA
BRANCH  10  11
ATOM     11  C   UNL     1      44.506   4.060   8.519  0.00  0.00    +0.000 C 
ATOM     12  C   UNL     1      45.015   2.611   8.426  0.00  0.00    +0.000 C 
ATOM     13  N   UNL     1      46.326   3.080   7.931  0.00  0.00    +0.000 NA
ATOM     14  C   UNL     1      45.971   4.475   8.254  0.00  0.00    +0.000 C 
BRANCH  13  15
ATOM     15  C   UNL     1      46.421   2.908   6.472  0.00  0.00    +0.000 C 
BRANCH  15  16
ATOM     16  C   UNL     1      47.676   2.133   6.069  0.00  0.00    +0.000 C 
ATOM     17  F   UNL     1      48.218   1.578   7.190  0.00  0.00    +0.000 F 
ENDBRANCH  15  16
ENDBRANCH  13  15
ENDBRANCH  10  11
ENDBRANCH   8  10
ENDBRANCH   1   4
BRANCH   1  18
ATOM     18  C   UNL     1      47.562   7.557  13.704  0.00  0.00    +0.000 C 
BRANCH  18  23
ATOM     19  C   UNL     1      50.017   5.272  17.489  0.00  0.00    +0.000 A 
ATOM     20  C   UNL     1      48.730   5.066  17.008  0.00  0.00    +0.000 A 
ATOM     21  C   UNL     1      48.337   5.720  15.842  0.00  0.00    +0.000 A 
ATOM     22  C   UNL     1      49.230   6.571  15.184  0.00  0.00    +0.000 A 
ATOM     23  N   UNL     1      48.942   7.163  13.966  0.00  0.00    +0.000 N 
ATOM     24  N   UNL     1      50.461   6.805  15.668  0.00  0.00    +0.000 NA
ATOM     25  C   UNL     1      50.831   6.164  16.807  0.00  0.00    +0.000 A 
ATOM     26  H   UNL     1      49.662   7.844  13.729  0.00  0.00    +0.000 HD
BRANCH  19  28
ATOM     27  N   UNL     1      49.626   4.299  19.673  0.00  0.00    +0.000 N 
ATOM     28  C   UNL     1      50.531   4.583  18.692  0.00  0.00    +0.000 C 
ATOM     29  O   UNL     1      51.705   4.260  18.788  0.00  0.00    +0.000 OA
ATOM     30  H   UNL     1      49.960   3.741  20.448  0.00  0.00    +0.000 HD
ATOM     31  H   UNL     1      48.624   4.316  19.514  0.00  0.00    +0.000 HD
ENDBRANCH  19  28
ENDBRANCH  18  23
ENDBRANCH   1  18
TORSDOF 8
ENDMDL
