MODEL 1
REMARK VINA RESULT:    -9.358      0.000      0.000
REMARK INTER + INTRA:         -13.018
REMARK INTER:                 -12.641
REMARK INTRA:                  -0.378
REMARK UNBOUND:                -0.378
REMARK  Name = 
REMARK  7 active torsions:
REMARK  status: ('A' for Active; 'I' for Inactive)
REMARK    1  A    between atoms: C_1  and  O_2
REMARK    2  A    between atoms: O_2  and  C_3
REMARK    3  A    between atoms: C_6  and  C_7
REMARK    4  A    between atoms: C_11  and  C_12
REMARK    5  A    between atoms: C_12  and  N_13
REMARK    6  A    between atoms: N_13  and  C_14
REMARK    7  A    between atoms: C_17  and  C_18
REMARK                            x       y       z     vdW  Elec       q    Type
REMARK                         _______ _______ _______ _____ _____    ______ ____
ROOT
ATOM      1  C   UNL     1      43.920   4.926  11.548  0.00  0.00    +0.000 C 
ATOM      2  C   UNL     1      42.706   5.097  12.437  0.00  0.00    +0.000 C 
ATOM      3  C   UNL     1      43.326   3.745  12.315  0.00  0.00    +0.000 C 
ENDROOT
BRANCH   1   8
ATOM      4  C   UNL     1      47.016   5.540  13.775  0.00  0.00    +0.000 A 
ATOM      5  C   UNL     1      47.710   6.476  12.989  0.00  0.00    +0.000 A 
ATOM      6  C   UNL     1      47.215   6.889  11.751  0.00  0.00    +0.000 A 
ATOM      7  C   UNL     1      46.001   6.390  11.284  0.00  0.00    +0.000 A 
ATOM      8  C   UNL     1      45.255   5.472  12.036  0.00  0.00    +0.000 A 
ATOM      9  C   UNL     1      45.796   5.057  13.271  0.00  0.00    +0.000 A 
BRANCH   4  13
ATOM     10  C   UNL     1      48.599   4.301  17.512  0.00  0.00    +0.000 A 
ATOM     11  C   UNL     1      47.705   3.457  16.881  0.00  0.00    +0.000 A 
ATOM     12  C   UNL     1      47.173   3.852  15.652  0.00  0.00    +0.000 A 
ATOM     13  C   UNL     1      47.552   5.067  15.069  0.00  0.00    +0.000 A 
ATOM     14  C   UNL     1      48.485   5.818  15.791  0.00  0.00    +0.000 A 
ATOM     15  N   UNL     1      49.012   5.472  16.987  0.00  0.00    +0.000 NA
BRANCH  10  17
ATOM     16  C   UNL     1      48.549   4.703  19.806  0.00  0.00    +0.000 C 
ATOM     17  O   UNL     1      49.073   3.906  18.746  0.00  0.00    +0.000 OA
ENDBRANCH  10  17
ENDBRANCH   4  13
ENDBRANCH   1   8
BRANCH   1  18
ATOM     18  N   UNL     1      43.844   4.760  10.091  0.00  0.00    +0.000 N 
ATOM     19  H   UNL     1      42.925   4.940   9.698  0.00  0.00    +0.000 HD
BRANCH  18  20
ATOM     20  C   UNL     1      44.605   3.890   9.293  0.00  0.00    +0.000 A 
ATOM     21  C   UNL     1      44.683   2.508   9.472  0.00  0.00    +0.000 A 
ATOM     22  C   UNL     1      45.572   1.735   8.708  0.00  0.00    +0.000 A 
ATOM     23  C   UNL     1      46.414   2.338   7.764  0.00  0.00    +0.000 A 
ATOM     24  C   UNL     1      46.351   3.720   7.584  0.00  0.00    +0.000 A 
ATOM     25  C   UNL     1      45.457   4.479   8.342  0.00  0.00    +0.000 A 
BRANCH  23  26
ATOM     26  C   UNL     1      47.394   1.502   7.027  0.00  0.00    +0.000 C 
ATOM     27  N   UNL     1      48.502   2.123   6.512  0.00  0.00    +0.000 N 
ATOM     28  O   UNL     1      47.221   0.299   6.862  0.00  0.00    +0.000 OA
ATOM     29  H   UNL     1      48.583   3.125   6.428  0.00  0.00    +0.000 HD
ATOM     30  H   UNL     1      49.127   1.549   5.960  0.00  0.00    +0.000 HD
ENDBRANCH  23  26
ENDBRANCH  18  20
ENDBRANCH   1  18
TORSDOF 6
ENDMDL
MODEL 2
REMARK VINA RESULT:    -9.315      3.095      4.430
REMARK INTER + INTRA:         -12.960
REMARK INTER:                 -11.692
REMARK INTRA:                  -1.268
REMARK UNBOUND:                -0.378
REMARK  Name = 
REMARK  7 active torsions:
REMARK  status: ('A' for Active; 'I' for Inactive)
REMARK    1  A    between atoms: C_1  and  O_2
REMARK    2  A    between atoms: O_2  and  C_3
REMARK    3  A    between atoms: C_6  and  C_7
REMARK    4  A    between atoms: C_11  and  C_12
REMARK    5  A    between atoms: C_12  and  N_13
REMARK    6  A    between atoms: N_13  and  C_14
REMARK    7  A    between atoms: C_17  and  C_18
REMARK                            x       y       z     vdW  Elec       q    Type
REMARK                         _______ _______ _______ _____ _____    ______ ____
ROOT
ATOM      1  C   UNL     1      43.784   4.941  11.368  0.00  0.00    +0.000 C 
ATOM      2  C   UNL     1      42.938   6.171  11.114  0.00  0.00    +0.000 C 
ATOM      3  C   UNL     1      42.530   5.226  12.194  0.00  0.00    +0.000 C 
ENDROOT
BRANCH   1   8
ATOM      4  C   UNL     1      47.192   6.448  12.388  0.00  0.00    +0.000 A 
ATOM      5  C   UNL     1      47.635   5.473  13.297  0.00  0.00    +0.000 A 
ATOM      6  C   UNL     1      46.851   4.361  13.606  0.00  0.00    +0.000 A 
ATOM      7  C   UNL     1      45.612   4.190  12.991  0.00  0.00    +0.000 A 
ATOM      8  C   UNL     1      45.128   5.118  12.060  0.00  0.00    +0.000 A 
ATOM      9  C   UNL     1      45.936   6.243  11.789  0.00  0.00    +0.000 A 
BRANCH   4  13
ATOM     10  C   UNL     1      49.414   9.969  11.571  0.00  0.00    +0.000 A 
ATOM     11  C   UNL     1      50.074   8.758  11.484  0.00  0.00    +0.000 A 
ATOM     12  C   UNL     1      49.357   7.589  11.753  0.00  0.00    +0.000 A 
ATOM     13  C   UNL     1      47.998   7.649  12.085  0.00  0.00    +0.000 A 
ATOM     14  C   UNL     1      47.439   8.930  12.112  0.00  0.00    +0.000 A 
ATOM     15  N   UNL     1      48.105  10.081  11.868  0.00  0.00    +0.000 NA
BRANCH  10  17
ATOM     16  C   UNL     1      51.423  10.817  10.752  0.00  0.00    +0.000 C 
ATOM     17  O   UNL     1      50.160  11.107  11.345  0.00  0.00    +0.000 OA
ENDBRANCH  10  17
ENDBRANCH   4  13
ENDBRANCH   1   8
BRANCH   1  18
ATOM     18  N   UNL     1      43.681   3.708  10.577  0.00  0.00    +0.000 N 
ATOM     19  H   UNL     1      43.269   2.925  11.076  0.00  0.00    +0.000 HD
BRANCH  18  20
ATOM     20  C   UNL     1      44.528   3.291   9.536  0.00  0.00    +0.000 A 
ATOM     21  C   UNL     1      44.990   1.986   9.360  0.00  0.00    +0.000 A 
ATOM     22  C   UNL     1      45.937   1.688   8.367  0.00  0.00    +0.000 A 
ATOM     23  C   UNL     1      46.453   2.700   7.547  0.00  0.00    +0.000 A 
ATOM     24  C   UNL     1      46.006   4.010   7.721  0.00  0.00    +0.000 A 
ATOM     25  C   UNL     1      45.057   4.294   8.705  0.00  0.00    +0.000 A 
BRANCH  23  26
ATOM     26  C   UNL     1      47.508   2.365   6.557  0.00  0.00    +0.000 C 
ATOM     27  N   UNL     1      47.505   3.042   5.366  0.00  0.00    +0.000 N 
ATOM     28  O   UNL     1      48.350   1.501   6.780  0.00  0.00    +0.000 OA
ATOM     29  H   UNL     1      46.722   3.594   5.048  0.00  0.00    +0.000 HD
ATOM     30  H   UNL     1      48.193   2.757   4.680  0.00  0.00    +0.000 HD
ENDBRANCH  23  26
ENDBRANCH  18  20
ENDBRANCH   1  18
TORSDOF 6
ENDMDL
MODEL 3
REMARK VINA RESULT:    -8.580      2.697      3.657
REMARK INTER + INTRA:         -11.967
REMARK INTER:                 -10.751
REMARK INTRA:                  -1.216
REMARK UNBOUND:                -0.378
REMARK  Name = 
REMARK  7 active torsions:
REMARK  status: ('A' for Active; 'I' for Inactive)
REMARK    1  A    between atoms: C_1  and  O_2
REMARK    2  A    between atoms: O_2  and  C_3
REMARK    3  A    between atoms: C_6  and  C_7
REMARK    4  A    between atoms: C_11  and  C_12
REMARK    5  A    between atoms: C_12  and  N_13
REMARK    6  A    between atoms: N_13  and  C_14
REMARK    7  A    between atoms: C_17  and  C_18
REMARK                            x       y       z     vdW  Elec       q    Type
REMARK                         _______ _______ _______ _____ _____    ______ ____
ROOT
ATOM      1  C   UNL     1      43.849   5.093  11.378  0.00  0.00    +0.000 C 
ATOM      2  C   UNL     1      43.154   6.427  11.207  0.00  0.00    +0.000 C 
ATOM      3  C   UNL     1      42.494   5.371  12.029  0.00  0.00    +0.000 C 
ENDROOT
BRANCH   1   8
ATOM      4  C   UNL     1      47.042   6.122  13.292  0.00  0.00    +0.000 A 
ATOM      5  C   UNL     1      47.330   4.922  13.964  0.00  0.00    +0.000 A 
ATOM      6  C   UNL     1      46.505   3.804  13.834  0.00  0.00    +0.000 A 
ATOM      7  C   UNL     1      45.384   3.857  13.008  0.00  0.00    +0.000 A 
ATOM      8  C   UNL     1      45.061   5.020  12.296  0.00  0.00    +0.000 A 
ATOM      9  C   UNL     1      45.902   6.140  12.469  0.00  0.00    +0.000 A 
BRANCH   4  13
ATOM     10  C   UNL     1      49.369   9.643  13.727  0.00  0.00    +0.000 A 
ATOM     11  C   UNL     1      49.868   8.473  14.266  0.00  0.00    +0.000 A 
ATOM     12  C   UNL     1      49.113   7.305  14.134  0.00  0.00    +0.000 A 
ATOM     13  C   UNL     1      47.888   7.323  13.456  0.00  0.00    +0.000 A 
ATOM     14  C   UNL     1      47.505   8.561  12.932  0.00  0.00    +0.000 A 
ATOM     15  N   UNL     1      48.205   9.712  13.050  0.00  0.00    +0.000 NA
BRANCH  10  17
ATOM     16  C   UNL     1      50.252  11.125  15.292  0.00  0.00    +0.000 C 
ATOM     17  O   UNL     1      50.115  10.788  13.913  0.00  0.00    +0.000 OA
ENDBRANCH  10  17
ENDBRANCH   4  13
ENDBRANCH   1   8
BRANCH   1  18
ATOM     18  N   UNL     1      43.794   4.016  10.381  0.00  0.00    +0.000 N 
ATOM     19  H   UNL     1      43.216   3.225  10.651  0.00  0.00    +0.000 HD
BRANCH  18  20
ATOM     20  C   UNL     1      44.793   3.657   9.459  0.00  0.00    +0.000 A 
ATOM     21  C   UNL     1      45.445   4.548   8.607  0.00  0.00    +0.000 A 
ATOM     22  C   UNL     1      46.336   4.081   7.627  0.00  0.00    +0.000 A 
ATOM     23  C   UNL     1      46.572   2.709   7.472  0.00  0.00    +0.000 A 
ATOM     24  C   UNL     1      45.917   1.809   8.313  0.00  0.00    +0.000 A 
ATOM     25  C   UNL     1      45.040   2.284   9.290  0.00  0.00    +0.000 A 
BRANCH  23  26
ATOM     26  C   UNL     1      47.462   2.244   6.379  0.00  0.00    +0.000 C 
ATOM     27  N   UNL     1      47.392   2.899   5.177  0.00  0.00    +0.000 N 
ATOM     28  O   UNL     1      48.225   1.296   6.527  0.00  0.00    +0.000 OA
ATOM     29  H   UNL     1      46.642   3.529   4.936  0.00  0.00    +0.000 HD
ATOM     30  H   UNL     1      47.960   2.530   4.426  0.00  0.00    +0.000 HD
ENDBRANCH  23  26
ENDBRANCH  18  20
ENDBRANCH   1  18
TORSDOF 6
ENDMDL
MODEL 4
REMARK VINA RESULT:    -8.137      2.126      2.843
REMARK INTER + INTRA:         -11.368
REMARK INTER:                 -10.885
REMARK INTRA:                  -0.484
REMARK UNBOUND:                -0.378
REMARK  Name = 
REMARK  7 active torsions:
REMARK  status: ('A' for Active; 'I' for Inactive)
REMARK    1  A    between atoms: C_1  and  O_2
REMARK    2  A    between atoms: O_2  and  C_3
REMARK    3  A    between atoms: C_6  and  C_7
REMARK    4  A    between atoms: C_11  and  C_12
REMARK    5  A    between atoms: C_12  and  N_13
REMARK    6  A    between atoms: N_13  and  C_14
REMARK    7  A    between atoms: C_17  and  C_18
REMARK                            x       y       z     vdW  Elec       q    Type
REMARK                         _______ _______ _______ _____ _____    ______ ____
ROOT
ATOM      1  C   UNL     1      43.963   4.978  11.639  0.00  0.00    +0.000 C 
ATOM      2  C   UNL     1      43.021   4.520  12.734  0.00  0.00    +0.000 C 
ATOM      3  C   UNL     1      44.332   3.826  12.573  0.00  0.00    +0.000 C 
ENDROOT
BRANCH   1   8
ATOM      4  C   UNL     1      46.669   7.518  12.709  0.00  0.00    +0.000 A 
ATOM      5  C   UNL     1      46.103   8.708  12.222  0.00  0.00    +0.000 A 
ATOM      6  C   UNL     1      44.887   8.705  11.537  0.00  0.00    +0.000 A 
ATOM      7  C   UNL     1      44.201   7.508  11.344  0.00  0.00    +0.000 A 
ATOM      8  C   UNL     1      44.706   6.293  11.828  0.00  0.00    +0.000 A 
ATOM      9  C   UNL     1      45.949   6.330  12.494  0.00  0.00    +0.000 A 
BRANCH   4  13
ATOM     10  C   UNL     1      50.383   7.382  14.756  0.00  0.00    +0.000 A 
ATOM     11  C   UNL     1      50.282   8.224  13.666  0.00  0.00    +0.000 A 
ATOM     12  C   UNL     1      49.066   8.278  12.979  0.00  0.00    +0.000 A 
ATOM     13  C   UNL     1      47.976   7.508  13.400  0.00  0.00    +0.000 A 
ATOM     14  C   UNL     1      48.196   6.718  14.533  0.00  0.00    +0.000 A 
ATOM     15  N   UNL     1      49.360   6.633  15.214  0.00  0.00    +0.000 NA
BRANCH  10  17
ATOM     16  C   UNL     1      51.598   6.419  16.495  0.00  0.00    +0.000 C 
ATOM     17  O   UNL     1      51.609   7.315  15.386  0.00  0.00    +0.000 OA
ENDBRANCH  10  17
ENDBRANCH   4  13
ENDBRANCH   1   8
BRANCH   1  18
ATOM     18  N   UNL     1      43.841   4.561  10.236  0.00  0.00    +0.000 N 
ATOM     19  H   UNL     1      42.919   4.220   9.980  0.00  0.00    +0.000 HD
BRANCH  18  20
ATOM     20  C   UNL     1      44.852   4.037   9.413  0.00  0.00    +0.000 A 
ATOM     21  C   UNL     1      45.691   4.801   8.600  0.00  0.00    +0.000 A 
ATOM     22  C   UNL     1      46.586   4.182   7.712  0.00  0.00    +0.000 A 
ATOM     23  C   UNL     1      46.640   2.785   7.610  0.00  0.00    +0.000 A 
ATOM     24  C   UNL     1      45.799   2.013   8.411  0.00  0.00    +0.000 A 
ATOM     25  C   UNL     1      44.918   2.638   9.297  0.00  0.00    +0.000 A 
BRANCH  23  26
ATOM     26  C   UNL     1      47.543   2.165   6.609  0.00  0.00    +0.000 C 
ATOM     27  N   UNL     1      47.831   2.883   5.478  0.00  0.00    +0.000 N 
ATOM     28  O   UNL     1      48.010   1.042   6.769  0.00  0.00    +0.000 OA
ATOM     29  H   UNL     1      47.312   3.702   5.198  0.00  0.00    +0.000 HD
ATOM     30  H   UNL     1      48.398   2.420   4.779  0.00  0.00    +0.000 HD
ENDBRANCH  23  26
ENDBRANCH  18  20
ENDBRANCH   1  18
TORSDOF 6
ENDMDL
MODEL 5
REMARK VINA RESULT:    -8.059      1.669      8.118
REMARK INTER + INTRA:         -11.264
REMARK INTER:                 -10.123
REMARK INTRA:                  -1.141
REMARK UNBOUND:                -0.378
REMARK  Name = 
REMARK  7 active torsions:
REMARK  status: ('A' for Active; 'I' for Inactive)
REMARK    1  A    between atoms: C_1  and  O_2
REMARK    2  A    between atoms: O_2  and  C_3
REMARK    3  A    between atoms: C_6  and  C_7
REMARK    4  A    between atoms: C_11  and  C_12
REMARK    5  A    between atoms: C_12  and  N_13
REMARK    6  A    between atoms: N_13  and  C_14
REMARK    7  A    between atoms: C_17  and  C_18
REMARK                            x       y       z     vdW  Elec       q    Type
REMARK                         _______ _______ _______ _____ _____    ______ ____
ROOT
ATOM      1  C   UNL     1      46.201   7.585  12.539  0.00  0.00    +0.000 C 
ATOM      2  C   UNL     1      45.607   8.840  13.143  0.00  0.00    +0.000 C 
ATOM      3  C   UNL     1      46.390   8.949  11.877  0.00  0.00    +0.000 C 
ENDROOT
BRANCH   1   8
ATOM      4  C   UNL     1      44.924   4.808  10.177  0.00  0.00    +0.000 A 
ATOM      5  C   UNL     1      43.564   4.782  10.531  0.00  0.00    +0.000 A 
ATOM      6  C   UNL     1      43.060   5.618  11.529  0.00  0.00    +0.000 A 
ATOM      7  C   UNL     1      43.906   6.515  12.179  0.00  0.00    +0.000 A 
ATOM      8  C   UNL     1      45.265   6.601  11.851  0.00  0.00    +0.000 A 
ATOM      9  C   UNL     1      45.747   5.725  10.854  0.00  0.00    +0.000 A 
BRANCH   4  13
ATOM     10  C   UNL     1      46.565   2.299   7.175  0.00  0.00    +0.000 A 
ATOM     11  C   UNL     1      45.973   1.692   8.266  0.00  0.00    +0.000 A 
ATOM     12  C   UNL     1      45.431   2.505   9.265  0.00  0.00    +0.000 A 
ATOM     13  C   UNL     1      45.473   3.899   9.149  0.00  0.00    +0.000 A 
ATOM     14  C   UNL     1      46.073   4.391   7.986  0.00  0.00    +0.000 A 
ATOM     15  N   UNL     1      46.617   3.635   7.005  0.00  0.00    +0.000 NA
BRANCH  10  17
ATOM     16  C   UNL     1      47.968   2.185   5.319  0.00  0.00    +0.000 C 
ATOM     17  O   UNL     1      47.133   1.472   6.228  0.00  0.00    +0.000 OA
ENDBRANCH  10  17
ENDBRANCH   4  13
ENDBRANCH   1   8
BRANCH   1  18
ATOM     18  N   UNL     1      47.464   6.987  12.989  0.00  0.00    +0.000 N 
ATOM     19  H   UNL     1      48.141   6.832  12.247  0.00  0.00    +0.000 HD
BRANCH  18  20
ATOM     20  C   UNL     1      47.655   6.116  14.076  0.00  0.00    +0.000 A 
ATOM     21  C   UNL     1      46.968   4.917  14.265  0.00  0.00    +0.000 A 
ATOM     22  C   UNL     1      47.129   4.176  15.447  0.00  0.00    +0.000 A 
ATOM     23  C   UNL     1      47.969   4.638  16.469  0.00  0.00    +0.000 A 
ATOM     24  C   UNL     1      48.653   5.841  16.295  0.00  0.00    +0.000 A 
ATOM     25  C   UNL     1      48.492   6.566  15.112  0.00  0.00    +0.000 A 
BRANCH  23  26
ATOM     26  C   UNL     1      48.060   3.869  17.736  0.00  0.00    +0.000 C 
ATOM     27  N   UNL     1      47.168   2.847  17.928  0.00  0.00    +0.000 N 
ATOM     28  O   UNL     1      48.889   4.141  18.598  0.00  0.00    +0.000 OA
ATOM     29  H   UNL     1      46.341   2.724  17.362  0.00  0.00    +0.000 HD
ATOM     30  H   UNL     1      47.204   2.375  18.822  0.00  0.00    +0.000 HD
ENDBRANCH  23  26
ENDBRANCH  18  20
ENDBRANCH   1  18
TORSDOF 6
ENDMDL
MODEL 6
REMARK VINA RESULT:    -7.404      3.182      8.569
REMARK INTER + INTRA:         -10.379
REMARK INTER:                  -9.442
REMARK INTRA:                  -0.937
REMARK UNBOUND:                -0.378
REMARK  Name = 
REMARK  7 active torsions:
REMARK  status: ('A' for Active; 'I' for Inactive)
REMARK    1  A    between atoms: C_1  and  O_2
REMARK    2  A    between atoms: O_2  and  C_3
REMARK    3  A    between atoms: C_6  and  C_7
REMARK    4  A    between atoms: C_11  and  C_12
REMARK    5  A    between atoms: C_12  and  N_13
REMARK    6  A    between atoms: N_13  and  C_14
REMARK    7  A    between atoms: C_17  and  C_18
REMARK                            x       y       z     vdW  Elec       q    Type
REMARK                         _______ _______ _______ _____ _____    ______ ____
ROOT
ATOM      1  C   UNL     1      48.387   4.862  17.346  0.00  0.00    +0.000 C 
ATOM      2  C   UNL     1      47.267   3.928  17.757  0.00  0.00    +0.000 C 
ATOM      3  C   UNL     1      47.383   5.256  18.429  0.00  0.00    +0.000 C 
ENDROOT
BRANCH   1   8
ATOM      4  C   UNL     1      47.323   5.676  13.723  0.00  0.00    +0.000 A 
ATOM      5  C   UNL     1      48.071   6.844  13.498  0.00  0.00    +0.000 A 
ATOM      6  C   UNL     1      48.885   7.385  14.494  0.00  0.00    +0.000 A 
ATOM      7  C   UNL     1      48.984   6.753  15.732  0.00  0.00    +0.000 A 
ATOM      8  C   UNL     1      48.280   5.574  16.005  0.00  0.00    +0.000 A 
ATOM      9  C   UNL     1      47.447   5.067  14.984  0.00  0.00    +0.000 A 
BRANCH   4  13
ATOM     10  C   UNL     1      44.716   3.983  10.834  0.00  0.00    +0.000 A 
ATOM     11  C   UNL     1      45.224   5.243  10.581  0.00  0.00    +0.000 A 
ATOM     12  C   UNL     1      46.082   5.816  11.524  0.00  0.00    +0.000 A 
ATOM     13  C   UNL     1      46.428   5.118  12.687  0.00  0.00    +0.000 A 
ATOM     14  C   UNL     1      45.873   3.841  12.814  0.00  0.00    +0.000 A 
ATOM     15  N   UNL     1      45.032   3.261  11.928  0.00  0.00    +0.000 NA
BRANCH  10  17
ATOM     16  C   UNL     1      44.475   2.565   9.003  0.00  0.00    +0.000 C 
ATOM     17  O   UNL     1      43.837   3.463   9.908  0.00  0.00    +0.000 OA
ENDBRANCH  10  17
ENDBRANCH   4  13
ENDBRANCH   1   8
BRANCH   1  18
ATOM     18  N   UNL     1      49.761   4.754  17.852  0.00  0.00    +0.000 N 
ATOM     19  H   UNL     1      50.248   5.641  17.933  0.00  0.00    +0.000 HD
BRANCH  18  20
ATOM     20  C   UNL     1      50.645   3.673  17.691  0.00  0.00    +0.000 A 
ATOM     21  C   UNL     1      50.276   2.402  17.251  0.00  0.00    +0.000 A 
ATOM     22  C   UNL     1      51.203   1.347  17.246  0.00  0.00    +0.000 A 
ATOM     23  C   UNL     1      52.513   1.546  17.701  0.00  0.00    +0.000 A 
ATOM     24  C   UNL     1      52.890   2.811  18.152  0.00  0.00    +0.000 A 
ATOM     25  C   UNL     1      51.963   3.855  18.146  0.00  0.00    +0.000 A 
BRANCH  23  26
ATOM     26  C   UNL     1      53.447   0.393  17.752  0.00  0.00    +0.000 C 
ATOM     27  N   UNL     1      53.768  -0.220  16.570  0.00  0.00    +0.000 N 
ATOM     28  O   UNL     1      53.908  -0.017  18.812  0.00  0.00    +0.000 OA
ATOM     29  H   UNL     1      53.258  -0.068  15.713  0.00  0.00    +0.000 HD
ATOM     30  H   UNL     1      54.356  -1.042  16.631  0.00  0.00    +0.000 HD
ENDBRANCH  23  26
ENDBRANCH  18  20
ENDBRANCH   1  18
TORSDOF 6
ENDMDL
MODEL 7
REMARK VINA RESULT:    -7.032      2.064      8.489
REMARK INTER + INTRA:          -9.876
REMARK INTER:                  -8.823
REMARK INTRA:                  -1.053
REMARK UNBOUND:                -0.378
REMARK  Name = 
REMARK  7 active torsions:
REMARK  status: ('A' for Active; 'I' for Inactive)
REMARK    1  A    between atoms: C_1  and  O_2
REMARK    2  A    between atoms: O_2  and  C_3
REMARK    3  A    between atoms: C_6  and  C_7
REMARK    4  A    between atoms: C_11  and  C_12
REMARK    5  A    between atoms: C_12  and  N_13
REMARK    6  A    between atoms: N_13  and  C_14
REMARK    7  A    between atoms: C_17  and  C_18
REMARK                            x       y       z     vdW  Elec       q    Type
REMARK                         _______ _______ _______ _____ _____    ______ ____
ROOT
ATOM      1  C   UNL     1      48.426   8.331  13.844  0.00  0.00    +0.000 C 
ATOM      2  C   UNL     1      48.719   9.681  14.463  0.00  0.00    +0.000 C 
ATOM      3  C   UNL     1      49.512   9.245  13.277  0.00  0.00    +0.000 C 
ENDROOT
BRANCH   1   8
ATOM      4  C   UNL     1      45.728   6.769  11.563  0.00  0.00    +0.000 A 
ATOM      5  C   UNL     1      44.823   7.841  11.475  0.00  0.00    +0.000 A 
ATOM      6  C   UNL     1      45.050   9.038  12.154  0.00  0.00    +0.000 A 
ATOM      7  C   UNL     1      46.204   9.196  12.919  0.00  0.00    +0.000 A 
ATOM      8  C   UNL     1      47.153   8.171  13.024  0.00  0.00    +0.000 A 
ATOM      9  C   UNL     1      46.880   6.965  12.345  0.00  0.00    +0.000 A 
BRANCH   4  13
ATOM     10  C   UNL     1      44.939   3.036   9.706  0.00  0.00    +0.000 A 
ATOM     11  C   UNL     1      45.364   4.077   8.902  0.00  0.00    +0.000 A 
ATOM     12  C   UNL     1      45.625   5.313   9.498  0.00  0.00    +0.000 A 
ATOM     13  C   UNL     1      45.474   5.484  10.879  0.00  0.00    +0.000 A 
ATOM     14  C   UNL     1      45.067   4.349  11.587  0.00  0.00    +0.000 A 
ATOM     15  N   UNL     1      44.795   3.142  11.042  0.00  0.00    +0.000 NA
BRANCH  10  17
ATOM     16  C   UNL     1      45.757   1.324   8.355  0.00  0.00    +0.000 C 
ATOM     17  O   UNL     1      44.645   1.841   9.083  0.00  0.00    +0.000 OA
ENDBRANCH  10  17
ENDBRANCH   4  13
ENDBRANCH   1   8
BRANCH   1  18
ATOM     18  N   UNL     1      48.958   7.065  14.366  0.00  0.00    +0.000 N 
ATOM     19  H   UNL     1      49.061   6.335  13.667  0.00  0.00    +0.000 HD
BRANCH  18  20
ATOM     20  C   UNL     1      48.800   6.546  15.662  0.00  0.00    +0.000 A 
ATOM     21  C   UNL     1      49.454   7.028  16.797  0.00  0.00    +0.000 A 
ATOM     22  C   UNL     1      49.336   6.363  18.029  0.00  0.00    +0.000 A 
ATOM     23  C   UNL     1      48.575   5.191  18.138  0.00  0.00    +0.000 A 
ATOM     24  C   UNL     1      47.925   4.696  17.007  0.00  0.00    +0.000 A 
ATOM     25  C   UNL     1      48.042   5.369  15.789  0.00  0.00    +0.000 A 
BRANCH  23  26
ATOM     26  C   UNL     1      48.531   4.473  19.436  0.00  0.00    +0.000 C 
ATOM     27  N   UNL     1      48.356   3.114  19.407  0.00  0.00    +0.000 N 
ATOM     28  O   UNL     1      48.630   5.066  20.505  0.00  0.00    +0.000 OA
ATOM     29  H   UNL     1      48.055   2.614  18.584  0.00  0.00    +0.000 HD
ATOM     30  H   UNL     1      48.267   2.650  20.302  0.00  0.00    +0.000 HD
ENDBRANCH  23  26
ENDBRANCH  18  20
ENDBRANCH   1  18
TORSDOF 6
ENDMDL
MODEL 8
REMARK VINA RESULT:    -7.018      2.908      5.050
REMARK INTER + INTRA:          -9.857
REMARK INTER:                  -8.964
REMARK INTRA:                  -0.893
REMARK UNBOUND:                -0.378
REMARK  Name = 
REMARK  7 active torsions:
REMARK  status: ('A' for Active; 'I' for Inactive)
REMARK    1  A    between atoms: C_1  and  O_2
REMARK    2  A    between atoms: O_2  and  C_3
REMARK    3  A    between atoms: C_6  and  C_7
REMARK    4  A    between atoms: C_11  and  C_12
REMARK    5  A    between atoms: C_12  and  N_13
REMARK    6  A    between atoms: N_13  and  C_14
REMARK    7  A    between atoms: C_17  and  C_18
REMARK                            x       y       z     vdW  Elec       q    Type
REMARK                         _______ _______ _______ _____ _____    ______ ____
ROOT
ATOM      1  C   UNL     1      47.917   8.285  13.776  0.00  0.00    +0.000 C 
ATOM      2  C   UNL     1      49.007   8.423  12.733  0.00  0.00    +0.000 C 
ATOM      3  C   UNL     1      48.363   9.657  13.272  0.00  0.00    +0.000 C 
ENDROOT
BRANCH   1   8
ATOM      4  C   UNL     1      49.191   6.200  16.768  0.00  0.00    +0.000 A 
ATOM      5  C   UNL     1      49.045   7.135  17.807  0.00  0.00    +0.000 A 
ATOM      6  C   UNL     1      48.574   8.425  17.558  0.00  0.00    +0.000 A 
ATOM      7  C   UNL     1      48.216   8.798  16.264  0.00  0.00    +0.000 A 
ATOM      8  C   UNL     1      48.318   7.900  15.194  0.00  0.00    +0.000 A 
ATOM      9  C   UNL     1      48.821   6.612  15.476  0.00  0.00    +0.000 A 
BRANCH   4  13
ATOM     10  C   UNL     1      50.627   2.260  17.419  0.00  0.00    +0.000 A 
ATOM     11  C   UNL     1      51.504   3.307  17.632  0.00  0.00    +0.000 A 
ATOM     12  C   UNL     1      51.047   4.610  17.419  0.00  0.00    +0.000 A 
ATOM     13  C   UNL     1      49.727   4.845  17.017  0.00  0.00    +0.000 A 
ATOM     14  C   UNL     1      48.931   3.706  16.863  0.00  0.00    +0.000 A 
ATOM     15  N   UNL     1      49.342   2.431  17.050  0.00  0.00    +0.000 NA
BRANCH  10  17
ATOM     16  C   UNL     1      52.536   0.969  17.754  0.00  0.00    +0.000 C 
ATOM     17  O   UNL     1      51.120   0.984  17.593  0.00  0.00    +0.000 OA
ENDBRANCH  10  17
ENDBRANCH   4  13
ENDBRANCH   1   8
BRANCH   1  18
ATOM     18  N   UNL     1      46.517   7.983  13.453  0.00  0.00    +0.000 N 
ATOM     19  H   UNL     1      45.847   8.335  14.129  0.00  0.00    +0.000 HD
BRANCH  18  20
ATOM     20  C   UNL     1      46.027   6.873  12.744  0.00  0.00    +0.000 A 
ATOM     21  C   UNL     1      45.264   6.948  11.578  0.00  0.00    +0.000 A 
ATOM     22  C   UNL     1      44.707   5.790  11.010  0.00  0.00    +0.000 A 
ATOM     23  C   UNL     1      44.890   4.539  11.615  0.00  0.00    +0.000 A 
ATOM     24  C   UNL     1      45.642   4.455  12.786  0.00  0.00    +0.000 A 
ATOM     25  C   UNL     1      46.200   5.611  13.338  0.00  0.00    +0.000 A 
BRANCH  23  26
ATOM     26  C   UNL     1      44.226   3.347  11.031  0.00  0.00    +0.000 C 
ATOM     27  N   UNL     1      44.958   2.562  10.180  0.00  0.00    +0.000 N 
ATOM     28  O   UNL     1      43.057   3.072  11.281  0.00  0.00    +0.000 OA
ATOM     29  H   UNL     1      45.834   2.856   9.775  0.00  0.00    +0.000 HD
ATOM     30  H   UNL     1      44.471   1.789   9.743  0.00  0.00    +0.000 HD
ENDBRANCH  23  26
ENDBRANCH  18  20
ENDBRANCH   1  18
TORSDOF 6
ENDMDL
MODEL 9
REMARK VINA RESULT:    -6.933      3.217      8.154
REMARK INTER + INTRA:          -9.742
REMARK INTER:                  -8.436
REMARK INTRA:                  -1.306
REMARK UNBOUND:                -0.378
REMARK  Name = 
REMARK  7 active torsions:
REMARK  status: ('A' for Active; 'I' for Inactive)
REMARK    1  A    between atoms: C_1  and  O_2
REMARK    2  A    between atoms: O_2  and  C_3
REMARK    3  A    between atoms: C_6  and  C_7
REMARK    4  A    between atoms: C_11  and  C_12
REMARK    5  A    between atoms: C_12  and  N_13
REMARK    6  A    between atoms: N_13  and  C_14
REMARK    7  A    between atoms: C_17  and  C_18
REMARK                            x       y       z     vdW  Elec       q    Type
REMARK                         _______ _______ _______ _____ _____    ______ ____
ROOT
ATOM      1  C   UNL     1      49.082   8.620  17.012  0.00  0.00    +0.000 C 
ATOM      2  C   UNL     1      47.887   9.476  17.378  0.00  0.00    +0.000 C 
ATOM      3  C   UNL     1      49.241  10.102  17.349  0.00  0.00    +0.000 C 
ENDROOT
BRANCH   1   8
ATOM      4  C   UNL     1      48.385   7.064  13.546  0.00  0.00    +0.000 A 
ATOM      5  C   UNL     1      49.565   7.417  12.870  0.00  0.00    +0.000 A 
ATOM      6  C   UNL     1      50.562   8.165  13.498  0.00  0.00    +0.000 A 
ATOM      7  C   UNL     1      50.408   8.557  14.826  0.00  0.00    +0.000 A 
ATOM      8  C   UNL     1      49.262   8.214  15.556  0.00  0.00    +0.000 A 
ATOM      9  C   UNL     1      48.263   7.478  14.885  0.00  0.00    +0.000 A 
BRANCH   4  13
ATOM     10  C   UNL     1      45.265   4.829  11.737  0.00  0.00    +0.000 A 
ATOM     11  C   UNL     1      45.753   5.923  11.049  0.00  0.00    +0.000 A 
ATOM     12  C   UNL     1      46.778   6.672  11.633  0.00  0.00    +0.000 A 
ATOM     13  C   UNL     1      47.307   6.306  12.877  0.00  0.00    +0.000 A 
ATOM     14  C   UNL     1      46.749   5.164  13.458  0.00  0.00    +0.000 A 
ATOM     15  N   UNL     1      45.750   4.424  12.927  0.00  0.00    +0.000 NA
BRANCH  10  17
ATOM     16  C   UNL     1      42.967   4.781  11.362  0.00  0.00    +0.000 C 
ATOM     17  O   UNL     1      44.222   4.137  11.157  0.00  0.00    +0.000 OA
ENDBRANCH  10  17
ENDBRANCH   4  13
ENDBRANCH   1   8
BRANCH   1  18
ATOM     18  N   UNL     1      49.772   7.740  17.964  0.00  0.00    +0.000 N 
ATOM     19  H   UNL     1      50.509   8.194  18.495  0.00  0.00    +0.000 HD
BRANCH  18  20
ATOM     20  C   UNL     1      49.973   6.353  17.849  0.00  0.00    +0.000 A 
ATOM     21  C   UNL     1      51.207   5.746  17.610  0.00  0.00    +0.000 A 
ATOM     22  C   UNL     1      51.292   4.363  17.380  0.00  0.00    +0.000 A 
ATOM     23  C   UNL     1      50.137   3.569  17.366  0.00  0.00    +0.000 A 
ATOM     24  C   UNL     1      48.899   4.168  17.594  0.00  0.00    +0.000 A 
ATOM     25  C   UNL     1      48.825   5.542  17.831  0.00  0.00    +0.000 A 
BRANCH  23  26
ATOM     26  C   UNL     1      50.254   2.124  17.046  0.00  0.00    +0.000 C 
ATOM     27  N   UNL     1      51.156   1.383  17.763  0.00  0.00    +0.000 N 
ATOM     28  O   UNL     1      49.584   1.603  16.161  0.00  0.00    +0.000 OA
ATOM     29  H   UNL     1      51.875   1.795  18.339  0.00  0.00    +0.000 HD
ATOM     30  H   UNL     1      51.267   0.414  17.490  0.00  0.00    +0.000 HD
ENDBRANCH  23  26
ENDBRANCH  18  20
ENDBRANCH   1  18
TORSDOF 6
ENDMDL
