MODEL 1
REMARK VINA RESULT:    -9.172      0.000      0.000
REMARK INTER + INTRA:         -12.483
REMARK INTER:                 -11.853
REMARK INTRA:                  -0.630
REMARK UNBOUND:                -0.630
REMARK  Name = 
REMARK  5 active torsions:
REMARK  status: ('A' for Active; 'I' for Inactive)
REMARK    1  A    between atoms: C_2  and  C_4
REMARK    2  A    between atoms: C_7  and  O_8
REMARK    3  A    between atoms: O_8  and  C_9
REMARK    4  A    between atoms: C_9  and  C_10
REMARK    5  A    between atoms: C_15  and  C_16
REMARK                            x       y       z     vdW  Elec       q    Type
REMARK                         _______ _______ _______ _____ _____    ______ ____
ROOT
ATOM      1  C   UNL     1      44.717   4.644  12.047  0.00  0.00    +0.000 A 
ATOM      2  C   UNL     1      45.436   3.724  12.816  0.00  0.00    +0.000 A 
ATOM      3  C   UNL     1      46.607   4.121  13.443  0.00  0.00    +0.000 A 
ATOM      4  F   UNL     1      47.293   3.235  14.178  0.00  0.00    +0.000 F 
ATOM      5  C   UNL     1      47.096   5.413  13.298  0.00  0.00    +0.000 A 
ATOM      6  C   UNL     1      46.426   6.345  12.493  0.00  0.00    +0.000 A 
ATOM      7  C   UNL     1      45.221   5.946  11.887  0.00  0.00    +0.000 A 
ENDROOT
BRANCH   6   8
ATOM      8  C   UNL     1      46.997   7.723  12.168  0.00  0.00    +0.000 C 
ATOM      9  C   UNL     1      48.535   7.669  12.114  0.00  0.00    +0.000 C 
ATOM     10  C   UNL     1      49.156   7.680  13.511  0.00  0.00    +0.000 C 
ATOM     11  C   UNL     1      48.614   8.820  14.372  0.00  0.00    +0.000 C 
ATOM     12  N   UNL     1      47.156   8.851  14.424  0.00  0.00    +0.000 NA
ATOM     13  C   UNL     1      46.550   8.882  13.088  0.00  0.00    +0.000 C 
ATOM     14  H   UNL     1      46.843   9.658  14.963  0.00  0.00    +0.000 HD
ENDBRANCH   6   8
BRANCH   1  15
ATOM     15  C   UNL     1      43.451   4.222  11.351  0.00  0.00    +0.000 C 
BRANCH  15  16
ATOM     16  O   UNL     1      43.582   4.522   9.964  0.00  0.00    +0.000 OA
BRANCH  16  20
ATOM     17  C   UNL     1      46.400   2.439   7.703  0.00  0.00    +0.000 A 
ATOM     18  C   UNL     1      45.568   1.717   8.565  0.00  0.00    +0.000 A 
ATOM     19  C   UNL     1      44.610   2.379   9.337  0.00  0.00    +0.000 A 
ATOM     20  C   UNL     1      44.479   3.767   9.259  0.00  0.00    +0.000 A 
ATOM     21  C   UNL     1      45.318   4.489   8.407  0.00  0.00    +0.000 A 
ATOM     22  C   UNL     1      46.280   3.832   7.634  0.00  0.00    +0.000 A 
BRANCH  17  24
ATOM     23  N   UNL     1      48.485   2.527   6.450  0.00  0.00    +0.000 N 
ATOM     24  C   UNL     1      47.431   1.766   6.876  0.00  0.00    +0.000 C 
ATOM     25  O   UNL     1      47.366   0.572   6.609  0.00  0.00    +0.000 OA
ATOM     26  H   UNL     1      49.229   2.032   5.972  0.00  0.00    +0.000 HD
ATOM     27  H   UNL     1      48.703   3.427   6.852  0.00  0.00    +0.000 HD
ENDBRANCH  17  24
ENDBRANCH  16  20
ENDBRANCH  15  16
ENDBRANCH   1  15
TORSDOF 5
ENDMDL
MODEL 2
REMARK VINA RESULT:    -8.504      2.005      2.777
REMARK INTER + INTRA:         -11.620
REMARK INTER:                 -10.695
REMARK INTRA:                  -0.925
REMARK UNBOUND:                -0.630
REMARK  Name = 
REMARK  5 active torsions:
REMARK  status: ('A' for Active; 'I' for Inactive)
REMARK    1  A    between atoms: C_2  and  C_4
REMARK    2  A    between atoms: C_7  and  O_8
REMARK    3  A    between atoms: O_8  and  C_9
REMARK    4  A    between atoms: C_9  and  C_10
REMARK    5  A    between atoms: C_15  and  C_16
REMARK                            x       y       z     vdW  Elec       q    Type
REMARK                         _______ _______ _______ _____ _____    ______ ____
ROOT
ATOM      1  C   UNL     1      44.772   5.960  11.844  0.00  0.00    +0.000 A 
ATOM      2  C   UNL     1      44.024   6.982  11.253  0.00  0.00    +0.000 A 
ATOM      3  C   UNL     1      44.443   8.297  11.375  0.00  0.00    +0.000 A 
ATOM      4  F   UNL     1      43.721   9.273  10.806  0.00  0.00    +0.000 F 
ATOM      5  C   UNL     1      45.581   8.623  12.101  0.00  0.00    +0.000 A 
ATOM      6  C   UNL     1      46.326   7.628  12.748  0.00  0.00    +0.000 A 
ATOM      7  C   UNL     1      45.915   6.292  12.592  0.00  0.00    +0.000 A 
ENDROOT
BRANCH   6   8
ATOM      8  C   UNL     1      47.488   7.939  13.688  0.00  0.00    +0.000 C 
ATOM      9  C   UNL     1      48.207   9.227  13.246  0.00  0.00    +0.000 C 
ATOM     10  C   UNL     1      49.151   8.980  12.070  0.00  0.00    +0.000 C 
ATOM     11  C   UNL     1      50.099   7.809  12.330  0.00  0.00    +0.000 C 
ATOM     12  N   UNL     1      49.403   6.593  12.737  0.00  0.00    +0.000 NA
ATOM     13  C   UNL     1      48.525   6.811  13.891  0.00  0.00    +0.000 C 
ATOM     14  H   UNL     1      50.078   5.860  12.950  0.00  0.00    +0.000 HD
ENDBRANCH   6   8
BRANCH   1  15
ATOM     15  C   UNL     1      44.322   4.528  11.729  0.00  0.00    +0.000 C 
BRANCH  15  16
ATOM     16  O   UNL     1      43.832   4.318  10.407  0.00  0.00    +0.000 OA
BRANCH  16  20
ATOM     17  C   UNL     1      46.472   2.486   7.748  0.00  0.00    +0.000 A 
ATOM     18  C   UNL     1      46.379   3.882   7.744  0.00  0.00    +0.000 A 
ATOM     19  C   UNL     1      45.508   4.532   8.622  0.00  0.00    +0.000 A 
ATOM     20  C   UNL     1      44.718   3.795   9.506  0.00  0.00    +0.000 A 
ATOM     21  C   UNL     1      44.802   2.400   9.502  0.00  0.00    +0.000 A 
ATOM     22  C   UNL     1      45.670   1.744   8.623  0.00  0.00    +0.000 A 
BRANCH  17  24
ATOM     23  N   UNL     1      48.467   2.455   6.355  0.00  0.00    +0.000 N 
ATOM     24  C   UNL     1      47.382   1.767   6.824  0.00  0.00    +0.000 C 
ATOM     25  O   UNL     1      47.194   0.597   6.514  0.00  0.00    +0.000 OA
ATOM     26  H   UNL     1      49.131   1.922   5.806  0.00  0.00    +0.000 HD
ATOM     27  H   UNL     1      48.790   3.314   6.777  0.00  0.00    +0.000 HD
ENDBRANCH  17  24
ENDBRANCH  16  20
ENDBRANCH  15  16
ENDBRANCH   1  15
TORSDOF 5
ENDMDL
MODEL 3
REMARK VINA RESULT:    -8.049      1.841      2.320
REMARK INTER + INTRA:         -11.031
REMARK INTER:                 -10.421
REMARK INTRA:                  -0.611
REMARK UNBOUND:                -0.630
REMARK  Name = 
REMARK  5 active torsions:
REMARK  status: ('A' for Active; 'I' for Inactive)
REMARK    1  A    between atoms: C_2  and  C_4
REMARK    2  A    between atoms: C_7  and  O_8
REMARK    3  A    between atoms: O_8  and  C_9
REMARK    4  A    between atoms: C_9  and  C_10
REMARK    5  A    between atoms: C_15  and  C_16
REMARK                            x       y       z     vdW  Elec       q    Type
REMARK                         _______ _______ _______ _____ _____    ______ ____
ROOT
ATOM      1  C   UNL     1      44.926   5.415  11.735  0.00  0.00    +0.000 A 
ATOM      2  C   UNL     1      44.208   6.594  11.513  0.00  0.00    +0.000 A 
ATOM      3  C   UNL     1      44.859   7.816  11.578  0.00  0.00    +0.000 A 
ATOM      4  F   UNL     1      44.165   8.943  11.365  0.00  0.00    +0.000 F 
ATOM      5  C   UNL     1      46.211   7.894  11.887  0.00  0.00    +0.000 A 
ATOM      6  C   UNL     1      46.948   6.734  12.163  0.00  0.00    +0.000 A 
ATOM      7  C   UNL     1      46.290   5.495  12.064  0.00  0.00    +0.000 A 
ENDROOT
BRANCH   6   8
ATOM      8  C   UNL     1      48.391   6.767  12.663  0.00  0.00    +0.000 C 
ATOM      9  C   UNL     1      48.425   6.881  14.199  0.00  0.00    +0.000 C 
ATOM     10  C   UNL     1      48.170   8.312  14.671  0.00  0.00    +0.000 C 
ATOM     11  C   UNL     1      49.073   9.321  13.963  0.00  0.00    +0.000 C 
ATOM     12  N   UNL     1      49.021   9.209  12.508  0.00  0.00    +0.000 NA
ATOM     13  C   UNL     1      49.305   7.847  12.042  0.00  0.00    +0.000 C 
ATOM     14  H   UNL     1      49.679   9.863  12.085  0.00  0.00    +0.000 HD
ENDBRANCH   6   8
BRANCH   1  15
ATOM     15  C   UNL     1      44.228   4.083  11.680  0.00  0.00    +0.000 C 
BRANCH  15  16
ATOM     16  O   UNL     1      43.740   3.887  10.356  0.00  0.00    +0.000 OA
BRANCH  16  20
ATOM     17  C   UNL     1      46.496   2.672   7.471  0.00  0.00    +0.000 A 
ATOM     18  C   UNL     1      45.965   1.710   8.335  0.00  0.00    +0.000 A 
ATOM     19  C   UNL     1      45.037   2.078   9.314  0.00  0.00    +0.000 A 
ATOM     20  C   UNL     1      44.637   3.409   9.440  0.00  0.00    +0.000 A 
ATOM     21  C   UNL     1      45.177   4.373   8.583  0.00  0.00    +0.000 A 
ATOM     22  C   UNL     1      46.108   4.010   7.605  0.00  0.00    +0.000 A 
BRANCH  17  24
ATOM     23  N   UNL     1      47.446   3.021   5.257  0.00  0.00    +0.000 N 
ATOM     24  C   UNL     1      47.488   2.314   6.428  0.00  0.00    +0.000 C 
ATOM     25  O   UNL     1      48.332   1.446   6.611  0.00  0.00    +0.000 OA
ATOM     26  H   UNL     1      48.190   2.834   4.595  0.00  0.00    +0.000 HD
ATOM     27  H   UNL     1      46.946   3.893   5.167  0.00  0.00    +0.000 HD
ENDBRANCH  17  24
ENDBRANCH  16  20
ENDBRANCH  15  16
ENDBRANCH   1  15
TORSDOF 5
ENDMDL
MODEL 4
REMARK VINA RESULT:    -7.597      2.159      2.980
REMARK INTER + INTRA:         -10.448
REMARK INTER:                  -9.516
REMARK INTRA:                  -0.932
REMARK UNBOUND:                -0.630
REMARK  Name = 
REMARK  5 active torsions:
REMARK  status: ('A' for Active; 'I' for Inactive)
REMARK    1  A    between atoms: C_2  and  C_4
REMARK    2  A    between atoms: C_7  and  O_8
REMARK    3  A    between atoms: O_8  and  C_9
REMARK    4  A    between atoms: C_9  and  C_10
REMARK    5  A    between atoms: C_15  and  C_16
REMARK                            x       y       z     vdW  Elec       q    Type
REMARK                         _______ _______ _______ _____ _____    ______ ____
ROOT
ATOM      1  C   UNL     1      45.222   4.637  12.669  0.00  0.00    +0.000 A 
ATOM      2  C   UNL     1      45.008   5.997  12.426  0.00  0.00    +0.000 A 
ATOM      3  C   UNL     1      45.887   6.933  12.947  0.00  0.00    +0.000 A 
ATOM      4  F   UNL     1      45.677   8.236  12.711  0.00  0.00    +0.000 F 
ATOM      5  C   UNL     1      46.965   6.546  13.733  0.00  0.00    +0.000 A 
ATOM      6  C   UNL     1      47.180   5.195  14.037  0.00  0.00    +0.000 A 
ATOM      7  C   UNL     1      46.304   4.247  13.478  0.00  0.00    +0.000 A 
ENDROOT
BRANCH   6   8
ATOM      8  C   UNL     1      48.247   4.725  15.022  0.00  0.00    +0.000 C 
ATOM      9  C   UNL     1      47.744   3.509  15.821  0.00  0.00    +0.000 C 
ATOM     10  C   UNL     1      46.802   3.919  16.953  0.00  0.00    +0.000 C 
ATOM     11  C   UNL     1      47.400   5.020  17.827  0.00  0.00    +0.000 C 
ATOM     12  N   UNL     1      47.862   6.171  17.058  0.00  0.00    +0.000 NA
ATOM     13  C   UNL     1      48.799   5.792  15.994  0.00  0.00    +0.000 C 
ATOM     14  H   UNL     1      48.299   6.852  17.677  0.00  0.00    +0.000 HD
ENDBRANCH   6   8
BRANCH   1  15
ATOM     15  C   UNL     1      44.269   3.610  12.120  0.00  0.00    +0.000 C 
BRANCH  15  16
ATOM     16  O   UNL     1      43.916   3.992  10.793  0.00  0.00    +0.000 OA
BRANCH  16  20
ATOM     17  C   UNL     1      46.387   2.781   7.659  0.00  0.00    +0.000 A 
ATOM     18  C   UNL     1      45.806   1.800   8.469  0.00  0.00    +0.000 A 
ATOM     19  C   UNL     1      44.970   2.167   9.528  0.00  0.00    +0.000 A 
ATOM     20  C   UNL     1      44.714   3.514   9.789  0.00  0.00    +0.000 A 
ATOM     21  C   UNL     1      45.304   4.494   8.986  0.00  0.00    +0.000 A 
ATOM     22  C   UNL     1      46.144   4.132   7.928  0.00  0.00    +0.000 A 
BRANCH  17  24
ATOM     23  N   UNL     1      47.281   3.252   5.445  0.00  0.00    +0.000 N 
ATOM     24  C   UNL     1      47.284   2.423   6.533  0.00  0.00    +0.000 C 
ATOM     25  O   UNL     1      48.024   1.448   6.581  0.00  0.00    +0.000 OA
ATOM     26  H   UNL     1      47.968   3.052   4.728  0.00  0.00    +0.000 HD
ATOM     27  H   UNL     1      46.887   4.182   5.471  0.00  0.00    +0.000 HD
ENDBRANCH  17  24
ENDBRANCH  16  20
ENDBRANCH  15  16
ENDBRANCH   1  15
TORSDOF 5
ENDMDL
MODEL 5
REMARK VINA RESULT:    -6.903      5.393      7.939
REMARK INTER + INTRA:          -9.550
REMARK INTER:                  -8.798
REMARK INTRA:                  -0.752
REMARK UNBOUND:                -0.630
REMARK  Name = 
REMARK  5 active torsions:
REMARK  status: ('A' for Active; 'I' for Inactive)
REMARK    1  A    between atoms: C_2  and  C_4
REMARK    2  A    between atoms: C_7  and  O_8
REMARK    3  A    between atoms: O_8  and  C_9
REMARK    4  A    between atoms: C_9  and  C_10
REMARK    5  A    between atoms: C_15  and  C_16
REMARK                            x       y       z     vdW  Elec       q    Type
REMARK                         _______ _______ _______ _____ _____    ______ ____
ROOT
ATOM      1  C   UNL     1      47.053   4.776  14.935  0.00  0.00    +0.000 A 
ATOM      2  C   UNL     1      47.901   5.829  14.581  0.00  0.00    +0.000 A 
ATOM      3  C   UNL     1      47.760   6.436  13.343  0.00  0.00    +0.000 A 
ATOM      4  F   UNL     1      48.575   7.446  13.008  0.00  0.00    +0.000 F 
ATOM      5  C   UNL     1      46.806   5.997  12.433  0.00  0.00    +0.000 A 
ATOM      6  C   UNL     1      45.974   4.911  12.737  0.00  0.00    +0.000 A 
ATOM      7  C   UNL     1      46.100   4.321  14.008  0.00  0.00    +0.000 A 
ENDROOT
BRANCH   6   8
ATOM      8  C   UNL     1      45.022   4.285  11.721  0.00  0.00    +0.000 C 
ATOM      9  C   UNL     1      44.581   5.331  10.681  0.00  0.00    +0.000 C 
ATOM     10  C   UNL     1      43.486   6.249  11.224  0.00  0.00    +0.000 C 
ATOM     11  C   UNL     1      42.325   5.462  11.831  0.00  0.00    +0.000 C 
ATOM     12  N   UNL     1      42.757   4.483  12.823  0.00  0.00    +0.000 NA
ATOM     13  C   UNL     1      43.779   3.570  12.299  0.00  0.00    +0.000 C 
ATOM     14  H   UNL     1      41.956   3.948  13.157  0.00  0.00    +0.000 HD
ENDBRANCH   6   8
BRANCH   1  15
ATOM     15  C   UNL     1      47.204   4.100  16.271  0.00  0.00    +0.000 C 
BRANCH  15  16
ATOM     16  O   UNL     1      48.242   4.759  16.992  0.00  0.00    +0.000 OA
BRANCH  16  20
ATOM     17  C   UNL     1      51.592   2.349  17.595  0.00  0.00    +0.000 A 
ATOM     18  C   UNL     1      51.721   3.730  17.774  0.00  0.00    +0.000 A 
ATOM     19  C   UNL     1      50.620   4.570  17.583  0.00  0.00    +0.000 A 
ATOM     20  C   UNL     1      49.385   4.039  17.207  0.00  0.00    +0.000 A 
ATOM     21  C   UNL     1      49.260   2.660  17.017  0.00  0.00    +0.000 A 
ATOM     22  C   UNL     1      50.359   1.816  17.203  0.00  0.00    +0.000 A 
BRANCH  17  24
ATOM     23  N   UNL     1      52.465   0.155  18.185  0.00  0.00    +0.000 N 
ATOM     24  C   UNL     1      52.743   1.432  17.783  0.00  0.00    +0.000 C 
ATOM     25  O   UNL     1      53.894   1.787  17.557  0.00  0.00    +0.000 OA
ATOM     26  H   UNL     1      53.249  -0.486  18.213  0.00  0.00    +0.000 HD
ATOM     27  H   UNL     1      51.538  -0.241  18.135  0.00  0.00    +0.000 HD
ENDBRANCH  17  24
ENDBRANCH  16  20
ENDBRANCH  15  16
ENDBRANCH   1  15
TORSDOF 5
ENDMDL
MODEL 6
REMARK VINA RESULT:    -6.897      4.514      6.518
REMARK INTER + INTRA:          -9.543
REMARK INTER:                  -8.545
REMARK INTRA:                  -0.999
REMARK UNBOUND:                -0.630
REMARK  Name = 
REMARK  5 active torsions:
REMARK  status: ('A' for Active; 'I' for Inactive)
REMARK    1  A    between atoms: C_2  and  C_4
REMARK    2  A    between atoms: C_7  and  O_8
REMARK    3  A    between atoms: O_8  and  C_9
REMARK    4  A    between atoms: C_9  and  C_10
REMARK    5  A    between atoms: C_15  and  C_16
REMARK                            x       y       z     vdW  Elec       q    Type
REMARK                         _______ _______ _______ _____ _____    ______ ____
ROOT
ATOM      1  C   UNL     1      49.042   7.753  14.955  0.00  0.00    +0.000 A 
ATOM      2  C   UNL     1      48.548   8.982  15.401  0.00  0.00    +0.000 A 
ATOM      3  C   UNL     1      48.302   9.173  16.752  0.00  0.00    +0.000 A 
ATOM      4  F   UNL     1      47.828  10.354  17.174  0.00  0.00    +0.000 F 
ATOM      5  C   UNL     1      48.511   8.153  17.671  0.00  0.00    +0.000 A 
ATOM      6  C   UNL     1      48.958   6.893  17.250  0.00  0.00    +0.000 A 
ATOM      7  C   UNL     1      49.238   6.715  15.883  0.00  0.00    +0.000 A 
ENDROOT
BRANCH   6   8
ATOM      8  C   UNL     1      49.052   5.690  18.186  0.00  0.00    +0.000 C 
ATOM      9  C   UNL     1      49.466   4.430  17.403  0.00  0.00    +0.000 C 
ATOM     10  C   UNL     1      48.289   3.818  16.644  0.00  0.00    +0.000 C 
ATOM     11  C   UNL     1      47.072   3.606  17.545  0.00  0.00    +0.000 C 
ATOM     12  N   UNL     1      46.685   4.811  18.271  0.00  0.00    +0.000 NA
ATOM     13  C   UNL     1      47.798   5.385  19.036  0.00  0.00    +0.000 C 
ATOM     14  H   UNL     1      45.906   4.606  18.896  0.00  0.00    +0.000 HD
ENDBRANCH   6   8
BRANCH   1  15
ATOM     15  C   UNL     1      49.302   7.529  13.490  0.00  0.00    +0.000 C 
BRANCH  15  16
ATOM     16  O   UNL     1      48.786   6.248  13.135  0.00  0.00    +0.000 OA
BRANCH  16  20
ATOM     17  C   UNL     1      44.668   5.780  12.672  0.00  0.00    +0.000 A 
ATOM     18  C   UNL     1      45.281   6.902  12.107  0.00  0.00    +0.000 A 
ATOM     19  C   UNL     1      46.659   7.093  12.238  0.00  0.00    +0.000 A 
ATOM     20  C   UNL     1      47.434   6.168  12.941  0.00  0.00    +0.000 A 
ATOM     21  C   UNL     1      46.820   5.053  13.515  0.00  0.00    +0.000 A 
ATOM     22  C   UNL     1      45.441   4.859  13.389  0.00  0.00    +0.000 A 
BRANCH  17  24
ATOM     23  N   UNL     1      42.532   6.295  11.625  0.00  0.00    +0.000 N 
ATOM     24  C   UNL     1      43.207   5.554  12.556  0.00  0.00    +0.000 C 
ATOM     25  O   UNL     1      42.626   4.717  13.237  0.00  0.00    +0.000 OA
ATOM     26  H   UNL     1      41.556   6.060  11.488  0.00  0.00    +0.000 HD
ATOM     27  H   UNL     1      43.002   6.797  10.886  0.00  0.00    +0.000 HD
ENDBRANCH  17  24
ENDBRANCH  16  20
ENDBRANCH  15  16
ENDBRANCH   1  15
TORSDOF 5
ENDMDL
MODEL 7
REMARK VINA RESULT:    -6.670      3.755      5.758
REMARK INTER + INTRA:          -9.249
REMARK INTER:                  -8.543
REMARK INTRA:                  -0.706
REMARK UNBOUND:                -0.630
REMARK  Name = 
REMARK  5 active torsions:
REMARK  status: ('A' for Active; 'I' for Inactive)
REMARK    1  A    between atoms: C_2  and  C_4
REMARK    2  A    between atoms: C_7  and  O_8
REMARK    3  A    between atoms: O_8  and  C_9
REMARK    4  A    between atoms: C_9  and  C_10
REMARK    5  A    between atoms: C_15  and  C_16
REMARK                            x       y       z     vdW  Elec       q    Type
REMARK                         _______ _______ _______ _____ _____    ______ ____
ROOT
ATOM      1  C   UNL     1      48.637   7.010  14.775  0.00  0.00    +0.000 A 
ATOM      2  C   UNL     1      49.148   8.118  15.457  0.00  0.00    +0.000 A 
ATOM      3  C   UNL     1      49.440   8.017  16.809  0.00  0.00    +0.000 A 
ATOM      4  F   UNL     1      49.930   9.082  17.458  0.00  0.00    +0.000 F 
ATOM      5  C   UNL     1      49.207   6.839  17.507  0.00  0.00    +0.000 A 
ATOM      6  C   UNL     1      48.649   5.725  16.864  0.00  0.00    +0.000 A 
ATOM      7  C   UNL     1      48.386   5.823  15.486  0.00  0.00    +0.000 A 
ENDROOT
BRANCH   6   8
ATOM      8  C   UNL     1      48.223   4.463  17.610  0.00  0.00    +0.000 C 
ATOM      9  C   UNL     1      49.370   3.954  18.503  0.00  0.00    +0.000 C 
ATOM     10  C   UNL     1      50.423   3.191  17.700  0.00  0.00    +0.000 C 
ATOM     11  C   UNL     1      49.802   2.104  16.823  0.00  0.00    +0.000 C 
ATOM     12  N   UNL     1      48.725   2.604  15.974  0.00  0.00    +0.000 NA
ATOM     13  C   UNL     1      47.688   3.303  16.741  0.00  0.00    +0.000 C 
ATOM     14  H   UNL     1      48.308   1.835  15.451  0.00  0.00    +0.000 HD
ENDBRANCH   6   8
BRANCH   1  15
ATOM     15  C   UNL     1      48.304   7.110  13.311  0.00  0.00    +0.000 C 
BRANCH  15  16
ATOM     16  O   UNL     1      46.894   7.266  13.182  0.00  0.00    +0.000 OA
BRANCH  16  20
ATOM     17  C   UNL     1      44.854   4.094  11.400  0.00  0.00    +0.000 A 
ATOM     18  C   UNL     1      45.234   5.178  10.602  0.00  0.00    +0.000 A 
ATOM     19  C   UNL     1      45.922   6.258  11.162  0.00  0.00    +0.000 A 
ATOM     20  C   UNL     1      46.228   6.268  12.524  0.00  0.00    +0.000 A 
ATOM     21  C   UNL     1      45.838   5.191  13.324  0.00  0.00    +0.000 A 
ATOM     22  C   UNL     1      45.148   4.109  12.768  0.00  0.00    +0.000 A 
BRANCH  17  24
ATOM     23  N   UNL     1      44.722   2.246   9.822  0.00  0.00    +0.000 N 
ATOM     24  C   UNL     1      44.118   2.937  10.836  0.00  0.00    +0.000 C 
ATOM     25  O   UNL     1      43.030   2.587  11.276  0.00  0.00    +0.000 OA
ATOM     26  H   UNL     1      44.254   1.402   9.515  0.00  0.00    +0.000 HD
ATOM     27  H   UNL     1      45.705   2.342   9.609  0.00  0.00    +0.000 HD
ENDBRANCH  17  24
ENDBRANCH  16  20
ENDBRANCH  15  16
ENDBRANCH   1  15
TORSDOF 5
ENDMDL
MODEL 8
REMARK VINA RESULT:    -6.660      3.887      6.071
REMARK INTER + INTRA:          -9.236
REMARK INTER:                  -8.518
REMARK INTRA:                  -0.719
REMARK UNBOUND:                -0.630
REMARK  Name = 
REMARK  5 active torsions:
REMARK  status: ('A' for Active; 'I' for Inactive)
REMARK    1  A    between atoms: C_2  and  C_4
REMARK    2  A    between atoms: C_7  and  O_8
REMARK    3  A    between atoms: O_8  and  C_9
REMARK    4  A    between atoms: C_9  and  C_10
REMARK    5  A    between atoms: C_15  and  C_16
REMARK                            x       y       z     vdW  Elec       q    Type
REMARK                         _______ _______ _______ _____ _____    ______ ____
ROOT
ATOM      1  C   UNL     1      49.155   7.217  15.036  0.00  0.00    +0.000 A 
ATOM      2  C   UNL     1      50.500   7.576  14.908  0.00  0.00    +0.000 A 
ATOM      3  C   UNL     1      51.434   7.066  15.798  0.00  0.00    +0.000 A 
ATOM      4  F   UNL     1      52.722   7.414  15.671  0.00  0.00    +0.000 F 
ATOM      5  C   UNL     1      51.052   6.225  16.835  0.00  0.00    +0.000 A 
ATOM      6  C   UNL     1      49.704   5.885  17.021  0.00  0.00    +0.000 A 
ATOM      7  C   UNL     1      48.767   6.379  16.095  0.00  0.00    +0.000 A 
ENDROOT
BRANCH   6   8
ATOM      8  C   UNL     1      49.206   5.099  18.230  0.00  0.00    +0.000 C 
ATOM      9  C   UNL     1      49.617   3.619  18.117  0.00  0.00    +0.000 C 
ATOM     10  C   UNL     1      48.704   2.844  17.166  0.00  0.00    +0.000 C 
ATOM     11  C   UNL     1      47.226   3.044  17.499  0.00  0.00    +0.000 C 
ATOM     12  N   UNL     1      46.848   4.451  17.592  0.00  0.00    +0.000 NA
ATOM     13  C   UNL     1      47.693   5.195  18.533  0.00  0.00    +0.000 C 
ATOM     14  H   UNL     1      45.870   4.532  17.868  0.00  0.00    +0.000 HD
ENDBRANCH   6   8
BRANCH   1  15
ATOM     15  C   UNL     1      48.130   7.773  14.085  0.00  0.00    +0.000 C 
BRANCH  15  16
ATOM     16  O   UNL     1      48.168   7.003  12.886  0.00  0.00    +0.000 OA
BRANCH  16  20
ATOM     17  C   UNL     1      44.980   4.409  12.176  0.00  0.00    +0.000 A 
ATOM     18  C   UNL     1      45.941   4.044  13.124  0.00  0.00    +0.000 A 
ATOM     19  C   UNL     1      47.023   4.888  13.392  0.00  0.00    +0.000 A 
ATOM     20  C   UNL     1      47.157   6.099  12.710  0.00  0.00    +0.000 A 
ATOM     21  C   UNL     1      46.202   6.458  11.754  0.00  0.00    +0.000 A 
ATOM     22  C   UNL     1      45.120   5.616  11.481  0.00  0.00    +0.000 A 
BRANCH  17  24
ATOM     23  N   UNL     1      43.747   2.343  12.536  0.00  0.00    +0.000 N 
ATOM     24  C   UNL     1      43.825   3.532  11.866  0.00  0.00    +0.000 C 
ATOM     25  O   UNL     1      42.958   3.865  11.068  0.00  0.00    +0.000 OA
ATOM     26  H   UNL     1      42.904   1.800  12.388  0.00  0.00    +0.000 HD
ATOM     27  H   UNL     1      44.288   2.150  13.366  0.00  0.00    +0.000 HD
ENDBRANCH  17  24
ENDBRANCH  16  20
ENDBRANCH  15  16
ENDBRANCH   1  15
TORSDOF 5
ENDMDL
MODEL 9
REMARK VINA RESULT:    -6.627      4.607      8.282
REMARK INTER + INTRA:          -9.194
REMARK INTER:                  -8.344
REMARK INTRA:                  -0.851
REMARK UNBOUND:                -0.630
REMARK  Name = 
REMARK  5 active torsions:
REMARK  status: ('A' for Active; 'I' for Inactive)
REMARK    1  A    between atoms: C_2  and  C_4
REMARK    2  A    between atoms: C_7  and  O_8
REMARK    3  A    between atoms: O_8  and  C_9
REMARK    4  A    between atoms: C_9  and  C_10
REMARK    5  A    between atoms: C_15  and  C_16
REMARK                            x       y       z     vdW  Elec       q    Type
REMARK                         _______ _______ _______ _____ _____    ______ ____
ROOT
ATOM      1  C   UNL     1      47.041   7.188  13.233  0.00  0.00    +0.000 A 
ATOM      2  C   UNL     1      46.379   8.412  13.092  0.00  0.00    +0.000 A 
ATOM      3  C   UNL     1      45.259   8.496  12.280  0.00  0.00    +0.000 A 
ATOM      4  F   UNL     1      44.628   9.671  12.148  0.00  0.00    +0.000 F 
ATOM      5  C   UNL     1      44.796   7.389  11.579  0.00  0.00    +0.000 A 
ATOM      6  C   UNL     1      45.466   6.161  11.659  0.00  0.00    +0.000 A 
ATOM      7  C   UNL     1      46.582   6.073  12.511  0.00  0.00    +0.000 A 
ENDROOT
BRANCH   6   8
ATOM      8  C   UNL     1      45.101   4.958  10.792  0.00  0.00    +0.000 C 
ATOM      9  C   UNL     1      43.580   4.903  10.561  0.00  0.00    +0.000 C 
ATOM     10  C   UNL     1      42.838   4.329  11.767  0.00  0.00    +0.000 C 
ATOM     11  C   UNL     1      43.435   2.999  12.229  0.00  0.00    +0.000 C 
ATOM     12  N   UNL     1      44.875   3.069  12.455  0.00  0.00    +0.000 NA
ATOM     13  C   UNL     1      45.600   3.582  11.287  0.00  0.00    +0.000 C 
ATOM     14  H   UNL     1      45.233   2.149  12.707  0.00  0.00    +0.000 HD
ENDBRANCH   6   8
BRANCH   1  15
ATOM     15  C   UNL     1      48.266   7.086  14.101  0.00  0.00    +0.000 C 
BRANCH  15  16
ATOM     16  O   UNL     1      48.397   5.735  14.534  0.00  0.00    +0.000 OA
BRANCH  16  20
ATOM     17  C   UNL     1      48.242   5.287  18.677  0.00  0.00    +0.000 A 
ATOM     18  C   UNL     1      47.683   4.287  17.875  0.00  0.00    +0.000 A 
ATOM     19  C   UNL     1      47.717   4.400  16.482  0.00  0.00    +0.000 A 
ATOM     20  C   UNL     1      48.304   5.514  15.881  0.00  0.00    +0.000 A 
ATOM     21  C   UNL     1      48.852   6.519  16.683  0.00  0.00    +0.000 A 
ATOM     22  C   UNL     1      48.817   6.412  18.076  0.00  0.00    +0.000 A 
BRANCH  17  24
ATOM     23  N   UNL     1      48.538   3.993  20.717  0.00  0.00    +0.000 N 
ATOM     24  C   UNL     1      48.214   5.198  20.157  0.00  0.00    +0.000 C 
ATOM     25  O   UNL     1      47.946   6.167  20.857  0.00  0.00    +0.000 OA
ATOM     26  H   UNL     1      48.611   3.975  21.728  0.00  0.00    +0.000 HD
ATOM     27  H   UNL     1      49.001   3.260  20.200  0.00  0.00    +0.000 HD
ENDBRANCH  17  24
ENDBRANCH  16  20
ENDBRANCH  15  16
ENDBRANCH   1  15
TORSDOF 5
ENDMDL
