MODEL 1
REMARK VINA RESULT:    -9.264      0.000      0.000
REMARK INTER + INTRA:         -14.031
REMARK INTER:                 -13.055
REMARK INTRA:                  -0.976
REMARK UNBOUND:                -0.976
REMARK  Name = 
REMARK  8 active torsions:
REMARK  status: ('A' for Active; 'I' for Inactive)
REMARK    1  A    between atoms: C_1  and  C_2
REMARK    2  A    between atoms: C_2  and  N_3
REMARK    3  A    between atoms: C_2  and  C_26
REMARK    4  A    between atoms: N_3  and  C_4
REMARK    5  A    between atoms: C_4  and  C_5
REMARK    6  A    between atoms: C_10  and  C_11
REMARK    7  A    between atoms: C_11  and  N_12
REMARK    8  A    between atoms: C_13  and  C_15
REMARK                            x       y       z     vdW  Elec       q    Type
REMARK                         _______ _______ _______ _____ _____    ______ ____
ROOT
ATOM      1  C   UNL     1      44.968   6.002  12.048  0.00  0.00    +0.000 A 
ATOM      2  C   UNL     1      45.947   6.932  11.677  0.00  0.00    +0.000 A 
ATOM      3  C   UNL     1      47.192   6.913  12.297  0.00  0.00    +0.000 A 
ATOM      4  F   UNL     1      48.127   7.798  11.923  0.00  0.00    +0.000 F 
ATOM      5  C   UNL     1      47.498   5.975  13.278  0.00  0.00    +0.000 A 
ATOM      6  C   UNL     1      46.538   5.029  13.658  0.00  0.00    +0.000 A 
ATOM      7  C   UNL     1      45.270   5.071  13.059  0.00  0.00    +0.000 A 
ENDROOT
BRANCH   1   8
ATOM      8  C   UNL     1      43.634   5.942  11.339  0.00  0.00    +0.000 C 
BRANCH   8   9
ATOM      9  N   UNL     1      43.662   4.984  10.242  0.00  0.00    +0.000 NA
ATOM     10  H   UNL     1      44.083   5.429   9.427  0.00  0.00    +0.000 HD
BRANCH   9  12
ATOM     11  C   UNL     1      43.513   2.575  10.964  0.00  0.00    +0.000 C 
ATOM     12  C   UNL     1      44.403   3.750  10.536  0.00  0.00    +0.000 C 
BRANCH  12  13
ATOM     13  C   UNL     1      45.208   3.351   9.306  0.00  0.00    +0.000 A 
ATOM     14  C   UNL     1      45.635   4.321   8.378  0.00  0.00    +0.000 A 
ATOM     15  C   UNL     1      46.369   3.955   7.246  0.00  0.00    +0.000 A 
ATOM     16  C   UNL     1      46.684   2.616   7.026  0.00  0.00    +0.000 A 
ATOM     17  C   UNL     1      46.269   1.648   7.939  0.00  0.00    +0.000 A 
ATOM     18 CL   UNL     1      46.661  -0.005   7.669  0.00  0.00    +0.000 Cl
ATOM     19  C   UNL     1      45.533   2.010   9.071  0.00  0.00    +0.000 A 
ENDBRANCH  12  13
ENDBRANCH   9  12
ENDBRANCH   8   9
ENDBRANCH   1   8
BRANCH   6  20
ATOM     20  C   UNL     1      46.858   3.976  14.682  0.00  0.00    +0.000 C 
BRANCH  20  21
ATOM     21  N   UNL     1      47.504   4.532  15.841  0.00  0.00    +0.000 N 
ATOM     22  C   UNL     1      47.231   4.097  17.111  0.00  0.00    +0.000 C 
ATOM     23  O   UNL     1      46.403   3.220  17.343  0.00  0.00    +0.000 OA
ATOM     24  H   UNL     1      48.047   5.378  15.705  0.00  0.00    +0.000 HD
BRANCH  22  25
ATOM     25  C   UNL     1      48.044   4.676  18.187  0.00  0.00    +0.000 A 
ATOM     26  C   UNL     1      47.466   5.581  19.067  0.00  0.00    +0.000 A 
ATOM     27  S   UNL     1      48.537   6.152  20.266  0.00  0.00    +0.000 S 
ATOM     28  C   UNL     1      49.821   5.238  19.628  0.00  0.00    +0.000 A 
ATOM     29  N   UNL     1      51.064   5.300  20.178  0.00  0.00    +0.000 NA
ATOM     30  C   UNL     1      51.951   4.582  19.578  0.00  0.00    +0.000 A 
ATOM     31  N   UNL     1      51.707   3.792  18.484  0.00  0.00    +0.000 N 
ATOM     32  C   UNL     1      50.454   3.644  17.934  0.00  0.00    +0.000 A 
ATOM     33  O   UNL     1      50.242   2.836  17.038  0.00  0.00    +0.000 OA
ATOM     34  C   UNL     1      49.431   4.477  18.540  0.00  0.00    +0.000 A 
ATOM     35  H   UNL     1      52.438   3.229  18.080  0.00  0.00    +0.000 HD
ENDBRANCH  22  25
ENDBRANCH  20  21
ENDBRANCH   6  20
TORSDOF 7
ENDMDL
MODEL 2
REMARK VINA RESULT:    -8.813      1.984      2.382
REMARK INTER + INTRA:         -13.395
REMARK INTER:                 -12.043
REMARK INTRA:                  -1.352
REMARK UNBOUND:                -0.976
REMARK  Name = 
REMARK  8 active torsions:
REMARK  status: ('A' for Active; 'I' for Inactive)
REMARK    1  A    between atoms: C_1  and  C_2
REMARK    2  A    between atoms: C_2  and  N_3
REMARK    3  A    between atoms: C_2  and  C_26
REMARK    4  A    between atoms: N_3  and  C_4
REMARK    5  A    between atoms: C_4  and  C_5
REMARK    6  A    between atoms: C_10  and  C_11
REMARK    7  A    between atoms: C_11  and  N_12
REMARK    8  A    between atoms: C_13  and  C_15
REMARK                            x       y       z     vdW  Elec       q    Type
REMARK                         _______ _______ _______ _____ _____    ______ ____
ROOT
ATOM      1  C   UNL     1      45.143   6.032  11.980  0.00  0.00    +0.000 A 
ATOM      2  C   UNL     1      46.150   6.842  11.440  0.00  0.00    +0.000 A 
ATOM      3  C   UNL     1      47.418   6.846  12.011  0.00  0.00    +0.000 A 
ATOM      4  F   UNL     1      48.378   7.614  11.476  0.00  0.00    +0.000 F 
ATOM      5  C   UNL     1      47.720   6.047  13.109  0.00  0.00    +0.000 A 
ATOM      6  C   UNL     1      46.733   5.222  13.660  0.00  0.00    +0.000 A 
ATOM      7  C   UNL     1      45.443   5.245  13.108  0.00  0.00    +0.000 A 
ENDROOT
BRANCH   1   8
ATOM      8  C   UNL     1      43.778   5.942  11.337  0.00  0.00    +0.000 C 
BRANCH   8   9
ATOM      9  N   UNL     1      43.777   4.991  10.232  0.00  0.00    +0.000 NA
ATOM     10  H   UNL     1      44.208   5.431   9.420  0.00  0.00    +0.000 HD
BRANCH   9  12
ATOM     11  C   UNL     1      43.565   2.584  10.942  0.00  0.00    +0.000 C 
ATOM     12  C   UNL     1      44.485   3.736  10.515  0.00  0.00    +0.000 C 
BRANCH  12  13
ATOM     13  C   UNL     1      45.272   3.322   9.278  0.00  0.00    +0.000 A 
ATOM     14  C   UNL     1      45.705   4.282   8.344  0.00  0.00    +0.000 A 
ATOM     15  C   UNL     1      46.422   3.902   7.206  0.00  0.00    +0.000 A 
ATOM     16  C   UNL     1      46.713   2.557   6.986  0.00  0.00    +0.000 A 
ATOM     17  C   UNL     1      46.291   1.599   7.904  0.00  0.00    +0.000 A 
ATOM     18 CL   UNL     1      46.654  -0.062   7.635  0.00  0.00    +0.000 Cl
ATOM     19  C   UNL     1      45.573   1.974   9.043  0.00  0.00    +0.000 A 
ENDBRANCH  12  13
ENDBRANCH   9  12
ENDBRANCH   8   9
ENDBRANCH   1   8
BRANCH   6  20
ATOM     20  C   UNL     1      47.044   4.315  14.818  0.00  0.00    +0.000 C 
BRANCH  20  21
ATOM     21  N   UNL     1      47.218   5.049  16.044  0.00  0.00    +0.000 N 
ATOM     22  C   UNL     1      48.273   4.827  16.887  0.00  0.00    +0.000 C 
ATOM     23  O   UNL     1      49.128   3.974  16.662  0.00  0.00    +0.000 OA
ATOM     24  H   UNL     1      46.439   5.622  16.352  0.00  0.00    +0.000 HD
BRANCH  22  25
ATOM     25  C   UNL     1      48.383   5.723  18.044  0.00  0.00    +0.000 A 
ATOM     26  C   UNL     1      48.332   5.192  19.326  0.00  0.00    +0.000 A 
ATOM     27  S   UNL     1      48.487   6.360  20.559  0.00  0.00    +0.000 S 
ATOM     28  C   UNL     1      48.589   7.621  19.424  0.00  0.00    +0.000 A 
ATOM     29  N   UNL     1      48.698   8.917  19.827  0.00  0.00    +0.000 NA
ATOM     30  C   UNL     1      48.735   9.774  18.864  0.00  0.00    +0.000 A 
ATOM     31  N   UNL     1      48.689   9.456  17.531  0.00  0.00    +0.000 N 
ATOM     32  C   UNL     1      48.647   8.158  17.075  0.00  0.00    +0.000 A 
ATOM     33  O   UNL     1      48.734   7.899  15.880  0.00  0.00    +0.000 OA
ATOM     34  C   UNL     1      48.546   7.157  18.121  0.00  0.00    +0.000 A 
ATOM     35  H   UNL     1      48.755  10.172  16.826  0.00  0.00    +0.000 HD
ENDBRANCH  22  25
ENDBRANCH  20  21
ENDBRANCH   6  20
TORSDOF 7
ENDMDL
MODEL 3
REMARK VINA RESULT:    -8.629      2.187      3.137
REMARK INTER + INTRA:         -13.136
REMARK INTER:                 -11.825
REMARK INTRA:                  -1.312
REMARK UNBOUND:                -0.976
REMARK  Name = 
REMARK  8 active torsions:
REMARK  status: ('A' for Active; 'I' for Inactive)
REMARK    1  A    between atoms: C_1  and  C_2
REMARK    2  A    between atoms: C_2  and  N_3
REMARK    3  A    between atoms: C_2  and  C_26
REMARK    4  A    between atoms: N_3  and  C_4
REMARK    5  A    between atoms: C_4  and  C_5
REMARK    6  A    between atoms: C_10  and  C_11
REMARK    7  A    between atoms: C_11  and  N_12
REMARK    8  A    between atoms: C_13  and  C_15
REMARK                            x       y       z     vdW  Elec       q    Type
REMARK                         _______ _______ _______ _____ _____    ______ ____
ROOT
ATOM      1  C   UNL     1      44.026   7.151  11.498  0.00  0.00    +0.000 A 
ATOM      2  C   UNL     1      43.435   8.340  11.053  0.00  0.00    +0.000 A 
ATOM      3  C   UNL     1      44.143   9.535  11.122  0.00  0.00    +0.000 A 
ATOM      4  F   UNL     1      43.574  10.664  10.679  0.00  0.00    +0.000 F 
ATOM      5  C   UNL     1      45.443   9.578  11.617  0.00  0.00    +0.000 A 
ATOM      6  C   UNL     1      46.057   8.401  12.058  0.00  0.00    +0.000 A 
ATOM      7  C   UNL     1      45.330   7.201  12.023  0.00  0.00    +0.000 A 
ENDROOT
BRANCH   1   8
ATOM      8  C   UNL     1      43.316   5.823  11.362  0.00  0.00    +0.000 C 
BRANCH   8   9
ATOM      9  N   UNL     1      43.786   5.091  10.193  0.00  0.00    +0.000 NA
ATOM     10  H   UNL     1      44.400   5.697   9.650  0.00  0.00    +0.000 HD
BRANCH   9  12
ATOM     11  C   UNL     1      43.611   2.707  10.986  0.00  0.00    +0.000 C 
ATOM     12  C   UNL     1      44.512   3.853  10.507  0.00  0.00    +0.000 C 
BRANCH  12  13
ATOM     13  C   UNL     1      45.285   3.406   9.274  0.00  0.00    +0.000 A 
ATOM     14  C   UNL     1      45.714   4.341   8.313  0.00  0.00    +0.000 A 
ATOM     15  C   UNL     1      46.418   3.931   7.177  0.00  0.00    +0.000 A 
ATOM     16  C   UNL     1      46.702   2.580   6.987  0.00  0.00    +0.000 A 
ATOM     17  C   UNL     1      46.285   1.646   7.933  0.00  0.00    +0.000 A 
ATOM     18 CL   UNL     1      46.639  -0.022   7.700  0.00  0.00    +0.000 Cl
ATOM     19  C   UNL     1      45.579   2.052   9.068  0.00  0.00    +0.000 A 
ENDBRANCH  12  13
ENDBRANCH   9  12
ENDBRANCH   8   9
ENDBRANCH   1   8
BRANCH   6  20
ATOM     20  C   UNL     1      47.477   8.411  12.554  0.00  0.00    +0.000 C 
BRANCH  20  21
ATOM     21  N   UNL     1      47.588   7.859  13.878  0.00  0.00    +0.000 N 
ATOM     22  C   UNL     1      48.316   6.731  14.144  0.00  0.00    +0.000 C 
ATOM     23  O   UNL     1      48.905   6.105  13.265  0.00  0.00    +0.000 OA
ATOM     24  H   UNL     1      46.967   8.236  14.588  0.00  0.00    +0.000 HD
BRANCH  22  25
ATOM     25  C   UNL     1      48.432   6.346  15.555  0.00  0.00    +0.000 A 
ATOM     26  C   UNL     1      48.949   7.253  16.470  0.00  0.00    +0.000 A 
ATOM     27  S   UNL     1      49.006   6.660  18.068  0.00  0.00    +0.000 S 
ATOM     28  C   UNL     1      48.377   5.155  17.588  0.00  0.00    +0.000 A 
ATOM     29  N   UNL     1      48.205   4.150  18.488  0.00  0.00    +0.000 NA
ATOM     30  C   UNL     1      47.750   3.053  17.985  0.00  0.00    +0.000 A 
ATOM     31  N   UNL     1      47.435   2.872  16.663  0.00  0.00    +0.000 N 
ATOM     32  C   UNL     1      47.528   3.878  15.728  0.00  0.00    +0.000 A 
ATOM     33  O   UNL     1      47.121   3.724  14.583  0.00  0.00    +0.000 OA
ATOM     34  C   UNL     1      48.090   5.117  16.234  0.00  0.00    +0.000 A 
ATOM     35  H   UNL     1      47.052   1.998  16.338  0.00  0.00    +0.000 HD
ENDBRANCH  22  25
ENDBRANCH  20  21
ENDBRANCH   6  20
TORSDOF 7
ENDMDL
MODEL 4
REMARK VINA RESULT:    -8.566      1.671      2.014
REMARK INTER + INTRA:         -13.047
REMARK INTER:                 -12.112
REMARK INTRA:                  -0.935
REMARK UNBOUND:                -0.976
REMARK  Name = 
REMARK  8 active torsions:
REMARK  status: ('A' for Active; 'I' for Inactive)
REMARK    1  A    between atoms: C_1  and  C_2
REMARK    2  A    between atoms: C_2  and  N_3
REMARK    3  A    between atoms: C_2  and  C_26
REMARK    4  A    between atoms: N_3  and  C_4
REMARK    5  A    between atoms: C_4  and  C_5
REMARK    6  A    between atoms: C_10  and  C_11
REMARK    7  A    between atoms: C_11  and  N_12
REMARK    8  A    between atoms: C_13  and  C_15
REMARK                            x       y       z     vdW  Elec       q    Type
REMARK                         _______ _______ _______ _____ _____    ______ ____
ROOT
ATOM      1  C   UNL     1      44.560   6.579  11.977  0.00  0.00    +0.000 A 
ATOM      2  C   UNL     1      44.772   7.934  11.695  0.00  0.00    +0.000 A 
ATOM      3  C   UNL     1      45.940   8.557  12.121  0.00  0.00    +0.000 A 
ATOM      4  F   UNL     1      46.139   9.851  11.833  0.00  0.00    +0.000 F 
ATOM      5  C   UNL     1      46.920   7.858  12.818  0.00  0.00    +0.000 A 
ATOM      6  C   UNL     1      46.735   6.500  13.102  0.00  0.00    +0.000 A 
ATOM      7  C   UNL     1      45.540   5.880  12.705  0.00  0.00    +0.000 A 
ENDROOT
BRANCH   1   8
ATOM      8  C   UNL     1      43.340   5.851  11.459  0.00  0.00    +0.000 C 
BRANCH   8   9
ATOM      9  N   UNL     1      43.663   5.050  10.286  0.00  0.00    +0.000 NA
ATOM     10  H   UNL     1      44.233   5.609   9.652  0.00  0.00    +0.000 HD
BRANCH   9  12
ATOM     11  C   UNL     1      43.468   2.647  11.017  0.00  0.00    +0.000 C 
ATOM     12  C   UNL     1      44.380   3.803  10.584  0.00  0.00    +0.000 C 
BRANCH  12  13
ATOM     13  C   UNL     1      45.178   3.385   9.356  0.00  0.00    +0.000 A 
ATOM     14  C   UNL     1      45.625   4.342   8.426  0.00  0.00    +0.000 A 
ATOM     15  C   UNL     1      46.352   3.958   7.295  0.00  0.00    +0.000 A 
ATOM     16  C   UNL     1      46.639   2.612   7.079  0.00  0.00    +0.000 A 
ATOM     17  C   UNL     1      46.203   1.656   7.994  0.00  0.00    +0.000 A 
ATOM     18 CL   UNL     1      46.561  -0.006   7.729  0.00  0.00    +0.000 Cl
ATOM     19  C   UNL     1      45.475   2.036   9.125  0.00  0.00    +0.000 A 
ENDBRANCH  12  13
ENDBRANCH   9  12
ENDBRANCH   8   9
ENDBRANCH   1   8
BRANCH   6  20
ATOM     20  C   UNL     1      47.798   5.709  13.813  0.00  0.00    +0.000 C 
BRANCH  20  21
ATOM     21  N   UNL     1      47.765   5.921  15.235  0.00  0.00    +0.000 N 
ATOM     22  C   UNL     1      48.869   6.313  15.944  0.00  0.00    +0.000 C 
ATOM     23  O   UNL     1      49.963   6.488  15.414  0.00  0.00    +0.000 OA
ATOM     24  H   UNL     1      46.936   5.605  15.729  0.00  0.00    +0.000 HD
BRANCH  22  25
ATOM     25  C   UNL     1      48.663   6.597  17.369  0.00  0.00    +0.000 A 
ATOM     26  C   UNL     1      48.508   7.912  17.787  0.00  0.00    +0.000 A 
ATOM     27  S   UNL     1      48.265   8.075  19.467  0.00  0.00    +0.000 S 
ATOM     28  C   UNL     1      48.395   6.395  19.701  0.00  0.00    +0.000 A 
ATOM     29  N   UNL     1      48.315   5.855  20.947  0.00  0.00    +0.000 NA
ATOM     30  C   UNL     1      48.462   4.574  20.985  0.00  0.00    +0.000 A 
ATOM     31  N   UNL     1      48.665   3.778  19.887  0.00  0.00    +0.000 N 
ATOM     32  C   UNL     1      48.685   4.270  18.602  0.00  0.00    +0.000 A 
ATOM     33  O   UNL     1      48.743   3.522  17.633  0.00  0.00    +0.000 OA
ATOM     34  C   UNL     1      48.582   5.715  18.510  0.00  0.00    +0.000 A 
ATOM     35  H   UNL     1      48.740   2.778  19.981  0.00  0.00    +0.000 HD
ENDBRANCH  22  25
ENDBRANCH  20  21
ENDBRANCH   6  20
TORSDOF 7
ENDMDL
MODEL 5
REMARK VINA RESULT:    -8.160      1.968      2.611
REMARK INTER + INTRA:         -12.475
REMARK INTER:                 -11.735
REMARK INTRA:                  -0.741
REMARK UNBOUND:                -0.976
REMARK  Name = 
REMARK  8 active torsions:
REMARK  status: ('A' for Active; 'I' for Inactive)
REMARK    1  A    between atoms: C_1  and  C_2
REMARK    2  A    between atoms: C_2  and  N_3
REMARK    3  A    between atoms: C_2  and  C_26
REMARK    4  A    between atoms: N_3  and  C_4
REMARK    5  A    between atoms: C_4  and  C_5
REMARK    6  A    between atoms: C_10  and  C_11
REMARK    7  A    between atoms: C_11  and  N_12
REMARK    8  A    between atoms: C_13  and  C_15
REMARK                            x       y       z     vdW  Elec       q    Type
REMARK                         _______ _______ _______ _____ _____    ______ ____
ROOT
ATOM      1  C   UNL     1      46.419   5.450  13.254  0.00  0.00    +0.000 A 
ATOM      2  C   UNL     1      47.420   6.427  13.200  0.00  0.00    +0.000 A 
ATOM      3  C   UNL     1      48.345   6.531  14.234  0.00  0.00    +0.000 A 
ATOM      4  F   UNL     1      49.308   7.461  14.164  0.00  0.00    +0.000 F 
ATOM      5  C   UNL     1      48.308   5.671  15.327  0.00  0.00    +0.000 A 
ATOM      6  C   UNL     1      47.322   4.680  15.398  0.00  0.00    +0.000 A 
ATOM      7  C   UNL     1      46.366   4.599  14.373  0.00  0.00    +0.000 A 
ENDROOT
BRANCH   1   8
ATOM      8  C   UNL     1      45.448   5.256  12.111  0.00  0.00    +0.000 C 
BRANCH   8   9
ATOM      9  N   UNL     1      45.312   3.847  11.767  0.00  0.00    +0.000 NA
ATOM     10  H   UNL     1      44.975   3.340  12.585  0.00  0.00    +0.000 HD
BRANCH   9  12
ATOM     11  C   UNL     1      43.440   4.738  10.339  0.00  0.00    +0.000 C 
ATOM     12  C   UNL     1      44.402   3.583  10.646  0.00  0.00    +0.000 C 
BRANCH  12  13
ATOM     13  C   UNL     1      45.224   3.267   9.404  0.00  0.00    +0.000 A 
ATOM     14  C   UNL     1      45.649   4.294   8.539  0.00  0.00    +0.000 A 
ATOM     15  C   UNL     1      46.399   4.004   7.395  0.00  0.00    +0.000 A 
ATOM     16  C   UNL     1      46.732   2.684   7.100  0.00  0.00    +0.000 A 
ATOM     17  C   UNL     1      46.319   1.660   7.949  0.00  0.00    +0.000 A 
ATOM     18 CL   UNL     1      46.733   0.030   7.587  0.00  0.00    +0.000 Cl
ATOM     19  C   UNL     1      45.568   1.945   9.093  0.00  0.00    +0.000 A 
ENDBRANCH  12  13
ENDBRANCH   9  12
ENDBRANCH   8   9
ENDBRANCH   1   8
BRANCH   6  20
ATOM     20  C   UNL     1      47.287   3.709  16.544  0.00  0.00    +0.000 C 
BRANCH  20  21
ATOM     21  N   UNL     1      48.587   3.524  17.132  0.00  0.00    +0.000 N 
ATOM     22  C   UNL     1      49.443   2.537  16.722  0.00  0.00    +0.000 C 
ATOM     23  O   UNL     1      49.148   1.734  15.840  0.00  0.00    +0.000 OA
ATOM     24  H   UNL     1      48.786   4.042  17.982  0.00  0.00    +0.000 HD
BRANCH  22  25
ATOM     25  C   UNL     1      50.777   2.536  17.333  0.00  0.00    +0.000 A 
ATOM     26  C   UNL     1      51.506   1.354  17.378  0.00  0.00    +0.000 A 
ATOM     27  S   UNL     1      53.039   1.521  18.106  0.00  0.00    +0.000 S 
ATOM     28  C   UNL     1      52.768   3.169  18.423  0.00  0.00    +0.000 A 
ATOM     29  N   UNL     1      53.697   3.917  19.078  0.00  0.00    +0.000 NA
ATOM     30  C   UNL     1      53.350   5.143  19.280  0.00  0.00    +0.000 A 
ATOM     31  N   UNL     1      52.164   5.697  18.872  0.00  0.00    +0.000 N 
ATOM     32  C   UNL     1      51.224   5.000  18.148  0.00  0.00    +0.000 A 
ATOM     33  O   UNL     1      50.232   5.554  17.690  0.00  0.00    +0.000 OA
ATOM     34  C   UNL     1      51.542   3.598  17.944  0.00  0.00    +0.000 A 
ATOM     35  H   UNL     1      51.967   6.672  19.033  0.00  0.00    +0.000 HD
ENDBRANCH  22  25
ENDBRANCH  20  21
ENDBRANCH   6  20
TORSDOF 7
ENDMDL
MODEL 6
REMARK VINA RESULT:    -8.090      4.202      9.419
REMARK INTER + INTRA:         -12.377
REMARK INTER:                 -10.809
REMARK INTRA:                  -1.568
REMARK UNBOUND:                -0.976
REMARK  Name = 
REMARK  8 active torsions:
REMARK  status: ('A' for Active; 'I' for Inactive)
REMARK    1  A    between atoms: C_1  and  C_2
REMARK    2  A    between atoms: C_2  and  N_3
REMARK    3  A    between atoms: C_2  and  C_26
REMARK    4  A    between atoms: N_3  and  C_4
REMARK    5  A    between atoms: C_4  and  C_5
REMARK    6  A    between atoms: C_10  and  C_11
REMARK    7  A    between atoms: C_11  and  N_12
REMARK    8  A    between atoms: C_13  and  C_15
REMARK                            x       y       z     vdW  Elec       q    Type
REMARK                         _______ _______ _______ _____ _____    ______ ____
ROOT
ATOM      1  C   UNL     1      49.318   5.038  19.005  0.00  0.00    +0.000 A 
ATOM      2  C   UNL     1      48.542   3.877  18.895  0.00  0.00    +0.000 A 
ATOM      3  C   UNL     1      47.822   3.632  17.732  0.00  0.00    +0.000 A 
ATOM      4  F   UNL     1      47.095   2.510  17.631  0.00  0.00    +0.000 F 
ATOM      5  C   UNL     1      47.862   4.514  16.656  0.00  0.00    +0.000 A 
ATOM      6  C   UNL     1      48.638   5.675  16.740  0.00  0.00    +0.000 A 
ATOM      7  C   UNL     1      49.336   5.942  17.928  0.00  0.00    +0.000 A 
ENDROOT
BRANCH   1   8
ATOM      8  C   UNL     1      50.177   5.295  20.223  0.00  0.00    +0.000 C 
BRANCH   8   9
ATOM      9  N   UNL     1      51.363   4.448  20.221  0.00  0.00    +0.000 NA
ATOM     10  H   UNL     1      51.074   3.478  20.338  0.00  0.00    +0.000 HD
BRANCH   9  12
ATOM     11  C   UNL     1      53.451   5.387  19.173  0.00  0.00    +0.000 C 
ATOM     12  C   UNL     1      52.176   4.551  19.003  0.00  0.00    +0.000 C 
BRANCH  12  13
ATOM     13  C   UNL     1      52.550   3.149  18.537  0.00  0.00    +0.000 A 
ATOM     14  C   UNL     1      51.672   2.399  17.731  0.00  0.00    +0.000 A 
ATOM     15  C   UNL     1      52.012   1.110  17.309  0.00  0.00    +0.000 A 
ATOM     16  C   UNL     1      53.231   0.555  17.689  0.00  0.00    +0.000 A 
ATOM     17  C   UNL     1      54.108   1.288  18.485  0.00  0.00    +0.000 A 
ATOM     18 CL   UNL     1      55.616   0.603  18.951  0.00  0.00    +0.000 Cl
ATOM     19  C   UNL     1      53.772   2.576  18.910  0.00  0.00    +0.000 A 
ENDBRANCH  12  13
ENDBRANCH   9  12
ENDBRANCH   8   9
ENDBRANCH   1   8
BRANCH   6  20
ATOM     20  C   UNL     1      48.736   6.622  15.576  0.00  0.00    +0.000 C 
BRANCH  20  21
ATOM     21  N   UNL     1      47.576   6.553  14.728  0.00  0.00    +0.000 N 
ATOM     22  C   UNL     1      47.647   6.159  13.418  0.00  0.00    +0.000 C 
ATOM     23  O   UNL     1      48.709   5.860  12.878  0.00  0.00    +0.000 OA
ATOM     24  H   UNL     1      46.721   6.971  15.082  0.00  0.00    +0.000 HD
BRANCH  22  25
ATOM     25  C   UNL     1      46.371   6.030  12.706  0.00  0.00    +0.000 A 
ATOM     26  C   UNL     1      45.788   7.157  12.140  0.00  0.00    +0.000 A 
ATOM     27  S   UNL     1      44.318   6.839  11.337  0.00  0.00    +0.000 S 
ATOM     28  C   UNL     1      44.388   5.191  11.750  0.00  0.00    +0.000 A 
ATOM     29  N   UNL     1      43.390   4.338  11.393  0.00  0.00    +0.000 NA
ATOM     30  C   UNL     1      43.554   3.124  11.797  0.00  0.00    +0.000 A 
ATOM     31  N   UNL     1      44.635   2.678  12.514  0.00  0.00    +0.000 N 
ATOM     32  C   UNL     1      45.699   3.487  12.840  0.00  0.00    +0.000 A 
ATOM     33  O   UNL     1      46.706   3.033  13.370  0.00  0.00    +0.000 OA
ATOM     34  C   UNL     1      45.536   4.878  12.456  0.00  0.00    +0.000 A 
ATOM     35  H   UNL     1      44.719   1.708  12.772  0.00  0.00    +0.000 HD
ENDBRANCH  22  25
ENDBRANCH  20  21
ENDBRANCH   6  20
TORSDOF 7
ENDMDL
MODEL 7
REMARK VINA RESULT:    -8.038      3.120      3.732
REMARK INTER + INTRA:         -12.304
REMARK INTER:                 -11.157
REMARK INTRA:                  -1.147
REMARK UNBOUND:                -0.976
REMARK  Name = 
REMARK  8 active torsions:
REMARK  status: ('A' for Active; 'I' for Inactive)
REMARK    1  A    between atoms: C_1  and  C_2
REMARK    2  A    between atoms: C_2  and  N_3
REMARK    3  A    between atoms: C_2  and  C_26
REMARK    4  A    between atoms: N_3  and  C_4
REMARK    5  A    between atoms: C_4  and  C_5
REMARK    6  A    between atoms: C_10  and  C_11
REMARK    7  A    between atoms: C_11  and  N_12
REMARK    8  A    between atoms: C_13  and  C_15
REMARK                            x       y       z     vdW  Elec       q    Type
REMARK                         _______ _______ _______ _____ _____    ______ ____
ROOT
ATOM      1  C   UNL     1      44.993   5.929  11.952  0.00  0.00    +0.000 A 
ATOM      2  C   UNL     1      45.159   5.157  13.109  0.00  0.00    +0.000 A 
ATOM      3  C   UNL     1      46.364   5.197  13.802  0.00  0.00    +0.000 A 
ATOM      4  F   UNL     1      46.506   4.466  14.916  0.00  0.00    +0.000 F 
ATOM      5  C   UNL     1      47.416   6.003  13.380  0.00  0.00    +0.000 A 
ATOM      6  C   UNL     1      47.269   6.791  12.232  0.00  0.00    +0.000 A 
ATOM      7  C   UNL     1      46.067   6.723  11.511  0.00  0.00    +0.000 A 
ENDROOT
BRANCH   1   8
ATOM      8  C   UNL     1      43.670   5.972  11.220  0.00  0.00    +0.000 C 
BRANCH   8   9
ATOM      9  N   UNL     1      43.598   4.933  10.202  0.00  0.00    +0.000 NA
ATOM     10  H   UNL     1      43.936   5.314   9.318  0.00  0.00    +0.000 HD
BRANCH   9  12
ATOM     11  C   UNL     1      43.509   2.527  10.942  0.00  0.00    +0.000 C 
ATOM     12  C   UNL     1      44.370   3.724  10.515  0.00  0.00    +0.000 C 
BRANCH  12  13
ATOM     13  C   UNL     1      45.202   3.338   9.300  0.00  0.00    +0.000 A 
ATOM     14  C   UNL     1      45.658   4.318   8.397  0.00  0.00    +0.000 A 
ATOM     15  C   UNL     1      46.417   3.964   7.278  0.00  0.00    +0.000 A 
ATOM     16  C   UNL     1      46.729   2.626   7.045  0.00  0.00    +0.000 A 
ATOM     17  C   UNL     1      46.285   1.648   7.933  0.00  0.00    +0.000 A 
ATOM     18 CL   UNL     1      46.673  -0.004   7.647  0.00  0.00    +0.000 Cl
ATOM     19  C   UNL     1      45.524   1.997   9.052  0.00  0.00    +0.000 A 
ENDBRANCH  12  13
ENDBRANCH   9  12
ENDBRANCH   8   9
ENDBRANCH   1   8
BRANCH   6  20
ATOM     20  C   UNL     1      48.372   7.706  11.779  0.00  0.00    +0.000 C 
BRANCH  20  21
ATOM     21  N   UNL     1      49.571   7.527  12.554  0.00  0.00    +0.000 N 
ATOM     22  C   UNL     1      49.949   8.407  13.533  0.00  0.00    +0.000 C 
ATOM     23  O   UNL     1      49.300   9.416  13.798  0.00  0.00    +0.000 OA
ATOM     24  H   UNL     1      50.223   6.816  12.238  0.00  0.00    +0.000 HD
BRANCH  22  25
ATOM     25  C   UNL     1      51.134   8.041  14.317  0.00  0.00    +0.000 A 
ATOM     26  C   UNL     1      52.386   8.482  13.907  0.00  0.00    +0.000 A 
ATOM     27  S   UNL     1      53.657   7.984  14.930  0.00  0.00    +0.000 S 
ATOM     28  C   UNL     1      52.584   7.130  15.935  0.00  0.00    +0.000 A 
ATOM     29  N   UNL     1      53.041   6.426  17.006  0.00  0.00    +0.000 NA
ATOM     30  C   UNL     1      52.125   5.799  17.663  0.00  0.00    +0.000 A 
ATOM     31  N   UNL     1      50.788   5.824  17.359  0.00  0.00    +0.000 N 
ATOM     32  C   UNL     1      50.272   6.575  16.328  0.00  0.00    +0.000 A 
ATOM     33  O   UNL     1      49.063   6.678  16.157  0.00  0.00    +0.000 OA
ATOM     34  C   UNL     1      51.270   7.254  15.521  0.00  0.00    +0.000 A 
ATOM     35  H   UNL     1      50.118   5.338  17.933  0.00  0.00    +0.000 HD
ENDBRANCH  22  25
ENDBRANCH  20  21
ENDBRANCH   6  20
TORSDOF 7
ENDMDL
MODEL 8
REMARK VINA RESULT:    -7.965      4.037      8.157
REMARK INTER + INTRA:         -12.200
REMARK INTER:                 -10.453
REMARK INTRA:                  -1.747
REMARK UNBOUND:                -0.976
REMARK  Name = 
REMARK  8 active torsions:
REMARK  status: ('A' for Active; 'I' for Inactive)
REMARK    1  A    between atoms: C_1  and  C_2
REMARK    2  A    between atoms: C_2  and  N_3
REMARK    3  A    between atoms: C_2  and  C_26
REMARK    4  A    between atoms: N_3  and  C_4
REMARK    5  A    between atoms: C_4  and  C_5
REMARK    6  A    between atoms: C_10  and  C_11
REMARK    7  A    between atoms: C_11  and  N_12
REMARK    8  A    between atoms: C_13  and  C_15
REMARK                            x       y       z     vdW  Elec       q    Type
REMARK                         _______ _______ _______ _____ _____    ______ ____
ROOT
ATOM      1  C   UNL     1      50.553   5.048  17.369  0.00  0.00    +0.000 A 
ATOM      2  C   UNL     1      51.349   3.905  17.517  0.00  0.00    +0.000 A 
ATOM      3  C   UNL     1      50.771   2.643  17.439  0.00  0.00    +0.000 A 
ATOM      4  F   UNL     1      51.545   1.556  17.567  0.00  0.00    +0.000 F 
ATOM      5  C   UNL     1      49.409   2.484  17.203  0.00  0.00    +0.000 A 
ATOM      6  C   UNL     1      48.596   3.612  17.043  0.00  0.00    +0.000 A 
ATOM      7  C   UNL     1      49.172   4.886  17.158  0.00  0.00    +0.000 A 
ENDROOT
BRANCH   1   8
ATOM      8  C   UNL     1      51.161   6.433  17.367  0.00  0.00    +0.000 C 
BRANCH   8   9
ATOM      9  N   UNL     1      50.958   7.096  16.086  0.00  0.00    +0.000 NA
ATOM     10  H   UNL     1      50.735   6.392  15.383  0.00  0.00    +0.000 HD
BRANCH   9  12
ATOM     11  C   UNL     1      50.174   9.305  17.006  0.00  0.00    +0.000 C 
ATOM     12  C   UNL     1      49.893   8.106  16.090  0.00  0.00    +0.000 C 
BRANCH  12  13
ATOM     13  C   UNL     1      49.673   8.600  14.666  0.00  0.00    +0.000 A 
ATOM     14  C   UNL     1      48.856   9.718  14.408  0.00  0.00    +0.000 A 
ATOM     15  C   UNL     1      48.649  10.168  13.101  0.00  0.00    +0.000 A 
ATOM     16  C   UNL     1      49.253   9.505  12.035  0.00  0.00    +0.000 A 
ATOM     17  C   UNL     1      50.064   8.400  12.278  0.00  0.00    +0.000 A 
ATOM     18 CL   UNL     1      50.814   7.584  10.961  0.00  0.00    +0.000 Cl
ATOM     19  C   UNL     1      50.273   7.945  13.583  0.00  0.00    +0.000 A 
ENDBRANCH  12  13
ENDBRANCH   9  12
ENDBRANCH   8   9
ENDBRANCH   1   8
BRANCH   6  20
ATOM     20  C   UNL     1      47.130   3.468  16.742  0.00  0.00    +0.000 C 
BRANCH  20  21
ATOM     21  N   UNL     1      46.686   4.426  15.765  0.00  0.00    +0.000 N 
ATOM     22  C   UNL     1      46.746   4.182  14.418  0.00  0.00    +0.000 C 
ATOM     23  O   UNL     1      47.203   3.139  13.958  0.00  0.00    +0.000 OA
ATOM     24  H   UNL     1      46.481   5.363  16.098  0.00  0.00    +0.000 HD
BRANCH  22  25
ATOM     25  C   UNL     1      46.157   5.202  13.544  0.00  0.00    +0.000 A 
ATOM     26  C   UNL     1      46.851   6.381  13.306  0.00  0.00    +0.000 A 
ATOM     27  S   UNL     1      46.039   7.457  12.260  0.00  0.00    +0.000 S 
ATOM     28  C   UNL     1      44.713   6.402  12.119  0.00  0.00    +0.000 A 
ATOM     29  N   UNL     1      43.624   6.743  11.377  0.00  0.00    +0.000 NA
ATOM     30  C   UNL     1      42.679   5.866  11.382  0.00  0.00    +0.000 A 
ATOM     31  N   UNL     1      42.727   4.668  12.047  0.00  0.00    +0.000 N 
ATOM     32  C   UNL     1      43.832   4.250  12.753  0.00  0.00    +0.000 A 
ATOM     33  O   UNL     1      43.894   3.124  13.232  0.00  0.00    +0.000 OA
ATOM     34  C   UNL     1      44.902   5.228  12.827  0.00  0.00    +0.000 A 
ATOM     35  H   UNL     1      41.966   4.010  11.984  0.00  0.00    +0.000 HD
ENDBRANCH  22  25
ENDBRANCH  20  21
ENDBRANCH   6  20
TORSDOF 7
ENDMDL
MODEL 9
REMARK VINA RESULT:    -7.928      4.303      9.721
REMARK INTER + INTRA:         -12.148
REMARK INTER:                 -10.129
REMARK INTRA:                  -2.019
REMARK UNBOUND:                -0.976
REMARK  Name = 
REMARK  8 active torsions:
REMARK  status: ('A' for Active; 'I' for Inactive)
REMARK    1  A    between atoms: C_1  and  C_2
REMARK    2  A    between atoms: C_2  and  N_3
REMARK    3  A    between atoms: C_2  and  C_26
REMARK    4  A    between atoms: N_3  and  C_4
REMARK    5  A    between atoms: C_4  and  C_5
REMARK    6  A    between atoms: C_10  and  C_11
REMARK    7  A    between atoms: C_11  and  N_12
REMARK    8  A    between atoms: C_13  and  C_15
REMARK                            x       y       z     vdW  Elec       q    Type
REMARK                         _______ _______ _______ _____ _____    ______ ____
ROOT
ATOM      1  C   UNL     1      49.966   4.162  17.847  0.00  0.00    +0.000 A 
ATOM      2  C   UNL     1      48.965   3.220  18.116  0.00  0.00    +0.000 A 
ATOM      3  C   UNL     1      47.746   3.294  17.452  0.00  0.00    +0.000 A 
ATOM      4  F   UNL     1      46.800   2.379  17.707  0.00  0.00    +0.000 F 
ATOM      5  C   UNL     1      47.496   4.284  16.506  0.00  0.00    +0.000 A 
ATOM      6  C   UNL     1      48.485   5.230  16.213  0.00  0.00    +0.000 A 
ATOM      7  C   UNL     1      49.702   5.177  16.910  0.00  0.00    +0.000 A 
ENDROOT
BRANCH   1   8
ATOM      8  C   UNL     1      51.331   4.063  18.490  0.00  0.00    +0.000 C 
BRANCH   8   9
ATOM      9  N   UNL     1      51.261   4.338  19.919  0.00  0.00    +0.000 NA
ATOM     10  H   UNL     1      52.001   3.818  20.391  0.00  0.00    +0.000 HD
BRANCH   9  12
ATOM     11  C   UNL     1      52.367   6.533  19.371  0.00  0.00    +0.000 C 
ATOM     12  C   UNL     1      51.393   5.758  20.268  0.00  0.00    +0.000 C 
BRANCH  12  13
ATOM     13  C   UNL     1      50.019   6.413  20.206  0.00  0.00    +0.000 A 
ATOM     14  C   UNL     1      48.913   5.832  20.856  0.00  0.00    +0.000 A 
ATOM     15  C   UNL     1      47.651   6.429  20.794  0.00  0.00    +0.000 A 
ATOM     16  C   UNL     1      47.477   7.613  20.081  0.00  0.00    +0.000 A 
ATOM     17  C   UNL     1      48.565   8.198  19.436  0.00  0.00    +0.000 A 
ATOM     18 CL   UNL     1      48.351   9.663  18.559  0.00  0.00    +0.000 Cl
ATOM     19  C   UNL     1      49.828   7.603  19.494  0.00  0.00    +0.000 A 
ENDBRANCH  12  13
ENDBRANCH   9  12
ENDBRANCH   8   9
ENDBRANCH   1   8
BRANCH   6  20
ATOM     20  C   UNL     1      48.259   6.281  15.163  0.00  0.00    +0.000 C 
BRANCH  20  21
ATOM     21  N   UNL     1      47.047   6.050  14.423  0.00  0.00    +0.000 N 
ATOM     22  C   UNL     1      46.867   6.513  13.147  0.00  0.00    +0.000 C 
ATOM     23  O   UNL     1      47.721   7.173  12.560  0.00  0.00    +0.000 OA
ATOM     24  H   UNL     1      46.256   5.677  14.939  0.00  0.00    +0.000 HD
BRANCH  22  25
ATOM     25  C   UNL     1      45.627   6.109  12.475  0.00  0.00    +0.000 A 
ATOM     26  C   UNL     1      44.837   7.073  11.862  0.00  0.00    +0.000 A 
ATOM     27  S   UNL     1      43.440   6.442  11.115  0.00  0.00    +0.000 S 
ATOM     28  C   UNL     1      43.820   4.863  11.618  0.00  0.00    +0.000 A 
ATOM     29  N   UNL     1      42.992   3.821  11.334  0.00  0.00    +0.000 NA
ATOM     30  C   UNL     1      43.384   2.685  11.801  0.00  0.00    +0.000 A 
ATOM     31  N   UNL     1      44.539   2.489  12.514  0.00  0.00    +0.000 N 
ATOM     32  C   UNL     1      45.440   3.498  12.767  0.00  0.00    +0.000 A 
ATOM     33  O   UNL     1      46.522   3.270  13.296  0.00  0.00    +0.000 OA
ATOM     34  C   UNL     1      45.016   4.810  12.311  0.00  0.00    +0.000 A 
ATOM     35  H   UNL     1      44.806   1.568  12.824  0.00  0.00    +0.000 HD
ENDBRANCH  22  25
ENDBRANCH  20  21
ENDBRANCH   6  20
TORSDOF 7
ENDMDL
