MODEL 1
REMARK VINA RESULT:    -9.184      0.000      0.000
REMARK INTER + INTRA:         -13.356
REMARK INTER:                 -12.405
REMARK INTRA:                  -0.951
REMARK UNBOUND:                -0.951
REMARK  Name = 
REMARK  6 active torsions:
REMARK  status: ('A' for Active; 'I' for Inactive)
REMARK    1  A    between atoms: C_2  and  C_4
REMARK    2  A    between atoms: C_7  and  O_8
REMARK    3  A    between atoms: O_8  and  C_9
REMARK    4  A    between atoms: C_9  and  C_10
REMARK    5  A    between atoms: C_12  and  C_13
REMARK    6  A    between atoms: C_20  and  N_21
REMARK                            x       y       z     vdW  Elec       q    Type
REMARK                         _______ _______ _______ _____ _____    ______ ____
ROOT
ATOM      1  C   UNL     1      45.014   5.017  11.979  0.00  0.00    +0.000 A 
ATOM      2  C   UNL     1      45.550   6.282  11.685  0.00  0.00    +0.000 A 
ATOM      3  C   UNL     1      46.611   6.843  12.426  0.00  0.00    +0.000 A 
ATOM      4  C   UNL     1      47.140   6.078  13.481  0.00  0.00    +0.000 A 
ATOM      5  C   UNL     1      46.620   4.810  13.780  0.00  0.00    +0.000 A 
ATOM      6  C   UNL     1      45.560   4.279  13.037  0.00  0.00    +0.000 A 
ENDROOT
BRANCH   3   7
ATOM      7  C   UNL     1      47.121   8.198  12.126  0.00  0.00    +0.000 A 
ATOM      8  C   UNL     1      48.460   8.443  11.787  0.00  0.00    +0.000 A 
ATOM      9  C   UNL     1      48.905   9.740  11.528  0.00  0.00    +0.000 A 
ATOM     10  C   UNL     1      47.991  10.776  11.601  0.00  0.00    +0.000 A 
ATOM     11  N   UNL     1      46.695  10.601  11.917  0.00  0.00    +0.000 NA
ATOM     12  C   UNL     1      46.299   9.330  12.176  0.00  0.00    +0.000 A 
ENDBRANCH   3   7
BRANCH   5  13
ATOM     13  N   UNL     1      47.170   4.048  14.909  0.00  0.00    +0.000 N 
ATOM     14  O   UNL     1      47.171   4.588  16.023  0.00  0.00    +0.000 OA
ATOM     15  O   UNL     1      47.601   2.908  14.680  0.00  0.00    +0.000 OA
ENDBRANCH   5  13
BRANCH   1  16
ATOM     16  C   UNL     1      43.780   4.496  11.269  0.00  0.00    +0.000 C 
BRANCH  16  17
ATOM     17  O   UNL     1      43.792   4.819   9.874  0.00  0.00    +0.000 OA
BRANCH  17  21
ATOM     18  C   UNL     1      46.366   2.351   7.810  0.00  0.00    +0.000 A 
ATOM     19  C   UNL     1      45.470   1.799   8.727  0.00  0.00    +0.000 A 
ATOM     20  C   UNL     1      44.602   2.643   9.424  0.00  0.00    +0.000 A 
ATOM     21  C   UNL     1      44.662   4.007   9.172  0.00  0.00    +0.000 A 
ATOM     22  N   UNL     1      45.518   4.565   8.292  0.00  0.00    +0.000 NA
ATOM     23  C   UNL     1      46.361   3.730   7.640  0.00  0.00    +0.000 A 
BRANCH  18  25
ATOM     24  N   UNL     1      48.424   2.213   6.523  0.00  0.00    +0.000 N 
ATOM     25  C   UNL     1      47.335   1.559   7.028  0.00  0.00    +0.000 C 
ATOM     26  O   UNL     1      47.192   0.354   6.870  0.00  0.00    +0.000 OA
ATOM     27  H   UNL     1      49.130   1.628   6.091  0.00  0.00    +0.000 HD
ATOM     28  H   UNL     1      48.710   3.126   6.844  0.00  0.00    +0.000 HD
ENDBRANCH  18  25
ENDBRANCH  17  21
ENDBRANCH  16  17
ENDBRANCH   1  16
TORSDOF 6
ENDMDL
MODEL 2
REMARK VINA RESULT:    -8.227      2.421      4.257
REMARK INTER + INTRA:         -12.063
REMARK INTER:                 -11.218
REMARK INTRA:                  -0.846
REMARK UNBOUND:                -0.951
REMARK  Name = 
REMARK  6 active torsions:
REMARK  status: ('A' for Active; 'I' for Inactive)
REMARK    1  A    between atoms: C_2  and  C_4
REMARK    2  A    between atoms: C_7  and  O_8
REMARK    3  A    between atoms: O_8  and  C_9
REMARK    4  A    between atoms: C_9  and  C_10
REMARK    5  A    between atoms: C_12  and  C_13
REMARK    6  A    between atoms: C_20  and  N_21
REMARK                            x       y       z     vdW  Elec       q    Type
REMARK                         _______ _______ _______ _____ _____    ______ ____
ROOT
ATOM      1  C   UNL     1      45.482   5.167  12.364  0.00  0.00    +0.000 A 
ATOM      2  C   UNL     1      45.993   4.665  13.573  0.00  0.00    +0.000 A 
ATOM      3  C   UNL     1      47.094   5.254  14.230  0.00  0.00    +0.000 A 
ATOM      4  C   UNL     1      47.669   6.392  13.636  0.00  0.00    +0.000 A 
ATOM      5  C   UNL     1      47.162   6.909  12.435  0.00  0.00    +0.000 A 
ATOM      6  C   UNL     1      46.076   6.301  11.797  0.00  0.00    +0.000 A 
ENDROOT
BRANCH   3   7
ATOM      7  C   UNL     1      47.643   4.672  15.474  0.00  0.00    +0.000 A 
ATOM      8  C   UNL     1      47.535   3.308  15.781  0.00  0.00    +0.000 A 
ATOM      9  C   UNL     1      48.051   2.803  16.975  0.00  0.00    +0.000 A 
ATOM     10  C   UNL     1      48.682   3.677  17.841  0.00  0.00    +0.000 A 
ATOM     11  N   UNL     1      48.819   4.994  17.598  0.00  0.00    +0.000 NA
ATOM     12  C   UNL     1      48.295   5.454  16.435  0.00  0.00    +0.000 A 
ENDBRANCH   3   7
BRANCH   5  13
ATOM     13  N   UNL     1      47.804   8.079  11.821  0.00  0.00    +0.000 N 
ATOM     14  O   UNL     1      47.167   9.141  11.800  0.00  0.00    +0.000 OA
ATOM     15  O   UNL     1      48.946   7.936  11.360  0.00  0.00    +0.000 OA
ENDBRANCH   5  13
BRANCH   1  16
ATOM     16  C   UNL     1      44.397   4.435  11.600  0.00  0.00    +0.000 C 
BRANCH  16  17
ATOM     17  O   UNL     1      44.290   4.901  10.250  0.00  0.00    +0.000 OA
BRANCH  17  21
ATOM     18  C   UNL     1      46.476   2.522   7.692  0.00  0.00    +0.000 A 
ATOM     19  C   UNL     1      45.684   1.928   8.677  0.00  0.00    +0.000 A 
ATOM     20  C   UNL     1      44.948   2.742   9.541  0.00  0.00    +0.000 A 
ATOM     21  C   UNL     1      45.029   4.119   9.383  0.00  0.00    +0.000 A 
ATOM     22  N   UNL     1      45.787   4.717   8.440  0.00  0.00    +0.000 NA
ATOM     23  C   UNL     1      46.504   3.909   7.624  0.00  0.00    +0.000 A 
BRANCH  18  25
ATOM     24  N   UNL     1      48.338   2.423   6.131  0.00  0.00    +0.000 N 
ATOM     25  C   UNL     1      47.303   1.763   6.735  0.00  0.00    +0.000 C 
ATOM     26  O   UNL     1      47.099   0.576   6.517  0.00  0.00    +0.000 OA
ATOM     27  H   UNL     1      48.958   1.853   5.570  0.00  0.00    +0.000 HD
ATOM     28  H   UNL     1      48.695   3.304   6.472  0.00  0.00    +0.000 HD
ENDBRANCH  18  25
ENDBRANCH  17  21
ENDBRANCH  16  17
ENDBRANCH   1  16
TORSDOF 6
ENDMDL
MODEL 3
REMARK VINA RESULT:    -8.201      2.469      4.185
REMARK INTER + INTRA:         -12.028
REMARK INTER:                 -11.050
REMARK INTRA:                  -0.978
REMARK UNBOUND:                -0.951
REMARK  Name = 
REMARK  6 active torsions:
REMARK  status: ('A' for Active; 'I' for Inactive)
REMARK    1  A    between atoms: C_2  and  C_4
REMARK    2  A    between atoms: C_7  and  O_8
REMARK    3  A    between atoms: O_8  and  C_9
REMARK    4  A    between atoms: C_9  and  C_10
REMARK    5  A    between atoms: C_12  and  C_13
REMARK    6  A    between atoms: C_20  and  N_21
REMARK                            x       y       z     vdW  Elec       q    Type
REMARK                         _______ _______ _______ _____ _____    ______ ____
ROOT
ATOM      1  C   UNL     1      44.595   4.962  12.174  0.00  0.00    +0.000 A 
ATOM      2  C   UNL     1      45.432   4.553  13.225  0.00  0.00    +0.000 A 
ATOM      3  C   UNL     1      46.349   5.428  13.845  0.00  0.00    +0.000 A 
ATOM      4  C   UNL     1      46.393   6.755  13.381  0.00  0.00    +0.000 A 
ATOM      5  C   UNL     1      45.556   7.179  12.338  0.00  0.00    +0.000 A 
ATOM      6  C   UNL     1      44.662   6.289  11.732  0.00  0.00    +0.000 A 
ENDROOT
BRANCH   3   7
ATOM      7  C   UNL     1      47.254   4.955  14.915  0.00  0.00    +0.000 A 
ATOM      8  C   UNL     1      47.133   3.686  15.499  0.00  0.00    +0.000 A 
ATOM      9  C   UNL     1      47.997   3.285  16.519  0.00  0.00    +0.000 A 
ATOM     10  C   UNL     1      48.981   4.164  16.931  0.00  0.00    +0.000 A 
ATOM     11  N   UNL     1      49.147   5.392  16.405  0.00  0.00    +0.000 NA
ATOM     12  C   UNL     1      48.283   5.755  15.425  0.00  0.00    +0.000 A 
ENDBRANCH   3   7
BRANCH   5  13
ATOM     13  N   UNL     1      45.647   8.562  11.852  0.00  0.00    +0.000 N 
ATOM     14  O   UNL     1      44.673   9.024  11.242  0.00  0.00    +0.000 OA
ATOM     15  O   UNL     1      46.693   9.186  12.079  0.00  0.00    +0.000 OA
ENDBRANCH   5  13
BRANCH   1  16
ATOM     16  C   UNL     1      43.726   3.973  11.424  0.00  0.00    +0.000 C 
BRANCH  16  17
ATOM     17  O   UNL     1      43.616   4.305  10.035  0.00  0.00    +0.000 OA
BRANCH  17  21
ATOM     18  C   UNL     1      46.400   2.311   7.743  0.00  0.00    +0.000 A 
ATOM     19  C   UNL     1      46.290   3.699   7.639  0.00  0.00    +0.000 A 
ATOM     20  C   UNL     1      45.342   4.367   8.418  0.00  0.00    +0.000 A 
ATOM     21  C   UNL     1      44.545   3.620   9.275  0.00  0.00    +0.000 A 
ATOM     22  N   UNL     1      44.632   2.279   9.393  0.00  0.00    +0.000 NA
ATOM     23  C   UNL     1      45.546   1.651   8.616  0.00  0.00    +0.000 A 
BRANCH  18  25
ATOM     24  N   UNL     1      48.525   2.099   6.580  0.00  0.00    +0.000 N 
ATOM     25  C   UNL     1      47.355   1.503   6.961  0.00  0.00    +0.000 C 
ATOM     26  O   UNL     1      47.128   0.330   6.695  0.00  0.00    +0.000 OA
ATOM     27  H   UNL     1      49.210   1.492   6.146  0.00  0.00    +0.000 HD
ATOM     28  H   UNL     1      48.859   2.957   6.993  0.00  0.00    +0.000 HD
ENDBRANCH  18  25
ENDBRANCH  17  21
ENDBRANCH  16  17
ENDBRANCH   1  16
TORSDOF 6
ENDMDL
MODEL 4
REMARK VINA RESULT:    -8.093      2.306      3.622
REMARK INTER + INTRA:         -11.883
REMARK INTER:                 -11.048
REMARK INTRA:                  -0.834
REMARK UNBOUND:                -0.951
REMARK  Name = 
REMARK  6 active torsions:
REMARK  status: ('A' for Active; 'I' for Inactive)
REMARK    1  A    between atoms: C_2  and  C_4
REMARK    2  A    between atoms: C_7  and  O_8
REMARK    3  A    between atoms: O_8  and  C_9
REMARK    4  A    between atoms: C_9  and  C_10
REMARK    5  A    between atoms: C_12  and  C_13
REMARK    6  A    between atoms: C_20  and  N_21
REMARK                            x       y       z     vdW  Elec       q    Type
REMARK                         _______ _______ _______ _____ _____    ______ ____
ROOT
ATOM      1  C   UNL     1      44.824   6.077  11.767  0.00  0.00    +0.000 A 
ATOM      2  C   UNL     1      46.040   6.137  12.468  0.00  0.00    +0.000 A 
ATOM      3  C   UNL     1      46.661   7.360  12.801  0.00  0.00    +0.000 A 
ATOM      4  C   UNL     1      46.006   8.543  12.416  0.00  0.00    +0.000 A 
ATOM      5  C   UNL     1      44.787   8.497  11.723  0.00  0.00    +0.000 A 
ATOM      6  C   UNL     1      44.197   7.272  11.396  0.00  0.00    +0.000 A 
ENDROOT
BRANCH   3   7
ATOM      7  C   UNL     1      47.966   7.391  13.495  0.00  0.00    +0.000 A 
ATOM      8  C   UNL     1      48.989   8.283  13.138  0.00  0.00    +0.000 A 
ATOM      9  C   UNL     1      50.213   8.267  13.807  0.00  0.00    +0.000 A 
ATOM     10  C   UNL     1      50.389   7.362  14.837  0.00  0.00    +0.000 A 
ATOM     11  N   UNL     1      49.443   6.487  15.225  0.00  0.00    +0.000 NA
ATOM     12  C   UNL     1      48.270   6.519  14.546  0.00  0.00    +0.000 A 
ENDBRANCH   3   7
BRANCH   5  13
ATOM     13  N   UNL     1      44.143   9.750  11.305  0.00  0.00    +0.000 N 
ATOM     14  O   UNL     1      44.144  10.694  12.106  0.00  0.00    +0.000 OA
ATOM     15  O   UNL     1      43.635   9.788  10.175  0.00  0.00    +0.000 OA
ENDBRANCH   5  13
BRANCH   1  16
ATOM     16  C   UNL     1      44.250   4.758  11.290  0.00  0.00    +0.000 C 
BRANCH  16  17
ATOM     17  O   UNL     1      43.920   4.793   9.897  0.00  0.00    +0.000 OA
BRANCH  17  21
ATOM     18  C   UNL     1      46.359   2.279   7.728  0.00  0.00    +0.000 A 
ATOM     19  C   UNL     1      45.567   1.755   8.751  0.00  0.00    +0.000 A 
ATOM     20  C   UNL     1      44.744   2.615   9.483  0.00  0.00    +0.000 A 
ATOM     21  C   UNL     1      44.743   3.965   9.159  0.00  0.00    +0.000 A 
ATOM     22  N   UNL     1      45.500   4.495   8.176  0.00  0.00    +0.000 NA
ATOM     23  C   UNL     1      46.301   3.645   7.491  0.00  0.00    +0.000 A 
BRANCH  18  25
ATOM     24  N   UNL     1      48.375   2.090   6.381  0.00  0.00    +0.000 N 
ATOM     25  C   UNL     1      47.273   1.468   6.901  0.00  0.00    +0.000 C 
ATOM     26  O   UNL     1      47.077   0.274   6.717  0.00  0.00    +0.000 OA
ATOM     27  H   UNL     1      49.044   1.489   5.915  0.00  0.00    +0.000 HD
ATOM     28  H   UNL     1      48.706   2.983   6.716  0.00  0.00    +0.000 HD
ENDBRANCH  18  25
ENDBRANCH  17  21
ENDBRANCH  16  17
ENDBRANCH   1  16
TORSDOF 6
ENDMDL
MODEL 5
REMARK VINA RESULT:    -7.382      2.650      7.224
REMARK INTER + INTRA:         -10.922
REMARK INTER:                 -10.159
REMARK INTRA:                  -0.763
REMARK UNBOUND:                -0.951
REMARK  Name = 
REMARK  6 active torsions:
REMARK  status: ('A' for Active; 'I' for Inactive)
REMARK    1  A    between atoms: C_2  and  C_4
REMARK    2  A    between atoms: C_7  and  O_8
REMARK    3  A    between atoms: O_8  and  C_9
REMARK    4  A    between atoms: C_9  and  C_10
REMARK    5  A    between atoms: C_12  and  C_13
REMARK    6  A    between atoms: C_20  and  N_21
REMARK                            x       y       z     vdW  Elec       q    Type
REMARK                         _______ _______ _______ _____ _____    ______ ____
ROOT
ATOM      1  C   UNL     1      45.035   5.432  10.488  0.00  0.00    +0.000 A 
ATOM      2  C   UNL     1      45.630   4.863   9.349  0.00  0.00    +0.000 A 
ATOM      3  C   UNL     1      45.495   3.495   9.031  0.00  0.00    +0.000 A 
ATOM      4  C   UNL     1      44.719   2.702   9.896  0.00  0.00    +0.000 A 
ATOM      5  C   UNL     1      44.113   3.260  11.031  0.00  0.00    +0.000 A 
ATOM      6  C   UNL     1      44.269   4.617  11.331  0.00  0.00    +0.000 A 
ENDROOT
BRANCH   3   7
ATOM      7  C   UNL     1      46.175   2.913   7.854  0.00  0.00    +0.000 A 
ATOM      8  C   UNL     1      46.417   3.647   6.684  0.00  0.00    +0.000 A 
ATOM      9  C   UNL     1      47.046   3.054   5.588  0.00  0.00    +0.000 A 
ATOM     10  C   UNL     1      47.436   1.731   5.689  0.00  0.00    +0.000 A 
ATOM     11  N   UNL     1      47.234   0.980   6.787  0.00  0.00    +0.000 NA
ATOM     12  C   UNL     1      46.608   1.582   7.828  0.00  0.00    +0.000 A 
ENDBRANCH   3   7
BRANCH   5  13
ATOM     13  N   UNL     1      43.335   2.401  11.934  0.00  0.00    +0.000 N 
ATOM     14  O   UNL     1      43.347   2.674  13.142  0.00  0.00    +0.000 OA
ATOM     15  O   UNL     1      42.713   1.453  11.435  0.00  0.00    +0.000 OA
ENDBRANCH   5  13
BRANCH   1  16
ATOM     16  C   UNL     1      45.312   6.866  10.892  0.00  0.00    +0.000 C 
BRANCH  16  17
ATOM     17  O   UNL     1      45.060   7.086  12.284  0.00  0.00    +0.000 OA
BRANCH  17  21
ATOM     18  C   UNL     1      48.564   7.337  14.439  0.00  0.00    +0.000 A 
ATOM     19  C   UNL     1      47.935   8.507  14.009  0.00  0.00    +0.000 A 
ATOM     20  C   UNL     1      46.748   8.413  13.277  0.00  0.00    +0.000 A 
ATOM     21  C   UNL     1      46.235   7.151  13.009  0.00  0.00    +0.000 A 
ATOM     22  N   UNL     1      46.824   6.006  13.412  0.00  0.00    +0.000 NA
ATOM     23  C   UNL     1      47.981   6.121  14.106  0.00  0.00    +0.000 A 
BRANCH  18  25
ATOM     24  N   UNL     1      50.603   8.440  15.172  0.00  0.00    +0.000 N 
ATOM     25  C   UNL     1      49.824   7.316  15.206  0.00  0.00    +0.000 C 
ATOM     26  O   UNL     1      50.145   6.346  15.880  0.00  0.00    +0.000 OA
ATOM     27  H   UNL     1      51.401   8.444  15.795  0.00  0.00    +0.000 HD
ATOM     28  H   UNL     1      50.258   9.333  14.853  0.00  0.00    +0.000 HD
ENDBRANCH  18  25
ENDBRANCH  17  21
ENDBRANCH  16  17
ENDBRANCH   1  16
TORSDOF 6
ENDMDL
MODEL 6
REMARK VINA RESULT:    -6.852      3.277      6.936
REMARK INTER + INTRA:         -10.207
REMARK INTER:                  -9.423
REMARK INTRA:                  -0.784
REMARK UNBOUND:                -0.951
REMARK  Name = 
REMARK  6 active torsions:
REMARK  status: ('A' for Active; 'I' for Inactive)
REMARK    1  A    between atoms: C_2  and  C_4
REMARK    2  A    between atoms: C_7  and  O_8
REMARK    3  A    between atoms: O_8  and  C_9
REMARK    4  A    between atoms: C_9  and  C_10
REMARK    5  A    between atoms: C_12  and  C_13
REMARK    6  A    between atoms: C_20  and  N_21
REMARK                            x       y       z     vdW  Elec       q    Type
REMARK                         _______ _______ _______ _____ _____    ______ ____
ROOT
ATOM      1  C   UNL     1      46.417   4.288  13.457  0.00  0.00    +0.000 A 
ATOM      2  C   UNL     1      46.854   5.612  13.290  0.00  0.00    +0.000 A 
ATOM      3  C   UNL     1      46.278   6.484  12.342  0.00  0.00    +0.000 A 
ATOM      4  C   UNL     1      45.219   5.984  11.562  0.00  0.00    +0.000 A 
ATOM      5  C   UNL     1      44.767   4.666  11.726  0.00  0.00    +0.000 A 
ATOM      6  C   UNL     1      45.363   3.817  12.665  0.00  0.00    +0.000 A 
ENDROOT
BRANCH   3   7
ATOM      7  C   UNL     1      46.793   7.857  12.153  0.00  0.00    +0.000 A 
ATOM      8  C   UNL     1      48.151   8.130  11.935  0.00  0.00    +0.000 A 
ATOM      9  C   UNL     1      48.598   9.443  11.779  0.00  0.00    +0.000 A 
ATOM     10  C   UNL     1      47.669  10.465  11.831  0.00  0.00    +0.000 A 
ATOM     11  N   UNL     1      46.354  10.263  12.033  0.00  0.00    +0.000 NA
ATOM     12  C   UNL     1      45.954   8.977  12.194  0.00  0.00    +0.000 A 
ENDBRANCH   3   7
BRANCH   5  13
ATOM     13  N   UNL     1      43.682   4.160  10.874  0.00  0.00    +0.000 N 
ATOM     14  O   UNL     1      43.063   3.160  11.262  0.00  0.00    +0.000 OA
ATOM     15  O   UNL     1      43.450   4.764   9.817  0.00  0.00    +0.000 OA
ENDBRANCH   5  13
BRANCH   1  16
ATOM     16  C   UNL     1      47.145   3.324  14.373  0.00  0.00    +0.000 C 
BRANCH  16  17
ATOM     17  O   UNL     1      47.031   3.707  15.748  0.00  0.00    +0.000 OA
BRANCH  17  21
ATOM     18  C   UNL     1      50.677   3.539  17.661  0.00  0.00    +0.000 A 
ATOM     19  C   UNL     1      50.010   2.354  17.346  0.00  0.00    +0.000 A 
ATOM     20  C   UNL     1      48.773   2.420  16.699  0.00  0.00    +0.000 A 
ATOM     21  C   UNL     1      48.255   3.670  16.389  0.00  0.00    +0.000 A 
ATOM     22  N   UNL     1      48.879   4.829  16.683  0.00  0.00    +0.000 NA
ATOM     23  C   UNL     1      50.068   4.741  17.324  0.00  0.00    +0.000 A 
BRANCH  18  25
ATOM     24  N   UNL     1      52.577   2.400  18.663  0.00  0.00    +0.000 N 
ATOM     25  C   UNL     1      51.979   3.590  18.353  0.00  0.00    +0.000 C 
ATOM     26  O   UNL     1      52.525   4.655  18.606  0.00  0.00    +0.000 OA
ATOM     27  H   UNL     1      53.518   2.460  19.031  0.00  0.00    +0.000 HD
ATOM     28  H   UNL     1      52.296   1.524  18.247  0.00  0.00    +0.000 HD
ENDBRANCH  18  25
ENDBRANCH  17  21
ENDBRANCH  16  17
ENDBRANCH   1  16
TORSDOF 6
ENDMDL
MODEL 7
REMARK VINA RESULT:    -6.799      4.155      7.835
REMARK INTER + INTRA:         -10.135
REMARK INTER:                  -9.260
REMARK INTRA:                  -0.875
REMARK UNBOUND:                -0.951
REMARK  Name = 
REMARK  6 active torsions:
REMARK  status: ('A' for Active; 'I' for Inactive)
REMARK    1  A    between atoms: C_2  and  C_4
REMARK    2  A    between atoms: C_7  and  O_8
REMARK    3  A    between atoms: O_8  and  C_9
REMARK    4  A    between atoms: C_9  and  C_10
REMARK    5  A    between atoms: C_12  and  C_13
REMARK    6  A    between atoms: C_20  and  N_21
REMARK                            x       y       z     vdW  Elec       q    Type
REMARK                         _______ _______ _______ _____ _____    ______ ____
ROOT
ATOM      1  C   UNL     1      48.260   6.333  14.630  0.00  0.00    +0.000 A 
ATOM      2  C   UNL     1      47.181   5.605  14.100  0.00  0.00    +0.000 A 
ATOM      3  C   UNL     1      46.754   5.752  12.763  0.00  0.00    +0.000 A 
ATOM      4  C   UNL     1      47.465   6.655  11.953  0.00  0.00    +0.000 A 
ATOM      5  C   UNL     1      48.550   7.381  12.466  0.00  0.00    +0.000 A 
ATOM      6  C   UNL     1      48.947   7.226  13.798  0.00  0.00    +0.000 A 
ENDROOT
BRANCH   3   7
ATOM      7  C   UNL     1      45.583   5.010  12.249  0.00  0.00    +0.000 A 
ATOM      8  C   UNL     1      44.837   5.450  11.145  0.00  0.00    +0.000 A 
ATOM      9  C   UNL     1      43.727   4.730  10.702  0.00  0.00    +0.000 A 
ATOM     10  C   UNL     1      43.388   3.567  11.369  0.00  0.00    +0.000 A 
ATOM     11  N   UNL     1      44.069   3.095  12.430  0.00  0.00    +0.000 NA
ATOM     12  C   UNL     1      45.134   3.825  12.842  0.00  0.00    +0.000 A 
ENDBRANCH   3   7
BRANCH   5  13
ATOM     13  N   UNL     1      49.252   8.342  11.605  0.00  0.00    +0.000 N 
ATOM     14  O   UNL     1      48.712   9.438  11.403  0.00  0.00    +0.000 OA
ATOM     15  O   UNL     1      50.345   8.000  11.130  0.00  0.00    +0.000 OA
ENDBRANCH   5  13
BRANCH   1  16
ATOM     16  C   UNL     1      48.608   6.272  16.103  0.00  0.00    +0.000 C 
BRANCH  16  17
ATOM     17  O   UNL     1      48.094   5.089  16.724  0.00  0.00    +0.000 OA
BRANCH  17  21
ATOM     18  C   UNL     1      51.106   2.364  17.423  0.00  0.00    +0.000 A 
ATOM     19  C   UNL     1      51.300   3.706  17.756  0.00  0.00    +0.000 A 
ATOM     20  C   UNL     1      50.275   4.624  17.514  0.00  0.00    +0.000 A 
ATOM     21  C   UNL     1      49.092   4.161  16.952  0.00  0.00    +0.000 A 
ATOM     22  N   UNL     1      48.881   2.871  16.620  0.00  0.00    +0.000 NA
ATOM     23  C   UNL     1      49.894   2.002  16.849  0.00  0.00    +0.000 A 
BRANCH  18  25
ATOM     24  N   UNL     1      51.704   0.121  18.144  0.00  0.00    +0.000 N 
ATOM     25  C   UNL     1      52.122   1.313  17.621  0.00  0.00    +0.000 C 
ATOM     26  O   UNL     1      53.289   1.484  17.294  0.00  0.00    +0.000 OA
ATOM     27  H   UNL     1      52.394  -0.620  18.163  0.00  0.00    +0.000 HD
ATOM     28  H   UNL     1      50.731  -0.148  18.180  0.00  0.00    +0.000 HD
ENDBRANCH  18  25
ENDBRANCH  17  21
ENDBRANCH  16  17
ENDBRANCH   1  16
TORSDOF 6
ENDMDL
MODEL 8
REMARK VINA RESULT:    -6.759      3.199      8.011
REMARK INTER + INTRA:         -10.080
REMARK INTER:                  -9.276
REMARK INTRA:                  -0.804
REMARK UNBOUND:                -0.951
REMARK  Name = 
REMARK  6 active torsions:
REMARK  status: ('A' for Active; 'I' for Inactive)
REMARK    1  A    between atoms: C_2  and  C_4
REMARK    2  A    between atoms: C_7  and  O_8
REMARK    3  A    between atoms: O_8  and  C_9
REMARK    4  A    between atoms: C_9  and  C_10
REMARK    5  A    between atoms: C_12  and  C_13
REMARK    6  A    between atoms: C_20  and  N_21
REMARK                            x       y       z     vdW  Elec       q    Type
REMARK                         _______ _______ _______ _____ _____    ______ ____
ROOT
ATOM      1  C   UNL     1      46.789   7.368  12.873  0.00  0.00    +0.000 A 
ATOM      2  C   UNL     1      46.475   6.223  12.120  0.00  0.00    +0.000 A 
ATOM      3  C   UNL     1      45.425   6.203  11.178  0.00  0.00    +0.000 A 
ATOM      4  C   UNL     1      44.694   7.391  10.998  0.00  0.00    +0.000 A 
ATOM      5  C   UNL     1      45.003   8.543  11.737  0.00  0.00    +0.000 A 
ATOM      6  C   UNL     1      46.042   8.535  12.673  0.00  0.00    +0.000 A 
ENDROOT
BRANCH   3   7
ATOM      7  C   UNL     1      45.085   4.969  10.438  0.00  0.00    +0.000 A 
ATOM      8  C   UNL     1      45.517   4.734   9.124  0.00  0.00    +0.000 A 
ATOM      9  C   UNL     1      45.158   3.564   8.454  0.00  0.00    +0.000 A 
ATOM     10  C   UNL     1      44.379   2.636   9.121  0.00  0.00    +0.000 A 
ATOM     11  N   UNL     1      43.940   2.805  10.382  0.00  0.00    +0.000 NA
ATOM     12  C   UNL     1      44.295   3.959  10.999  0.00  0.00    +0.000 A 
ENDBRANCH   3   7
BRANCH   5  13
ATOM     13  N   UNL     1      44.201   9.760  11.551  0.00  0.00    +0.000 N 
ATOM     14  O   UNL     1      44.578  10.792  12.122  0.00  0.00    +0.000 OA
ATOM     15  O   UNL     1      43.193   9.683  10.834  0.00  0.00    +0.000 OA
ENDBRANCH   5  13
BRANCH   1  16
ATOM     16  C   UNL     1      47.820   7.326  13.983  0.00  0.00    +0.000 C 
BRANCH  16  17
ATOM     17  O   UNL     1      48.443   6.041  14.084  0.00  0.00    +0.000 OA
BRANCH  17  21
ATOM     18  C   UNL     1      48.554   4.713  17.983  0.00  0.00    +0.000 A 
ATOM     19  C   UNL     1      47.521   4.293  17.142  0.00  0.00    +0.000 A 
ATOM     20  C   UNL     1      47.490   4.750  15.822  0.00  0.00    +0.000 A 
ATOM     21  C   UNL     1      48.497   5.605  15.394  0.00  0.00    +0.000 A 
ATOM     22  N   UNL     1      49.504   6.025  16.187  0.00  0.00    +0.000 NA
ATOM     23  C   UNL     1      49.505   5.582  17.467  0.00  0.00    +0.000 A 
BRANCH  18  25
ATOM     24  N   UNL     1      48.298   3.033  19.723  0.00  0.00    +0.000 N 
ATOM     25  C   UNL     1      48.679   4.305  19.395  0.00  0.00    +0.000 C 
ATOM     26  O   UNL     1      49.144   5.061  20.238  0.00  0.00    +0.000 OA
ATOM     27  H   UNL     1      48.501   2.741  20.671  0.00  0.00    +0.000 HD
ATOM     28  H   UNL     1      48.162   2.310  19.032  0.00  0.00    +0.000 HD
ENDBRANCH  18  25
ENDBRANCH  17  21
ENDBRANCH  16  17
ENDBRANCH   1  16
TORSDOF 6
ENDMDL
