MODEL 1
REMARK VINA RESULT:    -9.183      0.000      0.000
REMARK INTER + INTRA:         -12.037
REMARK INTER:                 -11.330
REMARK INTRA:                  -0.707
REMARK UNBOUND:                -0.707
REMARK  Name = 
REMARK  4 active torsions:
REMARK  status: ('A' for Active; 'I' for Inactive)
REMARK    1  A    between atoms: C_2  and  C_4
REMARK    2  A    between atoms: N_8  and  C_9
REMARK    3  A    between atoms: C_9  and  C_10
REMARK    4  A    between atoms: C_14  and  C_15
REMARK                            x       y       z     vdW  Elec       q    Type
REMARK                         _______ _______ _______ _____ _____    ______ ____
ROOT
ATOM      1  C   UNL     1      43.569   4.472  11.141  0.00  0.00    +0.000 C 
ENDROOT
BRANCH   1   6
ATOM      2  C   UNL     1      46.384   2.312   7.702  0.00  0.00    +0.000 A 
ATOM      3  C   UNL     1      45.592   1.850   8.723  0.00  0.00    +0.000 A 
ATOM      4  N   UNL     1      44.742   2.633   9.418  0.00  0.00    +0.000 NA
ATOM      5  C   UNL     1      44.695   3.935   9.095  0.00  0.00    +0.000 A 
ATOM      6  N   UNL     1      43.804   4.769   9.738  0.00  0.00    +0.000 N 
ATOM      7  N   UNL     1      45.444   4.485   8.129  0.00  0.00    +0.000 NA
ATOM      8  C   UNL     1      46.281   3.662   7.453  0.00  0.00    +0.000 A 
ATOM      9  H   UNL     1      44.074   5.727   9.548  0.00  0.00    +0.000 HD
BRANCH   2  11
ATOM     10  N   UNL     1      48.439   2.052   6.438  0.00  0.00    +0.000 N 
ATOM     11  C   UNL     1      47.312   1.464   6.945  0.00  0.00    +0.000 C 
ATOM     12  O   UNL     1      47.096   0.269   6.797  0.00  0.00    +0.000 OA
ATOM     13  H   UNL     1      49.104   1.431   5.989  0.00  0.00    +0.000 HD
ATOM     14  H   UNL     1      48.781   2.955   6.730  0.00  0.00    +0.000 HD
ENDBRANCH   2  11
ENDBRANCH   1   6
BRANCH   1  15
ATOM     15  C   UNL     1      44.775   4.871  11.972  0.00  0.00    +0.000 A 
ATOM     16  C   UNL     1      45.351   3.937  12.831  0.00  0.00    +0.000 A 
ATOM     17  C   UNL     1      46.467   4.304  13.566  0.00  0.00    +0.000 A 
ATOM     18  C   UNL     1      46.991   5.582  13.410  0.00  0.00    +0.000 A 
ATOM     19  C   UNL     1      46.391   6.466  12.512  0.00  0.00    +0.000 A 
ATOM     20  N   UNL     1      45.281   6.122  11.809  0.00  0.00    +0.000 NA
BRANCH  19  21
ATOM     21  C   UNL     1      46.934   7.815  12.240  0.00  0.00    +0.000 A 
ATOM     22  C   UNL     1      48.299   8.004  11.948  0.00  0.00    +0.000 A 
ATOM     23  C   UNL     1      48.830   9.279  11.711  0.00  0.00    +0.000 A 
ATOM     24  C   UNL     1      48.002  10.396  11.766  0.00  0.00    +0.000 A 
ATOM     25  C   UNL     1      46.655  10.226  12.054  0.00  0.00    +0.000 A 
ATOM     26  F   UNL     1      45.853  11.298  12.115  0.00  0.00    +0.000 F 
ATOM     27  C   UNL     1      46.120   8.962  12.289  0.00  0.00    +0.000 A 
ENDBRANCH  19  21
ENDBRANCH   1  15
TORSDOF 4
ENDMDL
MODEL 2
REMARK VINA RESULT:    -8.536      2.905      4.210
REMARK INTER + INTRA:         -11.239
REMARK INTER:                 -10.728
REMARK INTRA:                  -0.511
REMARK UNBOUND:                -0.707
REMARK  Name = 
REMARK  4 active torsions:
REMARK  status: ('A' for Active; 'I' for Inactive)
REMARK    1  A    between atoms: C_2  and  C_4
REMARK    2  A    between atoms: N_8  and  C_9
REMARK    3  A    between atoms: C_9  and  C_10
REMARK    4  A    between atoms: C_14  and  C_15
REMARK                            x       y       z     vdW  Elec       q    Type
REMARK                         _______ _______ _______ _____ _____    ______ ____
ROOT
ATOM      1  C   UNL     1      44.554   4.694  11.566  0.00  0.00    +0.000 C 
ENDROOT
BRANCH   1   6
ATOM      2  C   UNL     1      46.524   2.521   7.589  0.00  0.00    +0.000 A 
ATOM      3  C   UNL     1      45.959   2.062   8.752  0.00  0.00    +0.000 A 
ATOM      4  N   UNL     1      45.293   2.853   9.619  0.00  0.00    +0.000 NA
ATOM      5  C   UNL     1      45.206   4.159   9.322  0.00  0.00    +0.000 A 
ATOM      6  N   UNL     1      44.491   5.003  10.146  0.00  0.00    +0.000 N 
ATOM      7  N   UNL     1      45.743   4.707   8.223  0.00  0.00    +0.000 NA
ATOM      8  C   UNL     1      46.399   3.875   7.378  0.00  0.00    +0.000 A 
ATOM      9  H   UNL     1      44.734   5.958   9.911  0.00  0.00    +0.000 HD
BRANCH   2  11
ATOM     10  N   UNL     1      48.202   2.253   5.857  0.00  0.00    +0.000 N 
ATOM     11  C   UNL     1      47.251   1.664   6.646  0.00  0.00    +0.000 C 
ATOM     12  O   UNL     1      47.032   0.462   6.587  0.00  0.00    +0.000 OA
ATOM     13  H   UNL     1      48.747   1.629   5.271  0.00  0.00    +0.000 HD
ATOM     14  H   UNL     1      48.586   3.169   6.030  0.00  0.00    +0.000 HD
ENDBRANCH   2  11
ENDBRANCH   1   6
BRANCH   1  15
ATOM     15  C   UNL     1      45.778   5.338  12.189  0.00  0.00    +0.000 A 
ATOM     16  C   UNL     1      46.424   6.372  11.513  0.00  0.00    +0.000 A 
ATOM     17  C   UNL     1      47.527   6.970  12.102  0.00  0.00    +0.000 A 
ATOM     18  C   UNL     1      47.942   6.537  13.357  0.00  0.00    +0.000 A 
ATOM     19  C   UNL     1      47.239   5.518  14.001  0.00  0.00    +0.000 A 
ATOM     20  N   UNL     1      46.174   4.910  13.417  0.00  0.00    +0.000 NA
BRANCH  19  21
ATOM     21  C   UNL     1      47.577   5.056  15.364  0.00  0.00    +0.000 A 
ATOM     22  C   UNL     1      48.516   5.748  16.155  0.00  0.00    +0.000 A 
ATOM     23  C   UNL     1      48.863   5.307  17.438  0.00  0.00    +0.000 A 
ATOM     24  C   UNL     1      48.276   4.157  17.958  0.00  0.00    +0.000 A 
ATOM     25  C   UNL     1      47.351   3.464  17.192  0.00  0.00    +0.000 A 
ATOM     26  F   UNL     1      46.786   2.352  17.683  0.00  0.00    +0.000 F 
ATOM     27  C   UNL     1      47.000   3.897  15.916  0.00  0.00    +0.000 A 
ENDBRANCH  19  21
ENDBRANCH   1  15
TORSDOF 4
ENDMDL
MODEL 3
REMARK VINA RESULT:    -7.996      4.908      8.074
REMARK INTER + INTRA:         -10.573
REMARK INTER:                 -10.055
REMARK INTRA:                  -0.518
REMARK UNBOUND:                -0.707
REMARK  Name = 
REMARK  4 active torsions:
REMARK  status: ('A' for Active; 'I' for Inactive)
REMARK    1  A    between atoms: C_2  and  C_4
REMARK    2  A    between atoms: N_8  and  C_9
REMARK    3  A    between atoms: C_9  and  C_10
REMARK    4  A    between atoms: C_14  and  C_15
REMARK                            x       y       z     vdW  Elec       q    Type
REMARK                         _______ _______ _______ _____ _____    ______ ____
ROOT
ATOM      1  C   UNL     1      45.199   4.322  13.883  0.00  0.00    +0.000 C 
ENDROOT
BRANCH   1   6
ATOM      2  C   UNL     1      48.515   4.383  17.546  0.00  0.00    +0.000 A 
ATOM      3  C   UNL     1      47.501   3.533  17.184  0.00  0.00    +0.000 A 
ATOM      4  N   UNL     1      46.846   3.614  16.007  0.00  0.00    +0.000 NA
ATOM      5  C   UNL     1      47.204   4.597  15.167  0.00  0.00    +0.000 A 
ATOM      6  N   UNL     1      46.604   4.693  13.928  0.00  0.00    +0.000 N 
ATOM      7  N   UNL     1      48.167   5.490  15.439  0.00  0.00    +0.000 NA
ATOM      8  C   UNL     1      48.801   5.369  16.629  0.00  0.00    +0.000 A 
ATOM      9  H   UNL     1      46.812   5.607  13.545  0.00  0.00    +0.000 HD
BRANCH   2  11
ATOM     10  N   UNL     1      48.604   3.652  19.858  0.00  0.00    +0.000 N 
ATOM     11  C   UNL     1      49.227   4.300  18.826  0.00  0.00    +0.000 C 
ATOM     12  O   UNL     1      50.348   4.772  18.957  0.00  0.00    +0.000 OA
ATOM     13  H   UNL     1      49.147   3.536  20.707  0.00  0.00    +0.000 HD
ATOM     14  H   UNL     1      47.805   3.046  19.741  0.00  0.00    +0.000 HD
ENDBRANCH   2  11
ENDBRANCH   1   6
BRANCH   1  15
ATOM     15  C   UNL     1      44.641   4.551  12.490  0.00  0.00    +0.000 A 
ATOM     16  C   UNL     1      43.598   5.458  12.315  0.00  0.00    +0.000 A 
ATOM     17  C   UNL     1      43.111   5.678  11.036  0.00  0.00    +0.000 A 
ATOM     18  C   UNL     1      43.692   5.007   9.965  0.00  0.00    +0.000 A 
ATOM     19  C   UNL     1      44.754   4.132  10.197  0.00  0.00    +0.000 A 
ATOM     20  N   UNL     1      45.217   3.891  11.451  0.00  0.00    +0.000 NA
BRANCH  19  21
ATOM     21  C   UNL     1      45.467   3.438   9.103  0.00  0.00    +0.000 A 
ATOM     22  C   UNL     1      46.045   4.158   8.039  0.00  0.00    +0.000 A 
ATOM     23  C   UNL     1      46.703   3.511   6.985  0.00  0.00    +0.000 A 
ATOM     24  C   UNL     1      46.793   2.123   6.972  0.00  0.00    +0.000 A 
ATOM     25  C   UNL     1      46.228   1.399   8.012  0.00  0.00    +0.000 A 
ATOM     26  F   UNL     1      46.305   0.061   8.004  0.00  0.00    +0.000 F 
ATOM     27  C   UNL     1      45.574   2.035   9.064  0.00  0.00    +0.000 A 
ENDBRANCH  19  21
ENDBRANCH   1  15
TORSDOF 4
ENDMDL
MODEL 4
REMARK VINA RESULT:    -7.955      3.779      7.070
REMARK INTER + INTRA:         -10.522
REMARK INTER:                  -9.769
REMARK INTRA:                  -0.753
REMARK UNBOUND:                -0.707
REMARK  Name = 
REMARK  4 active torsions:
REMARK  status: ('A' for Active; 'I' for Inactive)
REMARK    1  A    between atoms: C_2  and  C_4
REMARK    2  A    between atoms: N_8  and  C_9
REMARK    3  A    between atoms: C_9  and  C_10
REMARK    4  A    between atoms: C_14  and  C_15
REMARK                            x       y       z     vdW  Elec       q    Type
REMARK                         _______ _______ _______ _____ _____    ______ ____
ROOT
ATOM      1  C   UNL     1      44.264   6.558  11.739  0.00  0.00    +0.000 C 
ENDROOT
BRANCH   1   6
ATOM      2  C   UNL     1      49.000   7.576  12.715  0.00  0.00    +0.000 A 
ATOM      3  C   UNL     1      48.100   8.007  11.773  0.00  0.00    +0.000 A 
ATOM      4  N   UNL     1      46.779   7.737  11.827  0.00  0.00    +0.000 NA
ATOM      5  C   UNL     1      46.343   6.989  12.852  0.00  0.00    +0.000 A 
ATOM      6  N   UNL     1      44.995   6.728  12.985  0.00  0.00    +0.000 N 
ATOM      7  N   UNL     1      47.146   6.502  13.809  0.00  0.00    +0.000 NA
ATOM      8  C   UNL     1      48.464   6.801  13.718  0.00  0.00    +0.000 A 
ATOM      9  H   UNL     1      44.883   5.970  13.647  0.00  0.00    +0.000 HD
BRANCH   2  11
ATOM     10  N   UNL     1      51.144   7.809  13.829  0.00  0.00    +0.000 N 
ATOM     11  C   UNL     1      50.438   7.865  12.658  0.00  0.00    +0.000 C 
ATOM     12  O   UNL     1      50.988   8.122  11.596  0.00  0.00    +0.000 OA
ATOM     13  H   UNL     1      52.148   7.932  13.753  0.00  0.00    +0.000 HD
ATOM     14  H   UNL     1      50.799   7.374  14.672  0.00  0.00    +0.000 HD
ENDBRANCH   2  11
ENDBRANCH   1   6
BRANCH   1  15
ATOM     15  C   UNL     1      44.194   5.088  11.369  0.00  0.00    +0.000 A 
ATOM     16  C   UNL     1      43.349   4.243  12.088  0.00  0.00    +0.000 A 
ATOM     17  C   UNL     1      43.274   2.907  11.726  0.00  0.00    +0.000 A 
ATOM     18  C   UNL     1      44.023   2.455  10.646  0.00  0.00    +0.000 A 
ATOM     19  C   UNL     1      44.828   3.352   9.943  0.00  0.00    +0.000 A 
ATOM     20  N   UNL     1      44.928   4.657  10.310  0.00  0.00    +0.000 NA
BRANCH  19  21
ATOM     21  C   UNL     1      45.597   2.960   8.742  0.00  0.00    +0.000 A 
ATOM     22  C   UNL     1      45.992   3.918   7.787  0.00  0.00    +0.000 A 
ATOM     23  C   UNL     1      46.700   3.556   6.633  0.00  0.00    +0.000 A 
ATOM     24  C   UNL     1      47.026   2.222   6.410  0.00  0.00    +0.000 A 
ATOM     25  C   UNL     1      46.644   1.267   7.341  0.00  0.00    +0.000 A 
ATOM     26  F   UNL     1      46.949  -0.020   7.129  0.00  0.00    +0.000 F 
ATOM     27  C   UNL     1      45.940   1.619   8.490  0.00  0.00    +0.000 A 
ENDBRANCH  19  21
ENDBRANCH   1  15
TORSDOF 4
ENDMDL
MODEL 5
REMARK VINA RESULT:    -7.778      3.801      7.324
REMARK INTER + INTRA:         -10.304
REMARK INTER:                 -10.074
REMARK INTRA:                  -0.230
REMARK UNBOUND:                -0.707
REMARK  Name = 
REMARK  4 active torsions:
REMARK  status: ('A' for Active; 'I' for Inactive)
REMARK    1  A    between atoms: C_2  and  C_4
REMARK    2  A    between atoms: N_8  and  C_9
REMARK    3  A    between atoms: C_9  and  C_10
REMARK    4  A    between atoms: C_14  and  C_15
REMARK                            x       y       z     vdW  Elec       q    Type
REMARK                         _______ _______ _______ _____ _____    ______ ____
ROOT
ATOM      1  C   UNL     1      44.869   6.372  11.391  0.00  0.00    +0.000 C 
ENDROOT
BRANCH   1   6
ATOM      2  C   UNL     1      47.829   5.562  15.264  0.00  0.00    +0.000 A 
ATOM      3  C   UNL     1      46.773   4.887  14.706  0.00  0.00    +0.000 A 
ATOM      4  N   UNL     1      46.239   5.201  13.508  0.00  0.00    +0.000 NA
ATOM      5  C   UNL     1      46.767   6.245  12.850  0.00  0.00    +0.000 A 
ATOM      6  N   UNL     1      46.294   6.576  11.597  0.00  0.00    +0.000 N 
ATOM      7  N   UNL     1      47.784   6.980  13.321  0.00  0.00    +0.000 NA
ATOM      8  C   UNL     1      48.293   6.627  14.526  0.00  0.00    +0.000 A 
ATOM      9  H   UNL     1      46.625   7.505  11.369  0.00  0.00    +0.000 HD
BRANCH   2  11
ATOM     10  N   UNL     1      47.681   5.527  17.686  0.00  0.00    +0.000 N 
ATOM     11  C   UNL     1      48.411   5.226  16.569  0.00  0.00    +0.000 C 
ATOM     12  O   UNL     1      49.499   4.672  16.650  0.00  0.00    +0.000 OA
ATOM     13  H   UNL     1      48.065   5.212  18.571  0.00  0.00    +0.000 HD
ATOM     14  H   UNL     1      46.698   5.754  17.670  0.00  0.00    +0.000 HD
ENDBRANCH   2  11
ENDBRANCH   1   6
BRANCH   1  15
ATOM     15  C   UNL     1      44.597   4.935  10.989  0.00  0.00    +0.000 A 
ATOM     16  C   UNL     1      43.619   4.210  11.668  0.00  0.00    +0.000 A 
ATOM     17  C   UNL     1      43.361   2.906  11.277  0.00  0.00    +0.000 A 
ATOM     18  C   UNL     1      44.067   2.368  10.206  0.00  0.00    +0.000 A 
ATOM     19  C   UNL     1      45.013   3.150   9.543  0.00  0.00    +0.000 A 
ATOM     20  N   UNL     1      45.290   4.420   9.940  0.00  0.00    +0.000 NA
BRANCH  19  21
ATOM     21  C   UNL     1      45.750   2.671   8.354  0.00  0.00    +0.000 A 
ATOM     22  C   UNL     1      46.276   1.365   8.302  0.00  0.00    +0.000 A 
ATOM     23  C   UNL     1      46.996   0.907   7.191  0.00  0.00    +0.000 A 
ATOM     24  C   UNL     1      47.209   1.752   6.106  0.00  0.00    +0.000 A 
ATOM     25  C   UNL     1      46.698   3.041   6.142  0.00  0.00    +0.000 A 
ATOM     26  F   UNL     1      46.904   3.863   5.104  0.00  0.00    +0.000 F 
ATOM     27  C   UNL     1      45.981   3.503   7.243  0.00  0.00    +0.000 A 
ENDBRANCH  19  21
ENDBRANCH   1  15
TORSDOF 4
ENDMDL
MODEL 6
REMARK VINA RESULT:    -7.487      2.734      3.781
REMARK INTER + INTRA:          -9.945
REMARK INTER:                  -9.498
REMARK INTRA:                  -0.447
REMARK UNBOUND:                -0.707
REMARK  Name = 
REMARK  4 active torsions:
REMARK  status: ('A' for Active; 'I' for Inactive)
REMARK    1  A    between atoms: C_2  and  C_4
REMARK    2  A    between atoms: N_8  and  C_9
REMARK    3  A    between atoms: C_9  and  C_10
REMARK    4  A    between atoms: C_14  and  C_15
REMARK                            x       y       z     vdW  Elec       q    Type
REMARK                         _______ _______ _______ _____ _____    ______ ____
ROOT
ATOM      1  C   UNL     1      43.672   3.890  10.856  0.00  0.00    +0.000 C 
ENDROOT
BRANCH   1   6
ATOM      2  C   UNL     1      46.736   2.492   7.240  0.00  0.00    +0.000 A 
ATOM      3  C   UNL     1      46.384   3.700   7.786  0.00  0.00    +0.000 A 
ATOM      4  N   UNL     1      45.668   3.824   8.922  0.00  0.00    +0.000 NA
ATOM      5  C   UNL     1      45.268   2.694   9.526  0.00  0.00    +0.000 A 
ATOM      6  N   UNL     1      44.579   2.762  10.719  0.00  0.00    +0.000 N 
ATOM      7  N   UNL     1      45.542   1.467   9.060  0.00  0.00    +0.000 NA
ATOM      8  C   UNL     1      46.268   1.390   7.919  0.00  0.00    +0.000 A 
ATOM      9  H   UNL     1      44.157   1.857  10.894  0.00  0.00    +0.000 HD
BRANCH   2  11
ATOM     10  N   UNL     1      47.297   3.274   5.012  0.00  0.00    +0.000 N 
ATOM     11  C   UNL     1      47.512   2.354   6.002  0.00  0.00    +0.000 C 
ATOM     12  O   UNL     1      48.341   1.463   5.873  0.00  0.00    +0.000 OA
ATOM     13  H   UNL     1      47.901   3.207   4.200  0.00  0.00    +0.000 HD
ATOM     14  H   UNL     1      46.817   4.150   5.154  0.00  0.00    +0.000 HD
ENDBRANCH   2  11
ENDBRANCH   1   6
BRANCH   1  15
ATOM     15  C   UNL     1      44.399   5.078  11.458  0.00  0.00    +0.000 A 
ATOM     16  C   UNL     1      44.096   6.362  11.008  0.00  0.00    +0.000 A 
ATOM     17  C   UNL     1      44.748   7.442  11.582  0.00  0.00    +0.000 A 
ATOM     18  C   UNL     1      45.666   7.216  12.602  0.00  0.00    +0.000 A 
ATOM     19  C   UNL     1      45.907   5.911  13.033  0.00  0.00    +0.000 A 
ATOM     20  N   UNL     1      45.292   4.846  12.456  0.00  0.00    +0.000 NA
BRANCH  19  21
ATOM     21  C   UNL     1      46.814   5.599  14.158  0.00  0.00    +0.000 A 
ATOM     22  C   UNL     1      47.838   6.490  14.536  0.00  0.00    +0.000 A 
ATOM     23  C   UNL     1      48.718   6.196  15.585  0.00  0.00    +0.000 A 
ATOM     24  C   UNL     1      48.594   4.997  16.279  0.00  0.00    +0.000 A 
ATOM     25  C   UNL     1      47.591   4.108  15.919  0.00  0.00    +0.000 A 
ATOM     26  F   UNL     1      47.469   2.948  16.578  0.00  0.00    +0.000 F 
ATOM     27  C   UNL     1      46.712   4.394  14.878  0.00  0.00    +0.000 A 
ENDBRANCH  19  21
ENDBRANCH   1  15
TORSDOF 4
ENDMDL
MODEL 7
REMARK VINA RESULT:    -7.487      1.962      2.531
REMARK INTER + INTRA:          -9.945
REMARK INTER:                  -9.536
REMARK INTRA:                  -0.408
REMARK UNBOUND:                -0.707
REMARK  Name = 
REMARK  4 active torsions:
REMARK  status: ('A' for Active; 'I' for Inactive)
REMARK    1  A    between atoms: C_2  and  C_4
REMARK    2  A    between atoms: N_8  and  C_9
REMARK    3  A    between atoms: C_9  and  C_10
REMARK    4  A    between atoms: C_14  and  C_15
REMARK                            x       y       z     vdW  Elec       q    Type
REMARK                         _______ _______ _______ _____ _____    ______ ____
ROOT
ATOM      1  C   UNL     1      43.554   4.114  11.028  0.00  0.00    +0.000 C 
ENDROOT
BRANCH   1   6
ATOM      2  C   UNL     1      46.528   2.792   7.310  0.00  0.00    +0.000 A 
ATOM      3  C   UNL     1      46.246   3.979   7.938  0.00  0.00    +0.000 A 
ATOM      4  N   UNL     1      45.540   4.065   9.084  0.00  0.00    +0.000 NA
ATOM      5  C   UNL     1      45.077   2.922   9.613  0.00  0.00    +0.000 A 
ATOM      6  N   UNL     1      44.395   2.948  10.811  0.00  0.00    +0.000 N 
ATOM      7  N   UNL     1      45.281   1.716   9.063  0.00  0.00    +0.000 NA
ATOM      8  C   UNL     1      45.999   1.675   7.916  0.00  0.00    +0.000 A 
ATOM      9  H   UNL     1      43.923   2.059  10.926  0.00  0.00    +0.000 HD
BRANCH   2  11
ATOM     10  N   UNL     1      48.629   2.411   6.157  0.00  0.00    +0.000 N 
ATOM     11  C   UNL     1      47.294   2.694   6.062  0.00  0.00    +0.000 C 
ATOM     12  O   UNL     1      46.750   2.836   4.975  0.00  0.00    +0.000 OA
ATOM     13  H   UNL     1      49.121   2.269   5.281  0.00  0.00    +0.000 HD
ATOM     14  H   UNL     1      49.069   2.052   6.991  0.00  0.00    +0.000 HD
ENDBRANCH   2  11
ENDBRANCH   1   6
BRANCH   1  15
ATOM     15  C   UNL     1      44.341   5.207  11.726  0.00  0.00    +0.000 A 
ATOM     16  C   UNL     1      45.309   4.856  12.666  0.00  0.00    +0.000 A 
ATOM     17  C   UNL     1      46.039   5.861  13.281  0.00  0.00    +0.000 A 
ATOM     18  C   UNL     1      45.802   7.184  12.926  0.00  0.00    +0.000 A 
ATOM     19  C   UNL     1      44.841   7.475  11.956  0.00  0.00    +0.000 A 
ATOM     20  N   UNL     1      44.103   6.497  11.371  0.00  0.00    +0.000 NA
BRANCH  19  21
ATOM     21  C   UNL     1      44.584   8.850  11.477  0.00  0.00    +0.000 A 
ATOM     22  C   UNL     1      45.440   9.914  11.826  0.00  0.00    +0.000 A 
ATOM     23  C   UNL     1      45.195  11.225  11.399  0.00  0.00    +0.000 A 
ATOM     24  C   UNL     1      44.081  11.500  10.611  0.00  0.00    +0.000 A 
ATOM     25  C   UNL     1      43.229  10.464  10.259  0.00  0.00    +0.000 A 
ATOM     26  F   UNL     1      42.150  10.723   9.507  0.00  0.00    +0.000 F 
ATOM     27  C   UNL     1      43.466   9.158  10.680  0.00  0.00    +0.000 A 
ENDBRANCH  19  21
ENDBRANCH   1  15
TORSDOF 4
ENDMDL
MODEL 8
REMARK VINA RESULT:    -7.316      5.253      7.883
REMARK INTER + INTRA:          -9.734
REMARK INTER:                  -9.073
REMARK INTRA:                  -0.661
REMARK UNBOUND:                -0.707
REMARK  Name = 
REMARK  4 active torsions:
REMARK  status: ('A' for Active; 'I' for Inactive)
REMARK    1  A    between atoms: C_2  and  C_4
REMARK    2  A    between atoms: N_8  and  C_9
REMARK    3  A    between atoms: C_9  and  C_10
REMARK    4  A    between atoms: C_14  and  C_15
REMARK                            x       y       z     vdW  Elec       q    Type
REMARK                         _______ _______ _______ _____ _____    ______ ____
ROOT
ATOM      1  C   UNL     1      48.680   6.633  15.757  0.00  0.00    +0.000 C 
ENDROOT
BRANCH   1   6
ATOM      2  C   UNL     1      50.941   2.552  17.385  0.00  0.00    +0.000 A 
ATOM      3  C   UNL     1      51.204   3.896  17.476  0.00  0.00    +0.000 A 
ATOM      4  N   UNL     1      50.321   4.853  17.122  0.00  0.00    +0.000 NA
ATOM      5  C   UNL     1      49.136   4.451  16.638  0.00  0.00    +0.000 A 
ATOM      6  N   UNL     1      48.176   5.386  16.311  0.00  0.00    +0.000 N 
ATOM      7  N   UNL     1      48.793   3.163  16.490  0.00  0.00    +0.000 NA
ATOM      8  C   UNL     1      49.708   2.236  16.862  0.00  0.00    +0.000 A 
ATOM      9  H   UNL     1      47.468   4.931  15.749  0.00  0.00    +0.000 HD
BRANCH   2  11
ATOM     10  N   UNL     1      51.401   0.282  18.110  0.00  0.00    +0.000 N 
ATOM     11  C   UNL     1      51.900   1.509  17.766  0.00  0.00    +0.000 C 
ATOM     12  O   UNL     1      53.105   1.723  17.751  0.00  0.00    +0.000 OA
ATOM     13  H   UNL     1      52.084  -0.445  18.291  0.00  0.00    +0.000 HD
ATOM     14  H   UNL     1      50.458  -0.016  17.909  0.00  0.00    +0.000 HD
ENDBRANCH   2  11
ENDBRANCH   1   6
BRANCH   1  15
ATOM     15  C   UNL     1      48.270   6.765  14.302  0.00  0.00    +0.000 A 
ATOM     16  C   UNL     1      49.079   7.489  13.429  0.00  0.00    +0.000 A 
ATOM     17  C   UNL     1      48.709   7.583  12.097  0.00  0.00    +0.000 A 
ATOM     18  C   UNL     1      47.555   6.935  11.667  0.00  0.00    +0.000 A 
ATOM     19  C   UNL     1      46.799   6.199  12.580  0.00  0.00    +0.000 A 
ATOM     20  N   UNL     1      47.142   6.126  13.893  0.00  0.00    +0.000 NA
BRANCH  19  21
ATOM     21  C   UNL     1      45.602   5.427  12.184  0.00  0.00    +0.000 A 
ATOM     22  C   UNL     1      44.814   4.762  13.144  0.00  0.00    +0.000 A 
ATOM     23  C   UNL     1      43.691   4.008  12.779  0.00  0.00    +0.000 A 
ATOM     24  C   UNL     1      43.334   3.901  11.438  0.00  0.00    +0.000 A 
ATOM     25  C   UNL     1      44.100   4.550  10.480  0.00  0.00    +0.000 A 
ATOM     26  F   UNL     1      43.766   4.446   9.187  0.00  0.00    +0.000 F 
ATOM     27  C   UNL     1      45.217   5.301  10.836  0.00  0.00    +0.000 A 
ENDBRANCH  19  21
ENDBRANCH   1  15
TORSDOF 4
ENDMDL
MODEL 9
REMARK VINA RESULT:    -7.114      4.002      7.307
REMARK INTER + INTRA:          -9.485
REMARK INTER:                  -8.775
REMARK INTRA:                  -0.710
REMARK UNBOUND:                -0.707
REMARK  Name = 
REMARK  4 active torsions:
REMARK  status: ('A' for Active; 'I' for Inactive)
REMARK    1  A    between atoms: C_2  and  C_4
REMARK    2  A    between atoms: N_8  and  C_9
REMARK    3  A    between atoms: C_9  and  C_10
REMARK    4  A    between atoms: C_14  and  C_15
REMARK                            x       y       z     vdW  Elec       q    Type
REMARK                         _______ _______ _______ _____ _____    ______ ____
ROOT
ATOM      1  C   UNL     1      45.901   5.065  13.743  0.00  0.00    +0.000 C 
ENDROOT
BRANCH   1   6
ATOM      2  C   UNL     1      48.039   9.276  12.289  0.00  0.00    +0.000 A 
ATOM      3  C   UNL     1      47.108   8.953  13.243  0.00  0.00    +0.000 A 
ATOM      4  N   UNL     1      46.821   7.684  13.603  0.00  0.00    +0.000 NA
ATOM      5  C   UNL     1      47.476   6.699  12.970  0.00  0.00    +0.000 A 
ATOM      6  N   UNL     1      47.260   5.387  13.337  0.00  0.00    +0.000 N 
ATOM      7  N   UNL     1      48.387   6.912  12.011  0.00  0.00    +0.000 NA
ATOM      8  C   UNL     1      48.648   8.201  11.683  0.00  0.00    +0.000 A 
ATOM      9  H   UNL     1      47.637   4.789  12.612  0.00  0.00    +0.000 HD
BRANCH   2  11
ATOM     10  N   UNL     1      47.634  11.196  10.861  0.00  0.00    +0.000 N 
ATOM     11  C   UNL     1      48.352  10.654  11.893  0.00  0.00    +0.000 C 
ATOM     12  O   UNL     1      49.207  11.302  12.481  0.00  0.00    +0.000 OA
ATOM     13  H   UNL     1      47.810  12.174  10.658  0.00  0.00    +0.000 HD
ATOM     14  H   UNL     1      46.773  10.805  10.510  0.00  0.00    +0.000 HD
ENDBRANCH   2  11
ENDBRANCH   1   6
BRANCH   1  15
ATOM     15  C   UNL     1      45.021   4.870  12.522  0.00  0.00    +0.000 A 
ATOM     16  C   UNL     1      43.729   5.392  12.523  0.00  0.00    +0.000 A 
ATOM     17  C   UNL     1      42.942   5.229  11.393  0.00  0.00    +0.000 A 
ATOM     18  C   UNL     1      43.471   4.573  10.287  0.00  0.00    +0.000 A 
ATOM     19  C   UNL     1      44.783   4.098  10.332  0.00  0.00    +0.000 A 
ATOM     20  N   UNL     1      45.549   4.230  11.446  0.00  0.00    +0.000 NA
BRANCH  19  21
ATOM     21  C   UNL     1      45.436   3.455   9.172  0.00  0.00    +0.000 A 
ATOM     22  C   UNL     1      45.878   4.216   8.072  0.00  0.00    +0.000 A 
ATOM     23  C   UNL     1      46.478   3.616   6.957  0.00  0.00    +0.000 A 
ATOM     24  C   UNL     1      46.645   2.235   6.919  0.00  0.00    +0.000 A 
ATOM     25  C   UNL     1      46.214   1.472   7.994  0.00  0.00    +0.000 A 
ATOM     26  F   UNL     1      46.366   0.141   7.962  0.00  0.00    +0.000 F 
ATOM     27  C   UNL     1      45.618   2.061   9.106  0.00  0.00    +0.000 A 
ENDBRANCH  19  21
ENDBRANCH   1  15
TORSDOF 4
ENDMDL
