MODEL 1
REMARK VINA RESULT:    -9.076      0.000      0.000
REMARK INTER + INTRA:         -12.696
REMARK INTER:                 -11.995
REMARK INTRA:                  -0.701
REMARK UNBOUND:                -0.701
REMARK  Name = 
REMARK  6 active torsions:
REMARK  status: ('A' for Active; 'I' for Inactive)
REMARK    1  A    between atoms: C_2  and  C_3
REMARK    2  A    between atoms: C_6  and  N_7
REMARK    3  A    between atoms: N_7  and  C_8
REMARK    4  A    between atoms: C_8  and  C_9
REMARK    5  A    between atoms: C_13  and  C_14
REMARK    6  A    between atoms: C_18  and  O_19
REMARK                            x       y       z     vdW  Elec       q    Type
REMARK                         _______ _______ _______ _____ _____    ______ ____
ROOT
ATOM      1  C   UNL     1      45.581   5.205  12.029  0.00  0.00    +0.000 A 
ATOM      2  C   UNL     1      46.134   6.339  11.402  0.00  0.00    +0.000 A 
ATOM      3  C   UNL     1      47.100   7.103  12.046  0.00  0.00    +0.000 A 
ATOM      4  C   UNL     1      47.559   6.711  13.300  0.00  0.00    +0.000 A 
ATOM      5  C   UNL     1      47.123   5.514  13.896  0.00  0.00    +0.000 A 
ATOM      6  C   UNL     1      46.178   4.748  13.207  0.00  0.00    +0.000 A 
ENDROOT
BRANCH   5   7
ATOM      7  C   UNL     1      47.522   5.141  15.262  0.00  0.00    +0.000 A 
ATOM      8  C   UNL     1      48.568   5.778  15.937  0.00  0.00    +0.000 A 
ATOM      9  N   UNL     1      49.020   5.434  17.169  0.00  0.00    +0.000 NA
ATOM     10  C   UNL     1      48.387   4.405  17.771  0.00  0.00    +0.000 A 
ATOM     11  C   UNL     1      47.340   3.706  17.197  0.00  0.00    +0.000 A 
ATOM     12  C   UNL     1      46.915   4.072  15.929  0.00  0.00    +0.000 A 
BRANCH  11  13
ATOM     13  O   UNL     1      46.708   2.666  17.803  0.00  0.00    +0.000 OA
ATOM     14  H   UNL     1      46.387   2.956  18.672  0.00  0.00    +0.000 HD
ENDBRANCH  11  13
ENDBRANCH   5   7
BRANCH   1  15
ATOM     15  C   UNL     1      44.214   4.683  11.615  0.00  0.00    +0.000 C 
ATOM     16  C   UNL     1      43.384   3.706  12.429  0.00  0.00    +0.000 C 
ATOM     17  C   UNL     1      43.174   5.156  12.642  0.00  0.00    +0.000 C 
BRANCH  15  18
ATOM     18  N   UNL     1      43.992   4.631  10.173  0.00  0.00    +0.000 N 
ATOM     19  H   UNL     1      43.038   4.716   9.834  0.00  0.00    +0.000 HD
BRANCH  18  23
ATOM     20  C   UNL     1      46.633   2.656   7.535  0.00  0.00    +0.000 A 
ATOM     21  C   UNL     1      45.897   1.896   8.433  0.00  0.00    +0.000 A 
ATOM     22  C   UNL     1      45.014   2.525   9.316  0.00  0.00    +0.000 A 
ATOM     23  C   UNL     1      44.825   3.920   9.284  0.00  0.00    +0.000 A 
ATOM     24  C   UNL     1      45.592   4.662   8.381  0.00  0.00    +0.000 A 
ATOM     25  C   UNL     1      46.494   4.048   7.513  0.00  0.00    +0.000 A 
BRANCH  20  27
ATOM     26  N   UNL     1      48.336   1.514   5.941  0.00  0.00    +0.000 NA
ATOM     27  C   UNL     1      47.569   2.027   6.656  0.00  0.00    +0.000 C 
ENDBRANCH  20  27
ENDBRANCH  18  23
ENDBRANCH  15  18
ENDBRANCH   1  15
TORSDOF 6
ENDMDL
MODEL 2
REMARK VINA RESULT:    -8.498      1.124      1.356
REMARK INTER + INTRA:         -11.931
REMARK INTER:                 -11.050
REMARK INTRA:                  -0.880
REMARK UNBOUND:                -0.701
REMARK  Name = 
REMARK  6 active torsions:
REMARK  status: ('A' for Active; 'I' for Inactive)
REMARK    1  A    between atoms: C_2  and  C_3
REMARK    2  A    between atoms: C_6  and  N_7
REMARK    3  A    between atoms: N_7  and  C_8
REMARK    4  A    between atoms: C_8  and  C_9
REMARK    5  A    between atoms: C_13  and  C_14
REMARK    6  A    between atoms: C_18  and  O_19
REMARK                            x       y       z     vdW  Elec       q    Type
REMARK                         _______ _______ _______ _____ _____    ______ ____
ROOT
ATOM      1  C   UNL     1      45.307   5.385  11.901  0.00  0.00    +0.000 A 
ATOM      2  C   UNL     1      45.647   6.675  11.449  0.00  0.00    +0.000 A 
ATOM      3  C   UNL     1      46.558   7.455  12.152  0.00  0.00    +0.000 A 
ATOM      4  C   UNL     1      47.177   6.931  13.285  0.00  0.00    +0.000 A 
ATOM      5  C   UNL     1      46.958   5.601  13.687  0.00  0.00    +0.000 A 
ATOM      6  C   UNL     1      46.064   4.830  12.937  0.00  0.00    +0.000 A 
ENDROOT
BRANCH   5   7
ATOM      7  C   UNL     1      47.525   5.069  14.935  0.00  0.00    +0.000 A 
ATOM      8  C   UNL     1      47.221   3.789  15.409  0.00  0.00    +0.000 A 
ATOM      9  N   UNL     1      47.662   3.271  16.582  0.00  0.00    +0.000 NA
ATOM     10  C   UNL     1      48.464   4.066  17.322  0.00  0.00    +0.000 A 
ATOM     11  C   UNL     1      48.832   5.346  16.948  0.00  0.00    +0.000 A 
ATOM     12  C   UNL     1      48.348   5.852  15.751  0.00  0.00    +0.000 A 
BRANCH  11  13
ATOM     13  O   UNL     1      49.636   6.148  17.697  0.00  0.00    +0.000 OA
ATOM     14  H   UNL     1      49.564   7.059  17.371  0.00  0.00    +0.000 HD
ENDBRANCH  11  13
ENDBRANCH   5   7
BRANCH   1  15
ATOM     15  C   UNL     1      43.990   4.745  11.492  0.00  0.00    +0.000 C 
ATOM     16  C   UNL     1      43.223   3.741  12.335  0.00  0.00    +0.000 C 
ATOM     17  C   UNL     1      42.903   5.179  12.487  0.00  0.00    +0.000 C 
BRANCH  15  18
ATOM     18  N   UNL     1      43.794   4.619  10.050  0.00  0.00    +0.000 N 
ATOM     19  H   UNL     1      42.843   4.644   9.695  0.00  0.00    +0.000 HD
BRANCH  18  23
ATOM     20  C   UNL     1      46.575   2.644   7.560  0.00  0.00    +0.000 A 
ATOM     21  C   UNL     1      45.767   1.881   8.392  0.00  0.00    +0.000 A 
ATOM     22  C   UNL     1      44.837   2.511   9.225  0.00  0.00    +0.000 A 
ATOM     23  C   UNL     1      44.673   3.909   9.207  0.00  0.00    +0.000 A 
ATOM     24  C   UNL     1      45.513   4.653   8.372  0.00  0.00    +0.000 A 
ATOM     25  C   UNL     1      46.461   4.039   7.555  0.00  0.00    +0.000 A 
BRANCH  20  27
ATOM     26  N   UNL     1      48.363   1.501   6.062  0.00  0.00    +0.000 NA
ATOM     27  C   UNL     1      47.558   2.014   6.735  0.00  0.00    +0.000 C 
ENDBRANCH  20  27
ENDBRANCH  18  23
ENDBRANCH  15  18
ENDBRANCH   1  15
TORSDOF 6
ENDMDL
MODEL 3
REMARK VINA RESULT:    -8.143      1.713      2.082
REMARK INTER + INTRA:         -11.462
REMARK INTER:                 -10.689
REMARK INTRA:                  -0.773
REMARK UNBOUND:                -0.701
REMARK  Name = 
REMARK  6 active torsions:
REMARK  status: ('A' for Active; 'I' for Inactive)
REMARK    1  A    between atoms: C_2  and  C_3
REMARK    2  A    between atoms: C_6  and  N_7
REMARK    3  A    between atoms: N_7  and  C_8
REMARK    4  A    between atoms: C_8  and  C_9
REMARK    5  A    between atoms: C_13  and  C_14
REMARK    6  A    between atoms: C_18  and  O_19
REMARK                            x       y       z     vdW  Elec       q    Type
REMARK                         _______ _______ _______ _____ _____    ______ ____
ROOT
ATOM      1  C   UNL     1      45.132   5.931  11.769  0.00  0.00    +0.000 A 
ATOM      2  C   UNL     1      44.889   7.260  11.370  0.00  0.00    +0.000 A 
ATOM      3  C   UNL     1      45.581   8.314  11.954  0.00  0.00    +0.000 A 
ATOM      4  C   UNL     1      46.560   8.044  12.907  0.00  0.00    +0.000 A 
ATOM      5  C   UNL     1      46.919   6.723  13.233  0.00  0.00    +0.000 A 
ATOM      6  C   UNL     1      46.229   5.684  12.600  0.00  0.00    +0.000 A 
ENDROOT
BRANCH   5   7
ATOM      7  C   UNL     1      47.877   6.425  14.308  0.00  0.00    +0.000 A 
ATOM      8  C   UNL     1      47.728   5.328  15.161  0.00  0.00    +0.000 A 
ATOM      9  N   UNL     1      48.543   5.041  16.206  0.00  0.00    +0.000 NA
ATOM     10  C   UNL     1      49.575   5.886  16.408  0.00  0.00    +0.000 A 
ATOM     11  C   UNL     1      49.820   7.000  15.623  0.00  0.00    +0.000 A 
ATOM     12  C   UNL     1      48.957   7.275  14.574  0.00  0.00    +0.000 A 
BRANCH  11  13
ATOM     13  O   UNL     1      50.858   7.854  15.832  0.00  0.00    +0.000 OA
ATOM     14  H   UNL     1      50.512   8.757  15.906  0.00  0.00    +0.000 HD
ENDBRANCH  11  13
ENDBRANCH   5   7
BRANCH   1  15
ATOM     15  C   UNL     1      44.078   4.855  11.558  0.00  0.00    +0.000 C 
ATOM     16  C   UNL     1      43.804   3.718  12.527  0.00  0.00    +0.000 C 
ATOM     17  C   UNL     1      43.028   4.970  12.674  0.00  0.00    +0.000 C 
BRANCH  15  18
ATOM     18  N   UNL     1      43.776   4.563  10.160  0.00  0.00    +0.000 N 
ATOM     19  H   UNL     1      42.801   4.460   9.895  0.00  0.00    +0.000 HD
BRANCH  18  23
ATOM     20  C   UNL     1      46.542   2.608   7.638  0.00  0.00    +0.000 A 
ATOM     21  C   UNL     1      45.759   1.841   8.490  0.00  0.00    +0.000 A 
ATOM     22  C   UNL     1      44.834   2.464   9.333  0.00  0.00    +0.000 A 
ATOM     23  C   UNL     1      44.651   3.859   9.307  0.00  0.00    +0.000 A 
ATOM     24  C   UNL     1      45.465   4.608   8.452  0.00  0.00    +0.000 A 
ATOM     25  C   UNL     1      46.407   4.001   7.624  0.00  0.00    +0.000 A 
BRANCH  20  27
ATOM     26  N   UNL     1      48.318   1.480   6.116  0.00  0.00    +0.000 NA
ATOM     27  C   UNL     1      47.519   1.985   6.801  0.00  0.00    +0.000 C 
ENDBRANCH  20  27
ENDBRANCH  18  23
ENDBRANCH  15  18
ENDBRANCH   1  15
TORSDOF 6
ENDMDL
MODEL 4
REMARK VINA RESULT:    -7.982      2.982      4.151
REMARK INTER + INTRA:         -11.250
REMARK INTER:                 -10.405
REMARK INTRA:                  -0.845
REMARK UNBOUND:                -0.701
REMARK  Name = 
REMARK  6 active torsions:
REMARK  status: ('A' for Active; 'I' for Inactive)
REMARK    1  A    between atoms: C_2  and  C_3
REMARK    2  A    between atoms: C_6  and  N_7
REMARK    3  A    between atoms: N_7  and  C_8
REMARK    4  A    between atoms: C_8  and  C_9
REMARK    5  A    between atoms: C_13  and  C_14
REMARK    6  A    between atoms: C_18  and  O_19
REMARK                            x       y       z     vdW  Elec       q    Type
REMARK                         _______ _______ _______ _____ _____    ______ ____
ROOT
ATOM      1  C   UNL     1      45.113   5.313  12.407  0.00  0.00    +0.000 A 
ATOM      2  C   UNL     1      45.835   4.384  13.182  0.00  0.00    +0.000 A 
ATOM      3  C   UNL     1      47.127   4.670  13.608  0.00  0.00    +0.000 A 
ATOM      4  C   UNL     1      47.690   5.908  13.305  0.00  0.00    +0.000 A 
ATOM      5  C   UNL     1      46.949   6.905  12.646  0.00  0.00    +0.000 A 
ATOM      6  C   UNL     1      45.638   6.601  12.264  0.00  0.00    +0.000 A 
ENDROOT
BRANCH   5   7
ATOM      7  C   UNL     1      47.561   8.176  12.232  0.00  0.00    +0.000 A 
ATOM      8  C   UNL     1      46.837   9.370  12.165  0.00  0.00    +0.000 A 
ATOM      9  N   UNL     1      47.332  10.555  11.730  0.00  0.00    +0.000 NA
ATOM     10  C   UNL     1      48.628  10.558  11.353  0.00  0.00    +0.000 A 
ATOM     11  C   UNL     1      49.438   9.437  11.381  0.00  0.00    +0.000 A 
ATOM     12  C   UNL     1      48.895   8.237  11.813  0.00  0.00    +0.000 A 
BRANCH  11  13
ATOM     13  O   UNL     1      50.742   9.441  10.995  0.00  0.00    +0.000 OA
ATOM     14  H   UNL     1      51.157  10.265  11.295  0.00  0.00    +0.000 HD
ENDBRANCH  11  13
ENDBRANCH   5   7
BRANCH   1  15
ATOM     15  C   UNL     1      43.970   4.852  11.515  0.00  0.00    +0.000 C 
ATOM     16  C   UNL     1      43.053   3.683  11.827  0.00  0.00    +0.000 C 
ATOM     17  C   UNL     1      42.648   5.034  12.277  0.00  0.00    +0.000 C 
BRANCH  15  18
ATOM     18  N   UNL     1      44.155   5.132  10.094  0.00  0.00    +0.000 N 
ATOM     19  H   UNL     1      43.413   5.622   9.605  0.00  0.00    +0.000 HD
BRANCH  18  23
ATOM     20  C   UNL     1      46.647   2.838   7.571  0.00  0.00    +0.000 A 
ATOM     21  C   UNL     1      45.738   2.179   8.388  0.00  0.00    +0.000 A 
ATOM     22  C   UNL     1      44.900   2.915   9.231  0.00  0.00    +0.000 A 
ATOM     23  C   UNL     1      44.931   4.322   9.239  0.00  0.00    +0.000 A 
ATOM     24  C   UNL     1      45.868   4.959   8.419  0.00  0.00    +0.000 A 
ATOM     25  C   UNL     1      46.725   4.234   7.592  0.00  0.00    +0.000 A 
BRANCH  20  27
ATOM     26  N   UNL     1      48.263   1.488   6.051  0.00  0.00    +0.000 NA
ATOM     27  C   UNL     1      47.536   2.093   6.736  0.00  0.00    +0.000 C 
ENDBRANCH  20  27
ENDBRANCH  18  23
ENDBRANCH  15  18
ENDBRANCH   1  15
TORSDOF 6
ENDMDL
MODEL 5
REMARK VINA RESULT:    -7.967      2.943      3.441
REMARK INTER + INTRA:         -11.230
REMARK INTER:                 -10.478
REMARK INTRA:                  -0.751
REMARK UNBOUND:                -0.701
REMARK  Name = 
REMARK  6 active torsions:
REMARK  status: ('A' for Active; 'I' for Inactive)
REMARK    1  A    between atoms: C_2  and  C_3
REMARK    2  A    between atoms: C_6  and  N_7
REMARK    3  A    between atoms: N_7  and  C_8
REMARK    4  A    between atoms: C_8  and  C_9
REMARK    5  A    between atoms: C_13  and  C_14
REMARK    6  A    between atoms: C_18  and  O_19
REMARK                            x       y       z     vdW  Elec       q    Type
REMARK                         _______ _______ _______ _____ _____    ______ ____
ROOT
ATOM      1  C   UNL     1      45.015   5.988  11.389  0.00  0.00    +0.000 A 
ATOM      2  C   UNL     1      44.111   7.063  11.288  0.00  0.00    +0.000 A 
ATOM      3  C   UNL     1      44.497   8.349  11.648  0.00  0.00    +0.000 A 
ATOM      4  C   UNL     1      45.807   8.580  12.063  0.00  0.00    +0.000 A 
ATOM      5  C   UNL     1      46.768   7.554  12.051  0.00  0.00    +0.000 A 
ATOM      6  C   UNL     1      46.358   6.279  11.648  0.00  0.00    +0.000 A 
ENDROOT
BRANCH   5   7
ATOM      7  C   UNL     1      48.124   7.759  12.581  0.00  0.00    +0.000 A 
ATOM      8  C   UNL     1      48.360   8.159  13.900  0.00  0.00    +0.000 A 
ATOM      9  N   UNL     1      49.582   8.425  14.423  0.00  0.00    +0.000 NA
ATOM     10  C   UNL     1      50.635   8.271  13.592  0.00  0.00    +0.000 A 
ATOM     11  C   UNL     1      50.517   7.876  12.271  0.00  0.00    +0.000 A 
ATOM     12  C   UNL     1      49.252   7.630  11.762  0.00  0.00    +0.000 A 
BRANCH  11  13
ATOM     13  O   UNL     1      51.578   7.726  11.434  0.00  0.00    +0.000 OA
ATOM     14  H   UNL     1      52.107   6.968  11.728  0.00  0.00    +0.000 HD
ENDBRANCH  11  13
ENDBRANCH   5   7
BRANCH   1  15
ATOM     15  C   UNL     1      44.507   4.560  11.515  0.00  0.00    +0.000 C 
ATOM     16  C   UNL     1      44.996   3.561  12.549  0.00  0.00    +0.000 C 
ATOM     17  C   UNL     1      43.823   4.400  12.882  0.00  0.00    +0.000 C 
BRANCH  15  18
ATOM     18  N   UNL     1      44.021   3.973  10.270  0.00  0.00    +0.000 N 
ATOM     19  H   UNL     1      43.095   3.555  10.270  0.00  0.00    +0.000 HD
BRANCH  18  23
ATOM     20  C   UNL     1      46.696   2.483   7.362  0.00  0.00    +0.000 A 
ATOM     21  C   UNL     1      46.080   1.585   8.224  0.00  0.00    +0.000 A 
ATOM     22  C   UNL     1      45.189   2.052   9.194  0.00  0.00    +0.000 A 
ATOM     23  C   UNL     1      44.869   3.420   9.289  0.00  0.00    +0.000 A 
ATOM     24  C   UNL     1      45.517   4.303   8.420  0.00  0.00    +0.000 A 
ATOM     25  C   UNL     1      46.427   3.851   7.465  0.00  0.00    +0.000 A 
BRANCH  20  27
ATOM     26  N   UNL     1      48.411   1.645   5.601  0.00  0.00    +0.000 NA
ATOM     27  C   UNL     1      47.640   2.020   6.394  0.00  0.00    +0.000 C 
ENDBRANCH  20  27
ENDBRANCH  18  23
ENDBRANCH  15  18
ENDBRANCH   1  15
TORSDOF 6
ENDMDL
MODEL 6
REMARK VINA RESULT:    -7.963      3.148      4.430
REMARK INTER + INTRA:         -11.225
REMARK INTER:                 -10.470
REMARK INTRA:                  -0.755
REMARK UNBOUND:                -0.701
REMARK  Name = 
REMARK  6 active torsions:
REMARK  status: ('A' for Active; 'I' for Inactive)
REMARK    1  A    between atoms: C_2  and  C_3
REMARK    2  A    between atoms: C_6  and  N_7
REMARK    3  A    between atoms: N_7  and  C_8
REMARK    4  A    between atoms: C_8  and  C_9
REMARK    5  A    between atoms: C_13  and  C_14
REMARK    6  A    between atoms: C_18  and  O_19
REMARK                            x       y       z     vdW  Elec       q    Type
REMARK                         _______ _______ _______ _____ _____    ______ ____
ROOT
ATOM      1  C   UNL     1      45.227   5.211  12.682  0.00  0.00    +0.000 A 
ATOM      2  C   UNL     1      46.380   4.644  13.258  0.00  0.00    +0.000 A 
ATOM      3  C   UNL     1      47.522   5.410  13.460  0.00  0.00    +0.000 A 
ATOM      4  C   UNL     1      47.504   6.764  13.133  0.00  0.00    +0.000 A 
ATOM      5  C   UNL     1      46.330   7.390  12.678  0.00  0.00    +0.000 A 
ATOM      6  C   UNL     1      45.186   6.600  12.521  0.00  0.00    +0.000 A 
ENDROOT
BRANCH   5   7
ATOM      7  C   UNL     1      46.323   8.792  12.234  0.00  0.00    +0.000 A 
ATOM      8  C   UNL     1      47.499   9.490  11.942  0.00  0.00    +0.000 A 
ATOM      9  N   UNL     1      47.557  10.799  11.591  0.00  0.00    +0.000 NA
ATOM     10  C   UNL     1      46.378  11.450  11.513  0.00  0.00    +0.000 A 
ATOM     11  C   UNL     1      45.156  10.856  11.777  0.00  0.00    +0.000 A 
ATOM     12  C   UNL     1      45.133   9.522  12.151  0.00  0.00    +0.000 A 
BRANCH  11  13
ATOM     13  O   UNL     1      43.968  11.516  11.703  0.00  0.00    +0.000 OA
ATOM     14  H   UNL     1      43.831  11.814  10.790  0.00  0.00    +0.000 HD
ENDBRANCH  11  13
ENDBRANCH   5   7
BRANCH   1  15
ATOM     15  C   UNL     1      44.199   4.333  11.985  0.00  0.00    +0.000 C 
ATOM     16  C   UNL     1      43.796   2.945  12.451  0.00  0.00    +0.000 C 
ATOM     17  C   UNL     1      43.018   4.105  12.942  0.00  0.00    +0.000 C 
BRANCH  15  18
ATOM     18  N   UNL     1      44.071   4.565  10.549  0.00  0.00    +0.000 N 
ATOM     19  H   UNL     1      43.167   4.860  10.193  0.00  0.00    +0.000 HD
BRANCH  18  23
ATOM     20  C   UNL     1      46.548   2.688   7.690  0.00  0.00    +0.000 A 
ATOM     21  C   UNL     1      45.767   1.894   8.519  0.00  0.00    +0.000 A 
ATOM     22  C   UNL     1      44.937   2.490   9.472  0.00  0.00    +0.000 A 
ATOM     23  C   UNL     1      44.846   3.891   9.582  0.00  0.00    +0.000 A 
ATOM     24  C   UNL     1      45.657   4.665   8.747  0.00  0.00    +0.000 A 
ATOM     25  C   UNL     1      46.507   4.081   7.810  0.00  0.00    +0.000 A 
BRANCH  20  27
ATOM     26  N   UNL     1      48.151   1.592   5.966  0.00  0.00    +0.000 NA
ATOM     27  C   UNL     1      47.431   2.087   6.740  0.00  0.00    +0.000 C 
ENDBRANCH  20  27
ENDBRANCH  18  23
ENDBRANCH  15  18
ENDBRANCH   1  15
TORSDOF 6
ENDMDL
MODEL 7
REMARK VINA RESULT:    -6.865      1.905      2.749
REMARK INTER + INTRA:          -9.774
REMARK INTER:                  -9.778
REMARK INTRA:                   0.004
REMARK UNBOUND:                -0.701
REMARK  Name = 
REMARK  6 active torsions:
REMARK  status: ('A' for Active; 'I' for Inactive)
REMARK    1  A    between atoms: C_2  and  C_3
REMARK    2  A    between atoms: C_6  and  N_7
REMARK    3  A    between atoms: N_7  and  C_8
REMARK    4  A    between atoms: C_8  and  C_9
REMARK    5  A    between atoms: C_13  and  C_14
REMARK    6  A    between atoms: C_18  and  O_19
REMARK                            x       y       z     vdW  Elec       q    Type
REMARK                         _______ _______ _______ _____ _____    ______ ____
ROOT
ATOM      1  C   UNL     1      44.854   4.856  12.279  0.00  0.00    +0.000 A 
ATOM      2  C   UNL     1      44.964   3.467  12.480  0.00  0.00    +0.000 A 
ATOM      3  C   UNL     1      46.068   2.931  13.134  0.00  0.00    +0.000 A 
ATOM      4  C   UNL     1      47.046   3.784  13.637  0.00  0.00    +0.000 A 
ATOM      5  C   UNL     1      46.903   5.181  13.568  0.00  0.00    +0.000 A 
ATOM      6  C   UNL     1      45.763   5.691  12.938  0.00  0.00    +0.000 A 
ENDROOT
BRANCH   5   7
ATOM      7  C   UNL     1      47.973   6.091  14.003  0.00  0.00    +0.000 A 
ATOM      8  C   UNL     1      48.643   6.939  13.116  0.00  0.00    +0.000 A 
ATOM      9  N   UNL     1      49.678   7.749  13.449  0.00  0.00    +0.000 NA
ATOM     10  C   UNL     1      50.062   7.727  14.742  0.00  0.00    +0.000 A 
ATOM     11  C   UNL     1      49.468   6.930  15.705  0.00  0.00    +0.000 A 
ATOM     12  C   UNL     1      48.425   6.099  15.328  0.00  0.00    +0.000 A 
BRANCH  11  13
ATOM     13  O   UNL     1      49.860   6.905  17.007  0.00  0.00    +0.000 OA
ATOM     14  H   UNL     1      50.669   7.434  17.103  0.00  0.00    +0.000 HD
ENDBRANCH  11  13
ENDBRANCH   5   7
BRANCH   1  15
ATOM     15  C   UNL     1      43.984   5.409  11.161  0.00  0.00    +0.000 C 
ATOM     16  C   UNL     1      42.932   6.489  11.344  0.00  0.00    +0.000 C 
ATOM     17  C   UNL     1      44.306   6.901  10.979  0.00  0.00    +0.000 C 
BRANCH  15  18
ATOM     18  N   UNL     1      43.729   4.476  10.068  0.00  0.00    +0.000 N 
ATOM     19  H   UNL     1      42.917   3.870  10.140  0.00  0.00    +0.000 HD
BRANCH  18  23
ATOM     20  C   UNL     1      46.644   2.685   7.593  0.00  0.00    +0.000 A 
ATOM     21  C   UNL     1      46.523   4.068   7.587  0.00  0.00    +0.000 A 
ATOM     22  C   UNL     1      45.567   4.686   8.399  0.00  0.00    +0.000 A 
ATOM     23  C   UNL     1      44.747   3.931   9.259  0.00  0.00    +0.000 A 
ATOM     24  C   UNL     1      44.878   2.539   9.231  0.00  0.00    +0.000 A 
ATOM     25  C   UNL     1      45.810   1.911   8.407  0.00  0.00    +0.000 A 
BRANCH  20  27
ATOM     26  N   UNL     1      48.364   1.513   6.039  0.00  0.00    +0.000 NA
ATOM     27  C   UNL     1      47.589   2.041   6.736  0.00  0.00    +0.000 C 
ENDBRANCH  20  27
ENDBRANCH  18  23
ENDBRANCH  15  18
ENDBRANCH   1  15
TORSDOF 6
ENDMDL
MODEL 8
REMARK VINA RESULT:    -6.699      2.856      8.038
REMARK INTER + INTRA:          -9.554
REMARK INTER:                  -9.452
REMARK INTRA:                  -0.102
REMARK UNBOUND:                -0.701
REMARK  Name = 
REMARK  6 active torsions:
REMARK  status: ('A' for Active; 'I' for Inactive)
REMARK    1  A    between atoms: C_2  and  C_3
REMARK    2  A    between atoms: C_6  and  N_7
REMARK    3  A    between atoms: N_7  and  C_8
REMARK    4  A    between atoms: C_8  and  C_9
REMARK    5  A    between atoms: C_13  and  C_14
REMARK    6  A    between atoms: C_18  and  O_19
REMARK                            x       y       z     vdW  Elec       q    Type
REMARK                         _______ _______ _______ _____ _____    ______ ____
ROOT
ATOM      1  C   UNL     1      45.250   4.609  12.792  0.00  0.00    +0.000 A 
ATOM      2  C   UNL     1      43.905   5.016  12.891  0.00  0.00    +0.000 A 
ATOM      3  C   UNL     1      43.039   4.867  11.814  0.00  0.00    +0.000 A 
ATOM      4  C   UNL     1      43.497   4.263  10.646  0.00  0.00    +0.000 A 
ATOM      5  C   UNL     1      44.795   3.729  10.560  0.00  0.00    +0.000 A 
ATOM      6  C   UNL     1      45.631   3.861  11.674  0.00  0.00    +0.000 A 
ENDROOT
BRANCH   5   7
ATOM      7  C   UNL     1      45.324   3.181   9.303  0.00  0.00    +0.000 A 
ATOM      8  C   UNL     1      45.437   1.806   9.074  0.00  0.00    +0.000 A 
ATOM      9  N   UNL     1      45.976   1.246   7.962  0.00  0.00    +0.000 NA
ATOM     10  C   UNL     1      46.414   2.102   7.015  0.00  0.00    +0.000 A 
ATOM     11  C   UNL     1      46.347   3.478   7.135  0.00  0.00    +0.000 A 
ATOM     12  C   UNL     1      45.809   4.019   8.292  0.00  0.00    +0.000 A 
BRANCH  11  13
ATOM     13  O   UNL     1      46.795   4.339   6.181  0.00  0.00    +0.000 OA
ATOM     14  H   UNL     1      47.616   3.988   5.801  0.00  0.00    +0.000 HD
ENDBRANCH  11  13
ENDBRANCH   5   7
BRANCH   1  15
ATOM     15  C   UNL     1      46.308   5.212  13.703  0.00  0.00    +0.000 C 
ATOM     16  C   UNL     1      47.642   5.760  13.226  0.00  0.00    +0.000 C 
ATOM     17  C   UNL     1      46.495   6.690  13.328  0.00  0.00    +0.000 C 
BRANCH  15  18
ATOM     18  N   UNL     1      46.304   4.695  15.068  0.00  0.00    +0.000 N 
ATOM     19  H   UNL     1      45.514   4.928  15.663  0.00  0.00    +0.000 HD
BRANCH  18  23
ATOM     20  C   UNL     1      49.775   4.066  17.390  0.00  0.00    +0.000 A 
ATOM     21  C   UNL     1      49.059   2.961  16.949  0.00  0.00    +0.000 A 
ATOM     22  C   UNL     1      47.908   3.142  16.177  0.00  0.00    +0.000 A 
ATOM     23  C   UNL     1      47.479   4.430  15.801  0.00  0.00    +0.000 A 
ATOM     24  C   UNL     1      48.209   5.524  16.275  0.00  0.00    +0.000 A 
ATOM     25  C   UNL     1      49.345   5.357  17.065  0.00  0.00    +0.000 A 
BRANCH  20  27
ATOM     26  N   UNL     1      51.873   3.749  18.888  0.00  0.00    +0.000 NA
ATOM     27  C   UNL     1      50.930   3.893  18.214  0.00  0.00    +0.000 C 
ENDBRANCH  20  27
ENDBRANCH  18  23
ENDBRANCH  15  18
ENDBRANCH   1  15
TORSDOF 6
ENDMDL
MODEL 9
REMARK VINA RESULT:    -6.647      3.083      4.634
REMARK INTER + INTRA:          -9.485
REMARK INTER:                  -8.804
REMARK INTRA:                  -0.681
REMARK UNBOUND:                -0.701
REMARK  Name = 
REMARK  6 active torsions:
REMARK  status: ('A' for Active; 'I' for Inactive)
REMARK    1  A    between atoms: C_2  and  C_3
REMARK    2  A    between atoms: C_6  and  N_7
REMARK    3  A    between atoms: N_7  and  C_8
REMARK    4  A    between atoms: C_8  and  C_9
REMARK    5  A    between atoms: C_13  and  C_14
REMARK    6  A    between atoms: C_18  and  O_19
REMARK                            x       y       z     vdW  Elec       q    Type
REMARK                         _______ _______ _______ _____ _____    ______ ____
ROOT
ATOM      1  C   UNL     1      48.427   8.111  14.297  0.00  0.00    +0.000 A 
ATOM      2  C   UNL     1      48.762   9.263  15.034  0.00  0.00    +0.000 A 
ATOM      3  C   UNL     1      49.086   9.172  16.383  0.00  0.00    +0.000 A 
ATOM      4  C   UNL     1      49.127   7.921  16.993  0.00  0.00    +0.000 A 
ATOM      5  C   UNL     1      48.925   6.741  16.255  0.00  0.00    +0.000 A 
ATOM      6  C   UNL     1      48.638   6.864  14.892  0.00  0.00    +0.000 A 
ENDROOT
BRANCH   5   7
ATOM      7  C   UNL     1      48.866   5.423  16.906  0.00  0.00    +0.000 A 
ATOM      8  C   UNL     1      50.005   4.782  17.404  0.00  0.00    +0.000 A 
ATOM      9  N   UNL     1      50.019   3.543  17.954  0.00  0.00    +0.000 NA
ATOM     10  C   UNL     1      48.830   2.908  18.027  0.00  0.00    +0.000 A 
ATOM     11  C   UNL     1      47.642   3.449  17.569  0.00  0.00    +0.000 A 
ATOM     12  C   UNL     1      47.665   4.711  16.994  0.00  0.00    +0.000 A 
BRANCH  11  13
ATOM     13  O   UNL     1      46.446   2.805  17.638  0.00  0.00    +0.000 OA
ATOM     14  H   UNL     1      45.776   3.421  17.976  0.00  0.00    +0.000 HD
ENDBRANCH  11  13
ENDBRANCH   5   7
BRANCH   1  15
ATOM     15  C   UNL     1      47.589   8.219  13.032  0.00  0.00    +0.000 C 
ATOM     16  C   UNL     1      47.931   9.107  11.847  0.00  0.00    +0.000 C 
ATOM     17  C   UNL     1      48.423   7.710  11.846  0.00  0.00    +0.000 C 
BRANCH  15  18
ATOM     18  N   UNL     1      46.165   7.958  13.219  0.00  0.00    +0.000 N 
ATOM     19  H   UNL     1      45.708   8.369  14.027  0.00  0.00    +0.000 HD
BRANCH  18  23
ATOM     20  C   UNL     1      44.231   4.384  12.069  0.00  0.00    +0.000 A 
ATOM     21  C   UNL     1      43.910   5.560  11.403  0.00  0.00    +0.000 A 
ATOM     22  C   UNL     1      44.538   6.756  11.763  0.00  0.00    +0.000 A 
ATOM     23  C   UNL     1      45.525   6.786  12.766  0.00  0.00    +0.000 A 
ATOM     24  C   UNL     1      45.815   5.591  13.432  0.00  0.00    +0.000 A 
ATOM     25  C   UNL     1      45.179   4.397  13.098  0.00  0.00    +0.000 A 
BRANCH  20  27
ATOM     26  N   UNL     1      43.020   2.168  11.465  0.00  0.00    +0.000 NA
ATOM     27  C   UNL     1      43.566   3.164  11.736  0.00  0.00    +0.000 C 
ENDBRANCH  20  27
ENDBRANCH  18  23
ENDBRANCH  15  18
ENDBRANCH   1  15
TORSDOF 6
ENDMDL
