MODEL 1
REMARK VINA RESULT:    -9.203      0.000      0.000
REMARK INTER + INTRA:         -13.891
REMARK INTER:                 -13.238
REMARK INTRA:                  -0.653
REMARK UNBOUND:                -0.653
REMARK  Name = 
REMARK  9 active torsions:
REMARK  status: ('A' for Active; 'I' for Inactive)
REMARK    1  A    between atoms: C_1  and  C_2
REMARK    2  A    between atoms: C_2  and  N_3
REMARK    3  A    between atoms: C_2  and  C_21
REMARK    4  A    between atoms: N_3  and  C_4
REMARK    5  A    between atoms: C_4  and  C_5
REMARK    6  A    between atoms: C_8  and  C_9
REMARK    7  A    between atoms: C_9  and  O_10
REMARK    8  A    between atoms: C_9  and  C_11
REMARK    9  A    between atoms: C_11  and  N_12
REMARK                            x       y       z     vdW  Elec       q    Type
REMARK                         _______ _______ _______ _____ _____    ______ ____
ROOT
ATOM      1  C   UNL     1      46.772   5.307  13.667  0.00  0.00    +0.000 A 
ATOM      2  C   UNL     1      46.285   6.305  12.836  0.00  0.00    +0.000 A 
ATOM      3  C   UNL     1      45.284   5.991  11.923  0.00  0.00    +0.000 A 
ATOM      4  C   UNL     1      44.780   4.688  11.843  0.00  0.00    +0.000 A 
ATOM      5  C   UNL     1      45.329   3.755  12.717  0.00  0.00    +0.000 A 
ATOM      6  N   UNL     1      46.295   4.037  13.623  0.00  0.00    +0.000 NA
ENDROOT
BRANCH   1   7
ATOM      7  C   UNL     1      47.827   5.639  14.705  0.00  0.00    +0.000 C 
BRANCH   7   8
ATOM      8  N   UNL     1      48.240   4.476  15.493  0.00  0.00    +0.000 NA
ATOM      9  H   UNL     1      49.230   4.297  15.339  0.00  0.00    +0.000 HD
BRANCH   8  11
ATOM     10  C   UNL     1      46.978   3.585  17.449  0.00  0.00    +0.000 C 
ATOM     11  C   UNL     1      47.983   4.624  16.929  0.00  0.00    +0.000 C 
BRANCH  11  12
ATOM     12  C   UNL     1      49.322   4.471  17.628  0.00  0.00    +0.000 A 
ATOM     13  C   UNL     1      49.858   5.432  18.470  0.00  0.00    +0.000 A 
ATOM     14  S   UNL     1      51.403   5.034  19.070  0.00  0.00    +0.000 S 
ATOM     15  C   UNL     1      51.403   3.549  18.238  0.00  0.00    +0.000 A 
ATOM     16  N   UNL     1      52.470   2.708  18.312  0.00  0.00    +0.000 NA
ATOM     17  C   UNL     1      52.332   1.617  17.634  0.00  0.00    +0.000 A 
ATOM     18  N   UNL     1      51.222   1.287  16.898  0.00  0.00    +0.000 N 
ATOM     19  C   UNL     1      50.110   2.096  16.807  0.00  0.00    +0.000 A 
ATOM     20  O   UNL     1      49.120   1.748  16.174  0.00  0.00    +0.000 OA
ATOM     21  C   UNL     1      50.231   3.352  17.529  0.00  0.00    +0.000 A 
ATOM     22  H   UNL     1      51.175   0.406  16.409  0.00  0.00    +0.000 HD
ENDBRANCH  11  12
ENDBRANCH   8  11
ENDBRANCH   7   8
ENDBRANCH   1   7
BRANCH   4  23
ATOM     23  C   UNL     1      43.706   4.256  10.868  0.00  0.00    +0.000 C 
BRANCH  23  24
ATOM     24  O   UNL     1      43.199   5.414  10.186  0.00  0.00    +0.000 OA
ATOM     25  H   UNL     1      42.233   5.417  10.303  0.00  0.00    +0.000 HD
ENDBRANCH  23  24
BRANCH  23  26
ATOM     26  C   UNL     1      44.198   3.240   9.817  0.00  0.00    +0.000 C 
BRANCH  26  27
ATOM     27  N   UNL     1      44.833   3.895   8.670  0.00  0.00    +0.000 N 
ATOM     28  C   UNL     1      45.742   3.042   8.012  0.00  0.00    +0.000 A 
ATOM     29  C   UNL     1      46.439   3.533   6.915  0.00  0.00    +0.000 A 
ATOM     30  C   UNL     1      47.318   2.694   6.232  0.00  0.00    +0.000 A 
ATOM     31  C   UNL     1      47.480   1.384   6.660  0.00  0.00    +0.000 A 
ATOM     32  C   UNL     1      46.744   0.968   7.752  0.00  0.00    +0.000 A 
ATOM     33  N   UNL     1      45.885   1.760   8.423  0.00  0.00    +0.000 NA
ATOM     34  H   UNL     1      45.305   4.753   8.952  0.00  0.00    +0.000 HD
ENDBRANCH  26  27
ENDBRANCH  23  26
ENDBRANCH   4  23
TORSDOF 8
ENDMDL
MODEL 2
REMARK VINA RESULT:    -9.069      2.143      2.917
REMARK INTER + INTRA:         -13.699
REMARK INTER:                 -12.648
REMARK INTRA:                  -1.050
REMARK UNBOUND:                -0.653
REMARK  Name = 
REMARK  9 active torsions:
REMARK  status: ('A' for Active; 'I' for Inactive)
REMARK    1  A    between atoms: C_1  and  C_2
REMARK    2  A    between atoms: C_2  and  N_3
REMARK    3  A    between atoms: C_2  and  C_21
REMARK    4  A    between atoms: N_3  and  C_4
REMARK    5  A    between atoms: C_4  and  C_5
REMARK    6  A    between atoms: C_8  and  C_9
REMARK    7  A    between atoms: C_9  and  O_10
REMARK    8  A    between atoms: C_9  and  C_11
REMARK    9  A    between atoms: C_11  and  N_12
REMARK                            x       y       z     vdW  Elec       q    Type
REMARK                         _______ _______ _______ _____ _____    ______ ____
ROOT
ATOM      1  C   UNL     1      45.799   6.855  12.550  0.00  0.00    +0.000 A 
ATOM      2  C   UNL     1      46.234   6.356  11.331  0.00  0.00    +0.000 A 
ATOM      3  C   UNL     1      45.660   5.188  10.839  0.00  0.00    +0.000 A 
ATOM      4  C   UNL     1      44.663   4.527  11.566  0.00  0.00    +0.000 A 
ATOM      5  C   UNL     1      44.291   5.104  12.775  0.00  0.00    +0.000 A 
ATOM      6  N   UNL     1      44.824   6.245  13.271  0.00  0.00    +0.000 NA
ENDROOT
BRANCH   1   7
ATOM      7  C   UNL     1      46.374   8.154  13.080  0.00  0.00    +0.000 C 
BRANCH   7   8
ATOM      8  N   UNL     1      47.182   7.972  14.288  0.00  0.00    +0.000 NA
ATOM      9  H   UNL     1      46.571   7.766  15.076  0.00  0.00    +0.000 HD
BRANCH   8  11
ATOM     10  C   UNL     1      49.420   7.386  13.361  0.00  0.00    +0.000 C 
ATOM     11  C   UNL     1      48.193   6.918  14.159  0.00  0.00    +0.000 C 
BRANCH  11  12
ATOM     12  C   UNL     1      48.589   6.520  15.569  0.00  0.00    +0.000 A 
ATOM     13  C   UNL     1      49.383   7.305  16.390  0.00  0.00    +0.000 A 
ATOM     14  S   UNL     1      49.728   6.591  17.898  0.00  0.00    +0.000 S 
ATOM     15  C   UNL     1      48.811   5.210  17.515  0.00  0.00    +0.000 A 
ATOM     16  N   UNL     1      48.707   4.175  18.393  0.00  0.00    +0.000 NA
ATOM     17  C   UNL     1      47.979   3.195  17.973  0.00  0.00    +0.000 A 
ATOM     18  N   UNL     1      47.338   3.159  16.761  0.00  0.00    +0.000 N 
ATOM     19  C   UNL     1      47.397   4.187  15.846  0.00  0.00    +0.000 A 
ATOM     20  O   UNL     1      46.776   4.137  14.789  0.00  0.00    +0.000 OA
ATOM     21  C   UNL     1      48.233   5.302  16.261  0.00  0.00    +0.000 A 
ATOM     22  H   UNL     1      46.767   2.367  16.506  0.00  0.00    +0.000 HD
ENDBRANCH  11  12
ENDBRANCH   8  11
ENDBRANCH   7   8
ENDBRANCH   1   7
BRANCH   4  23
ATOM     23  C   UNL     1      43.999   3.244  11.114  0.00  0.00    +0.000 C 
BRANCH  23  24
ATOM     24  O   UNL     1      42.603   3.295  11.447  0.00  0.00    +0.000 OA
ATOM     25  H   UNL     1      42.416   2.531  12.021  0.00  0.00    +0.000 HD
ENDBRANCH  23  24
BRANCH  23  26
ATOM     26  C   UNL     1      44.136   2.978   9.600  0.00  0.00    +0.000 C 
BRANCH  26  27
ATOM     27  N   UNL     1      45.013   1.839   9.317  0.00  0.00    +0.000 N 
ATOM     28  C   UNL     1      45.846   2.080   8.206  0.00  0.00    +0.000 A 
ATOM     29  C   UNL     1      46.721   1.078   7.802  0.00  0.00    +0.000 A 
ATOM     30  C   UNL     1      47.575   1.309   6.725  0.00  0.00    +0.000 A 
ATOM     31  C   UNL     1      47.536   2.535   6.076  0.00  0.00    +0.000 A 
ATOM     32  C   UNL     1      46.647   3.483   6.544  0.00  0.00    +0.000 A 
ATOM     33  N   UNL     1      45.817   3.282   7.586  0.00  0.00    +0.000 NA
ATOM     34  H   UNL     1      44.474   0.987   9.168  0.00  0.00    +0.000 HD
ENDBRANCH  26  27
ENDBRANCH  23  26
ENDBRANCH   4  23
TORSDOF 8
ENDMDL
MODEL 3
REMARK VINA RESULT:    -8.527      2.053      2.747
REMARK INTER + INTRA:         -12.918
REMARK INTER:                 -11.991
REMARK INTRA:                  -0.928
REMARK UNBOUND:                -0.653
REMARK  Name = 
REMARK  9 active torsions:
REMARK  status: ('A' for Active; 'I' for Inactive)
REMARK    1  A    between atoms: C_1  and  C_2
REMARK    2  A    between atoms: C_2  and  N_3
REMARK    3  A    between atoms: C_2  and  C_21
REMARK    4  A    between atoms: N_3  and  C_4
REMARK    5  A    between atoms: C_4  and  C_5
REMARK    6  A    between atoms: C_8  and  C_9
REMARK    7  A    between atoms: C_9  and  O_10
REMARK    8  A    between atoms: C_9  and  C_11
REMARK    9  A    between atoms: C_11  and  N_12
REMARK                            x       y       z     vdW  Elec       q    Type
REMARK                         _______ _______ _______ _____ _____    ______ ____
ROOT
ATOM      1  C   UNL     1      47.191   6.013  12.907  0.00  0.00    +0.000 A 
ATOM      2  C   UNL     1      46.497   4.965  13.497  0.00  0.00    +0.000 A 
ATOM      3  C   UNL     1      45.400   4.427  12.831  0.00  0.00    +0.000 A 
ATOM      4  C   UNL     1      45.004   4.937  11.589  0.00  0.00    +0.000 A 
ATOM      5  C   UNL     1      45.762   5.985  11.078  0.00  0.00    +0.000 A 
ATOM      6  N   UNL     1      46.839   6.520  11.698  0.00  0.00    +0.000 NA
ENDROOT
BRANCH   1   7
ATOM      7  C   UNL     1      48.420   6.580  13.591  0.00  0.00    +0.000 C 
BRANCH   7   8
ATOM      8  N   UNL     1      48.565   6.126  14.976  0.00  0.00    +0.000 NA
ATOM      9  H   UNL     1      48.846   5.148  14.983  0.00  0.00    +0.000 HD
BRANCH   8  11
ATOM     10  C   UNL     1      49.712   8.330  15.171  0.00  0.00    +0.000 C 
ATOM     11  C   UNL     1      49.522   6.920  15.752  0.00  0.00    +0.000 C 
BRANCH  11  12
ATOM     12  C   UNL     1      48.981   6.992  17.168  0.00  0.00    +0.000 A 
ATOM     13  C   UNL     1      48.453   8.144  17.727  0.00  0.00    +0.000 A 
ATOM     14  S   UNL     1      47.977   7.963  19.353  0.00  0.00    +0.000 S 
ATOM     15  C   UNL     1      48.444   6.327  19.364  0.00  0.00    +0.000 A 
ATOM     16  N   UNL     1      48.317   5.573  20.490  0.00  0.00    +0.000 NA
ATOM     17  C   UNL     1      48.707   4.349  20.354  0.00  0.00    +0.000 A 
ATOM     18  N   UNL     1      49.204   3.809  19.195  0.00  0.00    +0.000 N 
ATOM     19  C   UNL     1      49.335   4.526  18.025  0.00  0.00    +0.000 A 
ATOM     20  O   UNL     1      49.744   3.998  16.997  0.00  0.00    +0.000 OA
ATOM     21  C   UNL     1      48.938   5.920  18.137  0.00  0.00    +0.000 A 
ATOM     22  H   UNL     1      49.471   2.837  19.155  0.00  0.00    +0.000 HD
ENDBRANCH  11  12
ENDBRANCH   8  11
ENDBRANCH   7   8
ENDBRANCH   1   7
BRANCH   4  23
ATOM     23  C   UNL     1      43.814   4.423  10.807  0.00  0.00    +0.000 C 
BRANCH  23  24
ATOM     24  O   UNL     1      43.193   5.522  10.122  0.00  0.00    +0.000 OA
ATOM     25  H   UNL     1      43.817   6.269  10.151  0.00  0.00    +0.000 HD
ENDBRANCH  23  24
BRANCH  23  26
ATOM     26  C   UNL     1      44.178   3.338   9.772  0.00  0.00    +0.000 C 
BRANCH  26  27
ATOM     27  N   UNL     1      44.768   3.909   8.558  0.00  0.00    +0.000 N 
ATOM     28  C   UNL     1      45.679   3.023   7.948  0.00  0.00    +0.000 A 
ATOM     29  C   UNL     1      46.336   3.436   6.795  0.00  0.00    +0.000 A 
ATOM     30  C   UNL     1      47.216   2.561   6.160  0.00  0.00    +0.000 A 
ATOM     31  C   UNL     1      47.419   1.295   6.690  0.00  0.00    +0.000 A 
ATOM     32  C   UNL     1      46.721   0.956   7.832  0.00  0.00    +0.000 A 
ATOM     33  N   UNL     1      45.862   1.783   8.459  0.00  0.00    +0.000 NA
ATOM     34  H   UNL     1      45.228   4.797   8.755  0.00  0.00    +0.000 HD
ENDBRANCH  26  27
ENDBRANCH  23  26
ENDBRANCH   4  23
TORSDOF 8
ENDMDL
MODEL 4
REMARK VINA RESULT:    -8.514      1.534      2.136
REMARK INTER + INTRA:         -12.901
REMARK INTER:                 -12.089
REMARK INTRA:                  -0.811
REMARK UNBOUND:                -0.653
REMARK  Name = 
REMARK  9 active torsions:
REMARK  status: ('A' for Active; 'I' for Inactive)
REMARK    1  A    between atoms: C_1  and  C_2
REMARK    2  A    between atoms: C_2  and  N_3
REMARK    3  A    between atoms: C_2  and  C_21
REMARK    4  A    between atoms: N_3  and  C_4
REMARK    5  A    between atoms: C_4  and  C_5
REMARK    6  A    between atoms: C_8  and  C_9
REMARK    7  A    between atoms: C_9  and  O_10
REMARK    8  A    between atoms: C_9  and  C_11
REMARK    9  A    between atoms: C_11  and  N_12
REMARK                            x       y       z     vdW  Elec       q    Type
REMARK                         _______ _______ _______ _____ _____    ______ ____
ROOT
ATOM      1  C   UNL     1      46.578   4.975  13.779  0.00  0.00    +0.000 A 
ATOM      2  C   UNL     1      46.590   5.971  12.812  0.00  0.00    +0.000 A 
ATOM      3  C   UNL     1      45.641   5.934  11.796  0.00  0.00    +0.000 A 
ATOM      4  C   UNL     1      44.693   4.905  11.749  0.00  0.00    +0.000 A 
ATOM      5  C   UNL     1      44.759   3.953  12.761  0.00  0.00    +0.000 A 
ATOM      6  N   UNL     1      45.663   3.972  13.767  0.00  0.00    +0.000 NA
ENDROOT
BRANCH   1   7
ATOM      7  C   UNL     1      47.570   5.026  14.924  0.00  0.00    +0.000 C 
BRANCH   7   8
ATOM      8  N   UNL     1      47.852   3.707  15.495  0.00  0.00    +0.000 NA
ATOM      9  H   UNL     1      48.668   3.307  15.036  0.00  0.00    +0.000 HD
BRANCH   8  11
ATOM     10  C   UNL     1      47.075   2.825  17.692  0.00  0.00    +0.000 C 
ATOM     11  C   UNL     1      48.065   3.732  16.945  0.00  0.00    +0.000 C 
BRANCH  11  12
ATOM     12  C   UNL     1      49.493   3.279  17.184  0.00  0.00    +0.000 A 
ATOM     13  C   UNL     1      49.917   1.970  17.021  0.00  0.00    +0.000 A 
ATOM     14  S   UNL     1      51.556   1.724  17.418  0.00  0.00    +0.000 S 
ATOM     15  C   UNL     1      51.764   3.368  17.806  0.00  0.00    +0.000 A 
ATOM     16  N   UNL     1      52.964   3.834  18.248  0.00  0.00    +0.000 NA
ATOM     17  C   UNL     1      52.980   5.101  18.501  0.00  0.00    +0.000 A 
ATOM     18  N   UNL     1      51.909   5.944  18.346  0.00  0.00    +0.000 N 
ATOM     19  C   UNL     1      50.680   5.524  17.885  0.00  0.00    +0.000 A 
ATOM     20  O   UNL     1      49.758   6.316  17.719  0.00  0.00    +0.000 OA
ATOM     21  C   UNL     1      50.604   4.098  17.616  0.00  0.00    +0.000 A 
ATOM     22  H   UNL     1      51.999   6.929  18.544  0.00  0.00    +0.000 HD
ENDBRANCH  11  12
ENDBRANCH   8  11
ENDBRANCH   7   8
ENDBRANCH   1   7
BRANCH   4  23
ATOM     23  C   UNL     1      43.639   4.778  10.670  0.00  0.00    +0.000 C 
BRANCH  23  24
ATOM     24  O   UNL     1      42.985   6.046  10.501  0.00  0.00    +0.000 OA
ATOM     25  H   UNL     1      42.045   5.915  10.714  0.00  0.00    +0.000 HD
ENDBRANCH  23  24
BRANCH  23  26
ATOM     26  C   UNL     1      44.202   4.327   9.306  0.00  0.00    +0.000 C 
BRANCH  26  27
ATOM     27  N   UNL     1      44.722   2.958   9.349  0.00  0.00    +0.000 N 
ATOM     28  C   UNL     1      45.623   2.703   8.295  0.00  0.00    +0.000 A 
ATOM     29  C   UNL     1      46.182   1.435   8.192  0.00  0.00    +0.000 A 
ATOM     30  C   UNL     1      47.100   1.174   7.176  0.00  0.00    +0.000 A 
ATOM     31  C   UNL     1      47.437   2.184   6.287  0.00  0.00    +0.000 A 
ATOM     32  C   UNL     1      46.846   3.420   6.462  0.00  0.00    +0.000 A 
ATOM     33  N   UNL     1      45.961   3.695   7.440  0.00  0.00    +0.000 NA
ATOM     34  H   UNL     1      43.964   2.276   9.330  0.00  0.00    +0.000 HD
ENDBRANCH  26  27
ENDBRANCH  23  26
ENDBRANCH   4  23
TORSDOF 8
ENDMDL
MODEL 5
REMARK VINA RESULT:    -8.315      2.023      3.055
REMARK INTER + INTRA:         -12.613
REMARK INTER:                 -11.425
REMARK INTRA:                  -1.188
REMARK UNBOUND:                -0.653
REMARK  Name = 
REMARK  9 active torsions:
REMARK  status: ('A' for Active; 'I' for Inactive)
REMARK    1  A    between atoms: C_1  and  C_2
REMARK    2  A    between atoms: C_2  and  N_3
REMARK    3  A    between atoms: C_2  and  C_21
REMARK    4  A    between atoms: N_3  and  C_4
REMARK    5  A    between atoms: C_4  and  C_5
REMARK    6  A    between atoms: C_8  and  C_9
REMARK    7  A    between atoms: C_9  and  O_10
REMARK    8  A    between atoms: C_9  and  C_11
REMARK    9  A    between atoms: C_11  and  N_12
REMARK                            x       y       z     vdW  Elec       q    Type
REMARK                         _______ _______ _______ _____ _____    ______ ____
ROOT
ATOM      1  C   UNL     1      46.932   3.838  14.024  0.00  0.00    +0.000 A 
ATOM      2  C   UNL     1      46.735   5.210  13.955  0.00  0.00    +0.000 A 
ATOM      3  C   UNL     1      45.791   5.709  13.063  0.00  0.00    +0.000 A 
ATOM      4  C   UNL     1      45.058   4.841  12.247  0.00  0.00    +0.000 A 
ATOM      5  C   UNL     1      45.323   3.483  12.387  0.00  0.00    +0.000 A 
ATOM      6  N   UNL     1      46.227   2.970  13.255  0.00  0.00    +0.000 NA
ENDROOT
BRANCH   1   7
ATOM      7  C   UNL     1      47.918   3.268  15.025  0.00  0.00    +0.000 C 
BRANCH   7   8
ATOM      8  N   UNL     1      47.456   3.380  16.410  0.00  0.00    +0.000 NA
ATOM      9  H   UNL     1      46.721   2.697  16.578  0.00  0.00    +0.000 HD
BRANCH   8  11
ATOM     10  C   UNL     1      49.522   2.110  16.986  0.00  0.00    +0.000 C 
ATOM     11  C   UNL     1      48.526   3.206  17.397  0.00  0.00    +0.000 C 
BRANCH  11  12
ATOM     12  C   UNL     1      49.226   4.546  17.522  0.00  0.00    +0.000 A 
ATOM     13  C   UNL     1      50.543   4.759  17.148  0.00  0.00    +0.000 A 
ATOM     14  S   UNL     1      51.097   6.341  17.456  0.00  0.00    +0.000 S 
ATOM     15  C   UNL     1      49.586   6.806  18.086  0.00  0.00    +0.000 A 
ATOM     16  N   UNL     1      49.385   8.066  18.559  0.00  0.00    +0.000 NA
ATOM     17  C   UNL     1      48.192   8.281  19.004  0.00  0.00    +0.000 A 
ATOM     18  N   UNL     1      47.180   7.355  19.010  0.00  0.00    +0.000 N 
ATOM     19  C   UNL     1      47.328   6.073  18.526  0.00  0.00    +0.000 A 
ATOM     20  O   UNL     1      46.388   5.286  18.510  0.00  0.00    +0.000 OA
ATOM     21  C   UNL     1      48.666   5.774  18.043  0.00  0.00    +0.000 A 
ATOM     22  H   UNL     1      46.263   7.599  19.355  0.00  0.00    +0.000 HD
ENDBRANCH  11  12
ENDBRANCH   8  11
ENDBRANCH   7   8
ENDBRANCH   1   7
BRANCH   4  23
ATOM     23  C   UNL     1      44.027   5.301  11.238  0.00  0.00    +0.000 C 
BRANCH  23  24
ATOM     24  O   UNL     1      44.380   6.612  10.771  0.00  0.00    +0.000 OA
ATOM     25  H   UNL     1      44.407   6.573   9.798  0.00  0.00    +0.000 HD
ENDBRANCH  23  24
BRANCH  23  26
ATOM     26  C   UNL     1      43.892   4.362  10.022  0.00  0.00    +0.000 C 
BRANCH  26  27
ATOM     27  N   UNL     1      44.774   4.756   8.920  0.00  0.00    +0.000 N 
ATOM     28  C   UNL     1      45.508   3.664   8.417  0.00  0.00    +0.000 A 
ATOM     29  C   UNL     1      46.406   3.888   7.380  0.00  0.00    +0.000 A 
ATOM     30  C   UNL     1      47.118   2.814   6.848  0.00  0.00    +0.000 A 
ATOM     31  C   UNL     1      46.916   1.541   7.362  0.00  0.00    +0.000 A 
ATOM     32  C   UNL     1      45.999   1.399   8.385  0.00  0.00    +0.000 A 
ATOM     33  N   UNL     1      45.297   2.422   8.910  0.00  0.00    +0.000 NA
ATOM     34  H   UNL     1      45.410   5.499   9.206  0.00  0.00    +0.000 HD
ENDBRANCH  26  27
ENDBRANCH  23  26
ENDBRANCH   4  23
TORSDOF 8
ENDMDL
MODEL 6
REMARK VINA RESULT:    -7.957      2.743      3.747
REMARK INTER + INTRA:         -12.098
REMARK INTER:                 -11.435
REMARK INTRA:                  -0.663
REMARK UNBOUND:                -0.653
REMARK  Name = 
REMARK  9 active torsions:
REMARK  status: ('A' for Active; 'I' for Inactive)
REMARK    1  A    between atoms: C_1  and  C_2
REMARK    2  A    between atoms: C_2  and  N_3
REMARK    3  A    between atoms: C_2  and  C_21
REMARK    4  A    between atoms: N_3  and  C_4
REMARK    5  A    between atoms: C_4  and  C_5
REMARK    6  A    between atoms: C_8  and  C_9
REMARK    7  A    between atoms: C_9  and  O_10
REMARK    8  A    between atoms: C_9  and  C_11
REMARK    9  A    between atoms: C_11  and  N_12
REMARK                            x       y       z     vdW  Elec       q    Type
REMARK                         _______ _______ _______ _____ _____    ______ ____
ROOT
ATOM      1  C   UNL     1      46.835   6.165  12.950  0.00  0.00    +0.000 A 
ATOM      2  C   UNL     1      46.354   6.417  11.673  0.00  0.00    +0.000 A 
ATOM      3  C   UNL     1      45.436   5.533  11.113  0.00  0.00    +0.000 A 
ATOM      4  C   UNL     1      45.011   4.407  11.827  0.00  0.00    +0.000 A 
ATOM      5  C   UNL     1      45.547   4.239  13.100  0.00  0.00    +0.000 A 
ATOM      6  N   UNL     1      46.431   5.089  13.672  0.00  0.00    +0.000 NA
ENDROOT
BRANCH   1   7
ATOM      7  C   UNL     1      47.796   7.142  13.599  0.00  0.00    +0.000 C 
BRANCH   7   8
ATOM      8  N   UNL     1      47.874   6.987  15.053  0.00  0.00    +0.000 NA
ATOM      9  H   UNL     1      47.114   6.389  15.371  0.00  0.00    +0.000 HD
BRANCH   8  11
ATOM     10  C   UNL     1      50.311   7.436  15.316  0.00  0.00    +0.000 C 
ATOM     11  C   UNL     1      49.156   6.442  15.513  0.00  0.00    +0.000 C 
BRANCH  11  12
ATOM     12  C   UNL     1      48.982   6.104  16.982  0.00  0.00    +0.000 A 
ATOM     13  C   UNL     1      49.276   4.862  17.521  0.00  0.00    +0.000 A 
ATOM     14  S   UNL     1      48.928   4.735  19.184  0.00  0.00    +0.000 S 
ATOM     15  C   UNL     1      48.387   6.347  19.249  0.00  0.00    +0.000 A 
ATOM     16  N   UNL     1      47.921   6.880  20.411  0.00  0.00    +0.000 NA
ATOM     17  C   UNL     1      47.547   8.113  20.316  0.00  0.00    +0.000 A 
ATOM     18  N   UNL     1      47.606   8.863  19.169  0.00  0.00    +0.000 N 
ATOM     19  C   UNL     1      48.086   8.375  17.973  0.00  0.00    +0.000 A 
ATOM     20  O   UNL     1      48.163   9.089  16.979  0.00  0.00    +0.000 OA
ATOM     21  C   UNL     1      48.490   6.979  18.023  0.00  0.00    +0.000 A 
ATOM     22  H   UNL     1      47.315   9.829  19.172  0.00  0.00    +0.000 HD
ENDBRANCH  11  12
ENDBRANCH   8  11
ENDBRANCH   7   8
ENDBRANCH   1   7
BRANCH   4  23
ATOM     23  C   UNL     1      44.031   3.386  11.288  0.00  0.00    +0.000 C 
BRANCH  23  24
ATOM     24  O   UNL     1      42.693   3.830  11.561  0.00  0.00    +0.000 OA
ATOM     25  H   UNL     1      42.235   3.909  10.706  0.00  0.00    +0.000 HD
ENDBRANCH  23  24
BRANCH  23  26
ATOM     26  C   UNL     1      44.169   3.139   9.772  0.00  0.00    +0.000 C 
BRANCH  26  27
ATOM     27  N   UNL     1      44.963   1.944   9.477  0.00  0.00    +0.000 N 
ATOM     28  C   UNL     1      45.769   2.115   8.333  0.00  0.00    +0.000 A 
ATOM     29  C   UNL     1      46.564   1.054   7.916  0.00  0.00    +0.000 A 
ATOM     30  C   UNL     1      47.391   1.215   6.806  0.00  0.00    +0.000 A 
ATOM     31  C   UNL     1      47.406   2.432   6.138  0.00  0.00    +0.000 A 
ATOM     32  C   UNL     1      46.595   3.440   6.620  0.00  0.00    +0.000 A 
ATOM     33  N   UNL     1      45.792   3.308   7.694  0.00  0.00    +0.000 NA
ATOM     34  H   UNL     1      44.367   1.125   9.362  0.00  0.00    +0.000 HD
ENDBRANCH  26  27
ENDBRANCH  23  26
ENDBRANCH   4  23
TORSDOF 8
ENDMDL
MODEL 7
REMARK VINA RESULT:    -7.833      1.976      2.393
REMARK INTER + INTRA:         -11.920
REMARK INTER:                 -11.082
REMARK INTRA:                  -0.838
REMARK UNBOUND:                -0.653
REMARK  Name = 
REMARK  9 active torsions:
REMARK  status: ('A' for Active; 'I' for Inactive)
REMARK    1  A    between atoms: C_1  and  C_2
REMARK    2  A    between atoms: C_2  and  N_3
REMARK    3  A    between atoms: C_2  and  C_21
REMARK    4  A    between atoms: N_3  and  C_4
REMARK    5  A    between atoms: C_4  and  C_5
REMARK    6  A    between atoms: C_8  and  C_9
REMARK    7  A    between atoms: C_9  and  O_10
REMARK    8  A    between atoms: C_9  and  C_11
REMARK    9  A    between atoms: C_11  and  N_12
REMARK                            x       y       z     vdW  Elec       q    Type
REMARK                         _______ _______ _______ _____ _____    ______ ____
ROOT
ATOM      1  C   UNL     1      47.014   6.633  13.213  0.00  0.00    +0.000 A 
ATOM      2  C   UNL     1      46.165   7.570  12.641  0.00  0.00    +0.000 A 
ATOM      3  C   UNL     1      45.007   7.129  12.008  0.00  0.00    +0.000 A 
ATOM      4  C   UNL     1      44.708   5.763  11.948  0.00  0.00    +0.000 A 
ATOM      5  C   UNL     1      45.618   4.901  12.551  0.00  0.00    +0.000 A 
ATOM      6  N   UNL     1      46.745   5.303  13.183  0.00  0.00    +0.000 NA
ENDROOT
BRANCH   1   7
ATOM      7  C   UNL     1      48.255   7.095  13.952  0.00  0.00    +0.000 C 
BRANCH   7   8
ATOM      8  N   UNL     1      47.985   7.482  15.339  0.00  0.00    +0.000 NA
ATOM      9  H   UNL     1      47.286   6.857  15.734  0.00  0.00    +0.000 HD
BRANCH   8  11
ATOM     10  C   UNL     1      49.069   8.495  17.340  0.00  0.00    +0.000 C 
ATOM     11  C   UNL     1      49.180   7.486  16.187  0.00  0.00    +0.000 C 
BRANCH  11  12
ATOM     12  C   UNL     1      49.338   6.075  16.723  0.00  0.00    +0.000 A 
ATOM     13  C   UNL     1      48.270   5.229  16.976  0.00  0.00    +0.000 A 
ATOM     14  S   UNL     1      48.725   3.725  17.635  0.00  0.00    +0.000 S 
ATOM     15  C   UNL     1      50.375   4.143  17.588  0.00  0.00    +0.000 A 
ATOM     16  N   UNL     1      51.326   3.281  18.039  0.00  0.00    +0.000 NA
ATOM     17  C   UNL     1      52.534   3.727  17.941  0.00  0.00    +0.000 A 
ATOM     18  N   UNL     1      52.878   4.951  17.426  0.00  0.00    +0.000 N 
ATOM     19  C   UNL     1      51.954   5.851  16.940  0.00  0.00    +0.000 A 
ATOM     20  O   UNL     1      52.303   6.919  16.447  0.00  0.00    +0.000 OA
ATOM     21  C   UNL     1      50.575   5.406  17.058  0.00  0.00    +0.000 A 
ATOM     22  H   UNL     1      53.846   5.227  17.361  0.00  0.00    +0.000 HD
ENDBRANCH  11  12
ENDBRANCH   8  11
ENDBRANCH   7   8
ENDBRANCH   1   7
BRANCH   4  23
ATOM     23  C   UNL     1      43.481   5.197  11.264  0.00  0.00    +0.000 C 
BRANCH  23  24
ATOM     24  O   UNL     1      42.765   6.266  10.626  0.00  0.00    +0.000 OA
ATOM     25  H   UNL     1      43.250   7.090  10.813  0.00  0.00    +0.000 HD
ENDBRANCH  23  24
BRANCH  23  26
ATOM     26  C   UNL     1      43.804   4.119  10.210  0.00  0.00    +0.000 C 
BRANCH  26  27
ATOM     27  N   UNL     1      44.584   4.657   9.092  0.00  0.00    +0.000 N 
ATOM     28  C   UNL     1      45.389   3.670   8.488  0.00  0.00    +0.000 A 
ATOM     29  C   UNL     1      46.204   4.037   7.424  0.00  0.00    +0.000 A 
ATOM     30  C   UNL     1      46.983   3.068   6.794  0.00  0.00    +0.000 A 
ATOM     31  C   UNL     1      46.929   1.755   7.240  0.00  0.00    +0.000 A 
ATOM     32  C   UNL     1      46.087   1.468   8.296  0.00  0.00    +0.000 A 
ATOM     33  N   UNL     1      45.322   2.388   8.915  0.00  0.00    +0.000 NA
ATOM     34  H   UNL     1      45.163   5.441   9.391  0.00  0.00    +0.000 HD
ENDBRANCH  26  27
ENDBRANCH  23  26
ENDBRANCH   4  23
TORSDOF 8
ENDMDL
MODEL 8
REMARK VINA RESULT:    -7.761      2.133      2.732
REMARK INTER + INTRA:         -11.818
REMARK INTER:                 -11.128
REMARK INTRA:                  -0.690
REMARK UNBOUND:                -0.653
REMARK  Name = 
REMARK  9 active torsions:
REMARK  status: ('A' for Active; 'I' for Inactive)
REMARK    1  A    between atoms: C_1  and  C_2
REMARK    2  A    between atoms: C_2  and  N_3
REMARK    3  A    between atoms: C_2  and  C_21
REMARK    4  A    between atoms: N_3  and  C_4
REMARK    5  A    between atoms: C_4  and  C_5
REMARK    6  A    between atoms: C_8  and  C_9
REMARK    7  A    between atoms: C_9  and  O_10
REMARK    8  A    between atoms: C_9  and  C_11
REMARK    9  A    between atoms: C_11  and  N_12
REMARK                            x       y       z     vdW  Elec       q    Type
REMARK                         _______ _______ _______ _____ _____    ______ ____
ROOT
ATOM      1  C   UNL     1      47.124   5.921  13.110  0.00  0.00    +0.000 A 
ATOM      2  C   UNL     1      46.538   4.709  13.443  0.00  0.00    +0.000 A 
ATOM      3  C   UNL     1      45.459   4.254  12.691  0.00  0.00    +0.000 A 
ATOM      4  C   UNL     1      44.974   5.011  11.618  0.00  0.00    +0.000 A 
ATOM      5  C   UNL     1      45.627   6.211  11.359  0.00  0.00    +0.000 A 
ATOM      6  N   UNL     1      46.684   6.671  12.067  0.00  0.00    +0.000 NA
ENDROOT
BRANCH   1   7
ATOM      7  C   UNL     1      48.332   6.411  13.884  0.00  0.00    +0.000 C 
BRANCH   7   8
ATOM      8  N   UNL     1      47.977   7.058  15.149  0.00  0.00    +0.000 NA
ATOM      9  H   UNL     1      47.903   6.353  15.880  0.00  0.00    +0.000 HD
BRANCH   8  11
ATOM     10  C   UNL     1      48.382   8.959  16.708  0.00  0.00    +0.000 C 
ATOM     11  C   UNL     1      48.928   8.096  15.560  0.00  0.00    +0.000 C 
BRANCH  11  12
ATOM     12  C   UNL     1      50.197   7.380  15.984  0.00  0.00    +0.000 A 
ATOM     13  C   UNL     1      51.459   7.726  15.527  0.00  0.00    +0.000 A 
ATOM     14  S   UNL     1      52.701   6.717  16.112  0.00  0.00    +0.000 S 
ATOM     15  C   UNL     1      51.597   5.789  17.015  0.00  0.00    +0.000 A 
ATOM     16  N   UNL     1      52.018   4.725  17.751  0.00  0.00    +0.000 NA
ATOM     17  C   UNL     1      51.074   4.115  18.388  0.00  0.00    +0.000 A 
ATOM     18  N   UNL     1      49.751   4.476  18.362  0.00  0.00    +0.000 N 
ATOM     19  C   UNL     1      49.278   5.555  17.647  0.00  0.00    +0.000 A 
ATOM     20  O   UNL     1      48.094   5.873  17.682  0.00  0.00    +0.000 OA
ATOM     21  C   UNL     1      50.301   6.256  16.888  0.00  0.00    +0.000 A 
ATOM     22  H   UNL     1      49.069   3.965  18.902  0.00  0.00    +0.000 HD
ENDBRANCH  11  12
ENDBRANCH   8  11
ENDBRANCH   7   8
ENDBRANCH   1   7
BRANCH   4  23
ATOM     23  C   UNL     1      43.796   4.600  10.760  0.00  0.00    +0.000 C 
BRANCH  23  24
ATOM     24  O   UNL     1      42.889   5.708  10.647  0.00  0.00    +0.000 OA
ATOM     25  H   UNL     1      42.853   5.955   9.706  0.00  0.00    +0.000 HD
ENDBRANCH  23  24
BRANCH  23  26
ATOM     26  C   UNL     1      44.195   4.141   9.343  0.00  0.00    +0.000 C 
BRANCH  26  27
ATOM     27  N   UNL     1      44.826   2.819   9.347  0.00  0.00    +0.000 N 
ATOM     28  C   UNL     1      45.686   2.641   8.244  0.00  0.00    +0.000 A 
ATOM     29  C   UNL     1      46.340   1.423   8.102  0.00  0.00    +0.000 A 
ATOM     30  C   UNL     1      47.219   1.241   7.035  0.00  0.00    +0.000 A 
ATOM     31  C   UNL     1      47.424   2.278   6.137  0.00  0.00    +0.000 A 
ATOM     32  C   UNL     1      46.744   3.460   6.352  0.00  0.00    +0.000 A 
ATOM     33  N   UNL     1      45.895   3.660   7.379  0.00  0.00    +0.000 NA
ATOM     34  H   UNL     1      44.126   2.077   9.364  0.00  0.00    +0.000 HD
ENDBRANCH  26  27
ENDBRANCH  23  26
ENDBRANCH   4  23
TORSDOF 8
ENDMDL
MODEL 9
REMARK VINA RESULT:    -7.753      3.596      5.463
REMARK INTER + INTRA:         -11.806
REMARK INTER:                 -10.937
REMARK INTRA:                  -0.870
REMARK UNBOUND:                -0.653
REMARK  Name = 
REMARK  9 active torsions:
REMARK  status: ('A' for Active; 'I' for Inactive)
REMARK    1  A    between atoms: C_1  and  C_2
REMARK    2  A    between atoms: C_2  and  N_3
REMARK    3  A    between atoms: C_2  and  C_21
REMARK    4  A    between atoms: N_3  and  C_4
REMARK    5  A    between atoms: C_4  and  C_5
REMARK    6  A    between atoms: C_8  and  C_9
REMARK    7  A    between atoms: C_9  and  O_10
REMARK    8  A    between atoms: C_9  and  C_11
REMARK    9  A    between atoms: C_11  and  N_12
REMARK                            x       y       z     vdW  Elec       q    Type
REMARK                         _______ _______ _______ _____ _____    ______ ____
ROOT
ATOM      1  C   UNL     1      46.810   5.306  13.519  0.00  0.00    +0.000 A 
ATOM      2  C   UNL     1      46.305   6.239  12.624  0.00  0.00    +0.000 A 
ATOM      3  C   UNL     1      45.288   5.855  11.756  0.00  0.00    +0.000 A 
ATOM      4  C   UNL     1      44.786   4.549  11.785  0.00  0.00    +0.000 A 
ATOM      5  C   UNL     1      45.354   3.686  12.717  0.00  0.00    +0.000 A 
ATOM      6  N   UNL     1      46.336   4.036  13.580  0.00  0.00    +0.000 NA
ENDROOT
BRANCH   1   7
ATOM      7  C   UNL     1      47.884   5.717  14.509  0.00  0.00    +0.000 C 
BRANCH   7   8
ATOM      8  N   UNL     1      49.050   6.327  13.867  0.00  0.00    +0.000 NA
ATOM      9  H   UNL     1      48.813   6.586  12.911  0.00  0.00    +0.000 HD
BRANCH   8  11
ATOM     10  C   UNL     1      50.622   7.121  15.630  0.00  0.00    +0.000 C 
ATOM     11  C   UNL     1      49.563   7.499  14.583  0.00  0.00    +0.000 C 
BRANCH  11  12
ATOM     12  C   UNL     1      50.152   8.426  13.536  0.00  0.00    +0.000 A 
ATOM     13  C   UNL     1      51.503   8.479  13.235  0.00  0.00    +0.000 A 
ATOM     14  S   UNL     1      51.901   9.654  12.066  0.00  0.00    +0.000 S 
ATOM     15  C   UNL     1      50.273  10.123  11.905  0.00  0.00    +0.000 A 
ATOM     16  N   UNL     1      49.916  11.124  11.055  0.00  0.00    +0.000 NA
ATOM     17  C   UNL     1      48.649  11.373  11.032  0.00  0.00    +0.000 A 
ATOM     18  N   UNL     1      47.706  10.707  11.773  0.00  0.00    +0.000 N 
ATOM     19  C   UNL     1      48.015   9.676  12.634  0.00  0.00    +0.000 A 
ATOM     20  O   UNL     1      47.140   9.075  13.248  0.00  0.00    +0.000 OA
ATOM     21  C   UNL     1      49.436   9.380  12.718  0.00  0.00    +0.000 A 
ATOM     22  H   UNL     1      46.728  10.941  11.689  0.00  0.00    +0.000 HD
ENDBRANCH  11  12
ENDBRANCH   8  11
ENDBRANCH   7   8
ENDBRANCH   1   7
BRANCH   4  23
ATOM     23  C   UNL     1      43.695   4.043  10.866  0.00  0.00    +0.000 C 
BRANCH  23  24
ATOM     24  O   UNL     1      43.078   5.163  10.210  0.00  0.00    +0.000 OA
ATOM     25  H   UNL     1      42.735   4.843   9.357  0.00  0.00    +0.000 HD
ENDBRANCH  23  24
BRANCH  23  26
ATOM     26  C   UNL     1      44.200   3.058   9.792  0.00  0.00    +0.000 C 
BRANCH  26  27
ATOM     27  N   UNL     1      44.792   3.750   8.644  0.00  0.00    +0.000 N 
ATOM     28  C   UNL     1      45.741   2.947   7.978  0.00  0.00    +0.000 A 
ATOM     29  C   UNL     1      46.404   3.478   6.878  0.00  0.00    +0.000 A 
ATOM     30  C   UNL     1      47.322   2.688   6.187  0.00  0.00    +0.000 A 
ATOM     31  C   UNL     1      47.556   1.388   6.610  0.00  0.00    +0.000 A 
ATOM     32  C   UNL     1      46.849   0.930   7.705  0.00  0.00    +0.000 A 
ATOM     33  N   UNL     1      45.953   1.674   8.383  0.00  0.00    +0.000 NA
ATOM     34  H   UNL     1      45.220   4.631   8.925  0.00  0.00    +0.000 HD
ENDBRANCH  26  27
ENDBRANCH  23  26
ENDBRANCH   4  23
TORSDOF 8
ENDMDL
