MODEL 1
REMARK VINA RESULT:    -9.390      0.000      0.000
REMARK INTER + INTRA:         -12.507
REMARK INTER:                 -11.585
REMARK INTRA:                  -0.922
REMARK UNBOUND:                -0.922
REMARK  Name = 
REMARK  4 active torsions:
REMARK  status: ('A' for Active; 'I' for Inactive)
REMARK    1  A    between atoms: C_2  and  C_4
REMARK    2  A    between atoms: N_8  and  C_9
REMARK    3  A    between atoms: C_9  and  C_10
REMARK    4  A    between atoms: C_14  and  C_15
REMARK                            x       y       z     vdW  Elec       q    Type
REMARK                         _______ _______ _______ _____ _____    ______ ____
ROOT
ATOM      1  C   UNL     1      43.405   4.825  11.028  0.00  0.00    +0.000 C 
ENDROOT
BRANCH   1   6
ATOM      2  C   UNL     1      46.370   2.274   7.705  0.00  0.00    +0.000 A 
ATOM      3  C   UNL     1      45.621   1.784   8.764  0.00  0.00    +0.000 A 
ATOM      4  C   UNL     1      44.756   2.643   9.446  0.00  0.00    +0.000 A 
ATOM      5  C   UNL     1      44.675   3.979   9.073  0.00  0.00    +0.000 A 
ATOM      6  N   UNL     1      43.798   4.875   9.637  0.00  0.00    +0.000 N 
ATOM      7  N   UNL     1      45.403   4.468   8.050  0.00  0.00    +0.000 NA
ATOM      8  C   UNL     1      46.239   3.619   7.395  0.00  0.00    +0.000 A 
ATOM      9  H   UNL     1      44.002   5.797   9.265  0.00  0.00    +0.000 HD
BRANCH   2  11
ATOM     10  N   UNL     1      48.405   2.049   6.401  0.00  0.00    +0.000 N 
ATOM     11  C   UNL     1      47.293   1.436   6.910  0.00  0.00    +0.000 C 
ATOM     12  O   UNL     1      47.092   0.244   6.735  0.00  0.00    +0.000 OA
ATOM     13  H   UNL     1      49.074   1.447   5.941  0.00  0.00    +0.000 HD
ATOM     14  H   UNL     1      48.737   2.944   6.732  0.00  0.00    +0.000 HD
ENDBRANCH   2  11
ENDBRANCH   1   6
BRANCH   1  15
ATOM     15  C   UNL     1      44.533   5.137  11.984  0.00  0.00    +0.000 A 
ATOM     16  C   UNL     1      45.018   4.167  12.869  0.00  0.00    +0.000 A 
ATOM     17  C   UNL     1      46.148   4.424  13.642  0.00  0.00    +0.000 A 
ATOM     18  C   UNL     1      46.822   5.642  13.521  0.00  0.00    +0.000 A 
ATOM     19  C   UNL     1      46.384   6.634  12.627  0.00  0.00    +0.000 A 
ATOM     20  C   UNL     1      45.209   6.368  11.895  0.00  0.00    +0.000 A 
BRANCH  19  21
ATOM     21  C   UNL     1      47.182   7.854  12.360  0.00  0.00    +0.000 A 
ATOM     22  C   UNL     1      48.530   7.762  11.964  0.00  0.00    +0.000 A 
ATOM     23  C   UNL     1      49.249   8.894  11.581  0.00  0.00    +0.000 A 
ATOM     24  F   UNL     1      50.520   8.759  11.183  0.00  0.00    +0.000 F 
ATOM     25  C   UNL     1      48.663  10.148  11.577  0.00  0.00    +0.000 A 
ATOM     26  C   UNL     1      47.346  10.260  11.991  0.00  0.00    +0.000 A 
ATOM     27  F   UNL     1      46.755  11.462  11.983  0.00  0.00    +0.000 F 
ATOM     28  C   UNL     1      46.612   9.141  12.391  0.00  0.00    +0.000 A 
ENDBRANCH  19  21
ENDBRANCH   1  15
TORSDOF 4
ENDMDL
MODEL 2
REMARK VINA RESULT:    -8.481      3.177      4.494
REMARK INTER + INTRA:         -11.386
REMARK INTER:                 -10.603
REMARK INTRA:                  -0.783
REMARK UNBOUND:                -0.922
REMARK  Name = 
REMARK  4 active torsions:
REMARK  status: ('A' for Active; 'I' for Inactive)
REMARK    1  A    between atoms: C_2  and  C_4
REMARK    2  A    between atoms: N_8  and  C_9
REMARK    3  A    between atoms: C_9  and  C_10
REMARK    4  A    between atoms: C_14  and  C_15
REMARK                            x       y       z     vdW  Elec       q    Type
REMARK                         _______ _______ _______ _____ _____    ______ ____
ROOT
ATOM      1  C   UNL     1      44.519   5.011  11.537  0.00  0.00    +0.000 C 
ENDROOT
BRANCH   1   6
ATOM      2  C   UNL     1      46.489   2.534   7.497  0.00  0.00    +0.000 A 
ATOM      3  C   UNL     1      46.020   2.018   8.696  0.00  0.00    +0.000 A 
ATOM      4  C   UNL     1      45.376   2.866   9.600  0.00  0.00    +0.000 A 
ATOM      5  C   UNL     1      45.234   4.215   9.300  0.00  0.00    +0.000 A 
ATOM      6  N   UNL     1      44.548   5.103  10.094  0.00  0.00    +0.000 N 
ATOM      7  N   UNL     1      45.691   4.729   8.140  0.00  0.00    +0.000 NA
ATOM      8  C   UNL     1      46.314   3.891   7.270  0.00  0.00    +0.000 A 
ATOM      9  H   UNL     1      44.672   6.034   9.710  0.00  0.00    +0.000 HD
BRANCH   2  11
ATOM     10  N   UNL     1      47.955   2.368   5.569  0.00  0.00    +0.000 N 
ATOM     11  C   UNL     1      47.162   1.711   6.469  0.00  0.00    +0.000 C 
ATOM     12  O   UNL     1      47.042   0.496   6.438  0.00  0.00    +0.000 OA
ATOM     13  H   UNL     1      48.483   1.787   4.933  0.00  0.00    +0.000 HD
ATOM     14  H   UNL     1      48.282   3.313   5.716  0.00  0.00    +0.000 HD
ENDBRANCH   2  11
ENDBRANCH   1   6
BRANCH   1  15
ATOM     15  C   UNL     1      45.758   5.564  12.202  0.00  0.00    +0.000 A 
ATOM     16  C   UNL     1      46.341   6.758  11.763  0.00  0.00    +0.000 A 
ATOM     17  C   UNL     1      47.396   7.327  12.473  0.00  0.00    +0.000 A 
ATOM     18  C   UNL     1      47.863   6.724  13.644  0.00  0.00    +0.000 A 
ATOM     19  C   UNL     1      47.290   5.538  14.135  0.00  0.00    +0.000 A 
ATOM     20  C   UNL     1      46.259   4.956  13.369  0.00  0.00    +0.000 A 
BRANCH  19  21
ATOM     21  C   UNL     1      47.653   4.983  15.460  0.00  0.00    +0.000 A 
ATOM     22  C   UNL     1      48.549   5.664  16.306  0.00  0.00    +0.000 A 
ATOM     23  C   UNL     1      48.793   5.221  17.605  0.00  0.00    +0.000 A 
ATOM     24  F   UNL     1      49.630   5.915  18.387  0.00  0.00    +0.000 F 
ATOM     25  C   UNL     1      48.164   4.096  18.109  0.00  0.00    +0.000 A 
ATOM     26  C   UNL     1      47.301   3.398  17.280  0.00  0.00    +0.000 A 
ATOM     27  F   UNL     1      46.672   2.314  17.750  0.00  0.00    +0.000 F 
ATOM     28  C   UNL     1      47.053   3.818  15.971  0.00  0.00    +0.000 A 
ENDBRANCH  19  21
ENDBRANCH   1  15
TORSDOF 4
ENDMDL
MODEL 3
REMARK VINA RESULT:    -8.055      5.204      8.166
REMARK INTER + INTRA:         -10.860
REMARK INTER:                 -10.339
REMARK INTRA:                  -0.521
REMARK UNBOUND:                -0.922
REMARK  Name = 
REMARK  4 active torsions:
REMARK  status: ('A' for Active; 'I' for Inactive)
REMARK    1  A    between atoms: C_2  and  C_4
REMARK    2  A    between atoms: N_8  and  C_9
REMARK    3  A    between atoms: C_9  and  C_10
REMARK    4  A    between atoms: C_14  and  C_15
REMARK                            x       y       z     vdW  Elec       q    Type
REMARK                         _______ _______ _______ _____ _____    ______ ____
ROOT
ATOM      1  C   UNL     1      46.122   5.379  13.604  0.00  0.00    +0.000 C 
ENDROOT
BRANCH   1   6
ATOM      2  C   UNL     1      49.393   4.159  17.365  0.00  0.00    +0.000 A 
ATOM      3  C   UNL     1      49.059   5.409  16.868  0.00  0.00    +0.000 A 
ATOM      4  C   UNL     1      48.019   5.522  15.942  0.00  0.00    +0.000 A 
ATOM      5  C   UNL     1      47.351   4.382  15.513  0.00  0.00    +0.000 A 
ATOM      6  N   UNL     1      46.269   4.407  14.664  0.00  0.00    +0.000 N 
ATOM      7  N   UNL     1      47.672   3.160  15.984  0.00  0.00    +0.000 NA
ATOM      8  C   UNL     1      48.685   3.067  16.885  0.00  0.00    +0.000 A 
ATOM      9  H   UNL     1      46.027   3.450  14.429  0.00  0.00    +0.000 HD
BRANCH   2  11
ATOM     10  N   UNL     1      50.205   4.347  19.645  0.00  0.00    +0.000 N 
ATOM     11  C   UNL     1      50.462   3.943  18.364  0.00  0.00    +0.000 C 
ATOM     12  O   UNL     1      51.517   3.403  18.071  0.00  0.00    +0.000 OA
ATOM     13  H   UNL     1      50.903   4.109  20.336  0.00  0.00    +0.000 HD
ATOM     14  H   UNL     1      49.273   4.551  19.978  0.00  0.00    +0.000 HD
ENDBRANCH   2  11
ENDBRANCH   1   6
BRANCH   1  15
ATOM     15  C   UNL     1      45.141   4.959  12.533  0.00  0.00    +0.000 A 
ATOM     16  C   UNL     1      43.832   5.453  12.519  0.00  0.00    +0.000 A 
ATOM     17  C   UNL     1      42.985   5.169  11.451  0.00  0.00    +0.000 A 
ATOM     18  C   UNL     1      43.445   4.410  10.371  0.00  0.00    +0.000 A 
ATOM     19  C   UNL     1      44.760   3.916  10.331  0.00  0.00    +0.000 A 
ATOM     20  C   UNL     1      45.579   4.174  11.450  0.00  0.00    +0.000 A 
BRANCH  19  21
ATOM     21  C   UNL     1      45.314   3.262   9.122  0.00  0.00    +0.000 A 
ATOM     22  C   UNL     1      45.731   4.026   8.016  0.00  0.00    +0.000 A 
ATOM     23  C   UNL     1      46.376   3.434   6.931  0.00  0.00    +0.000 A 
ATOM     24  F   UNL     1      46.783   4.202   5.912  0.00  0.00    +0.000 F 
ATOM     25  C   UNL     1      46.630   2.074   6.903  0.00  0.00    +0.000 A 
ATOM     26  C   UNL     1      46.201   1.303   7.972  0.00  0.00    +0.000 A 
ATOM     27  F   UNL     1      46.447  -0.014   7.971  0.00  0.00    +0.000 F 
ATOM     28  C   UNL     1      45.542   1.875   9.061  0.00  0.00    +0.000 A 
ENDBRANCH  19  21
ENDBRANCH   1  15
TORSDOF 4
ENDMDL
MODEL 4
REMARK VINA RESULT:    -8.008      4.411      7.541
REMARK INTER + INTRA:         -10.802
REMARK INTER:                 -10.684
REMARK INTRA:                  -0.118
REMARK UNBOUND:                -0.922
REMARK  Name = 
REMARK  4 active torsions:
REMARK  status: ('A' for Active; 'I' for Inactive)
REMARK    1  A    between atoms: C_2  and  C_4
REMARK    2  A    between atoms: N_8  and  C_9
REMARK    3  A    between atoms: C_9  and  C_10
REMARK    4  A    between atoms: C_14  and  C_15
REMARK                            x       y       z     vdW  Elec       q    Type
REMARK                         _______ _______ _______ _____ _____    ______ ____
ROOT
ATOM      1  C   UNL     1      45.357   7.056  11.480  0.00  0.00    +0.000 C 
ENDROOT
BRANCH   1   6
ATOM      2  C   UNL     1      47.769   5.124  15.578  0.00  0.00    +0.000 A 
ATOM      3  C   UNL     1      46.780   4.550  14.794  0.00  0.00    +0.000 A 
ATOM      4  C   UNL     1      46.374   5.195  13.624  0.00  0.00    +0.000 A 
ATOM      5  C   UNL     1      46.946   6.412  13.273  0.00  0.00    +0.000 A 
ATOM      6  N   UNL     1      46.662   7.078  12.103  0.00  0.00    +0.000 N 
ATOM      7  N   UNL     1      47.903   6.984  14.031  0.00  0.00    +0.000 NA
ATOM      8  C   UNL     1      48.289   6.342  15.165  0.00  0.00    +0.000 A 
ATOM      9  H   UNL     1      47.128   7.979  12.129  0.00  0.00    +0.000 HD
BRANCH   2  11
ATOM     10  N   UNL     1      47.373   4.271  17.816  0.00  0.00    +0.000 N 
ATOM     11  C   UNL     1      48.280   4.505  16.819  0.00  0.00    +0.000 C 
ATOM     12  O   UNL     1      49.453   4.188  16.945  0.00  0.00    +0.000 OA
ATOM     13  H   UNL     1      47.715   3.762  18.620  0.00  0.00    +0.000 HD
ATOM     14  H   UNL     1      46.375   4.274  17.659  0.00  0.00    +0.000 HD
ENDBRANCH   2  11
ENDBRANCH   1   6
BRANCH   1  15
ATOM     15  C   UNL     1      44.853   5.663  11.184  0.00  0.00    +0.000 A 
ATOM     16  C   UNL     1      43.665   5.189  11.749  0.00  0.00    +0.000 A 
ATOM     17  C   UNL     1      43.140   3.960  11.358  0.00  0.00    +0.000 A 
ATOM     18  C   UNL     1      43.785   3.201  10.377  0.00  0.00    +0.000 A 
ATOM     19  C   UNL     1      44.967   3.650   9.764  0.00  0.00    +0.000 A 
ATOM     20  C   UNL     1      45.503   4.873  10.217  0.00  0.00    +0.000 A 
BRANCH  19  21
ATOM     21  C   UNL     1      45.564   2.945   8.605  0.00  0.00    +0.000 A 
ATOM     22  C   UNL     1      45.946   3.652   7.449  0.00  0.00    +0.000 A 
ATOM     23  C   UNL     1      46.629   3.022   6.410  0.00  0.00    +0.000 A 
ATOM     24  F   UNL     1      47.000   3.739   5.341  0.00  0.00    +0.000 F 
ATOM     25  C   UNL     1      46.957   1.679   6.478  0.00  0.00    +0.000 A 
ATOM     26  C   UNL     1      46.564   0.962   7.596  0.00  0.00    +0.000 A 
ATOM     27  F   UNL     1      46.881  -0.336   7.689  0.00  0.00    +0.000 F 
ATOM     28  C   UNL     1      45.867   1.571   8.642  0.00  0.00    +0.000 A 
ENDBRANCH  19  21
ENDBRANCH   1  15
TORSDOF 4
ENDMDL
MODEL 5
REMARK VINA RESULT:    -7.963      4.319      7.390
REMARK INTER + INTRA:         -10.746
REMARK INTER:                  -9.977
REMARK INTRA:                  -0.769
REMARK UNBOUND:                -0.922
REMARK  Name = 
REMARK  4 active torsions:
REMARK  status: ('A' for Active; 'I' for Inactive)
REMARK    1  A    between atoms: C_2  and  C_4
REMARK    2  A    between atoms: N_8  and  C_9
REMARK    3  A    between atoms: C_9  and  C_10
REMARK    4  A    between atoms: C_14  and  C_15
REMARK                            x       y       z     vdW  Elec       q    Type
REMARK                         _______ _______ _______ _____ _____    ______ ____
ROOT
ATOM      1  C   UNL     1      44.679   6.969  11.730  0.00  0.00    +0.000 C 
ENDROOT
BRANCH   1   6
ATOM      2  C   UNL     1      49.571   7.938  12.942  0.00  0.00    +0.000 A 
ATOM      3  C   UNL     1      48.850   8.339  11.828  0.00  0.00    +0.000 A 
ATOM      4  C   UNL     1      47.476   8.093  11.777  0.00  0.00    +0.000 A 
ATOM      5  C   UNL     1      46.854   7.430  12.828  0.00  0.00    +0.000 A 
ATOM      6  N   UNL     1      45.498   7.215  12.896  0.00  0.00    +0.000 N 
ATOM      7  N   UNL     1      47.546   7.030  13.914  0.00  0.00    +0.000 NA
ATOM      8  C   UNL     1      48.882   7.278  13.949  0.00  0.00    +0.000 A 
ATOM      9  H   UNL     1      45.309   6.631  13.704  0.00  0.00    +0.000 HD
BRANCH   2  11
ATOM     10  N   UNL     1      51.584   7.832  14.295  0.00  0.00    +0.000 N 
ATOM     11  C   UNL     1      51.022   8.174  13.096  0.00  0.00    +0.000 C 
ATOM     12  O   UNL     1      51.701   8.628  12.188  0.00  0.00    +0.000 OA
ATOM     13  H   UNL     1      52.590   7.909  14.355  0.00  0.00    +0.000 HD
ATOM     14  H   UNL     1      51.124   7.226  14.961  0.00  0.00    +0.000 HD
ENDBRANCH   2  11
ENDBRANCH   1   6
BRANCH   1  15
ATOM     15  C   UNL     1      44.438   5.501  11.462  0.00  0.00    +0.000 A 
ATOM     16  C   UNL     1      43.418   4.805  12.120  0.00  0.00    +0.000 A 
ATOM     17  C   UNL     1      43.116   3.494  11.760  0.00  0.00    +0.000 A 
ATOM     18  C   UNL     1      43.813   2.872  10.720  0.00  0.00    +0.000 A 
ATOM     19  C   UNL     1      44.827   3.542  10.015  0.00  0.00    +0.000 A 
ATOM     20  C   UNL     1      45.146   4.850  10.435  0.00  0.00    +0.000 A 
BRANCH  19  21
ATOM     21  C   UNL     1      45.452   2.963   8.803  0.00  0.00    +0.000 A 
ATOM     22  C   UNL     1      45.797   3.779   7.710  0.00  0.00    +0.000 A 
ATOM     23  C   UNL     1      46.505   3.268   6.622  0.00  0.00    +0.000 A 
ATOM     24  F   UNL     1      46.840   4.086   5.616  0.00  0.00    +0.000 F 
ATOM     25  C   UNL     1      46.893   1.940   6.580  0.00  0.00    +0.000 A 
ATOM     26  C   UNL     1      46.537   1.117   7.635  0.00  0.00    +0.000 A 
ATOM     27  F   UNL     1      46.912  -0.169   7.621  0.00  0.00    +0.000 F 
ATOM     28  C   UNL     1      45.817   1.606   8.727  0.00  0.00    +0.000 A 
ENDBRANCH  19  21
ENDBRANCH   1  15
TORSDOF 4
ENDMDL
MODEL 6
REMARK VINA RESULT:    -7.907      2.670      3.887
REMARK INTER + INTRA:         -10.678
REMARK INTER:                 -10.103
REMARK INTRA:                  -0.575
REMARK UNBOUND:                -0.922
REMARK  Name = 
REMARK  4 active torsions:
REMARK  status: ('A' for Active; 'I' for Inactive)
REMARK    1  A    between atoms: C_2  and  C_4
REMARK    2  A    between atoms: N_8  and  C_9
REMARK    3  A    between atoms: C_9  and  C_10
REMARK    4  A    between atoms: C_14  and  C_15
REMARK                            x       y       z     vdW  Elec       q    Type
REMARK                         _______ _______ _______ _____ _____    ______ ____
ROOT
ATOM      1  C   UNL     1      43.587   3.636  11.149  0.00  0.00    +0.000 C 
ENDROOT
BRANCH   1   6
ATOM      2  C   UNL     1      46.690   2.496   7.224  0.00  0.00    +0.000 A 
ATOM      3  C   UNL     1      46.475   3.718   7.843  0.00  0.00    +0.000 A 
ATOM      4  C   UNL     1      45.701   3.770   9.003  0.00  0.00    +0.000 A 
ATOM      5  C   UNL     1      45.136   2.606   9.509  0.00  0.00    +0.000 A 
ATOM      6  N   UNL     1      44.425   2.553  10.685  0.00  0.00    +0.000 N 
ATOM      7  N   UNL     1      45.332   1.413   8.913  0.00  0.00    +0.000 NA
ATOM      8  C   UNL     1      46.090   1.378   7.785  0.00  0.00    +0.000 A 
ATOM      9  H   UNL     1      44.039   1.619  10.782  0.00  0.00    +0.000 HD
BRANCH   2  11
ATOM     10  N   UNL     1      47.332   3.257   5.010  0.00  0.00    +0.000 N 
ATOM     11  C   UNL     1      47.514   2.338   6.006  0.00  0.00    +0.000 C 
ATOM     12  O   UNL     1      48.342   1.446   5.901  0.00  0.00    +0.000 OA
ATOM     13  H   UNL     1      47.966   3.194   4.225  0.00  0.00    +0.000 HD
ATOM     14  H   UNL     1      46.862   4.138   5.157  0.00  0.00    +0.000 HD
ENDBRANCH   2  11
ENDBRANCH   1   6
BRANCH   1  15
ATOM     15  C   UNL     1      44.367   4.824  11.662  0.00  0.00    +0.000 A 
ATOM     16  C   UNL     1      43.975   6.132  11.357  0.00  0.00    +0.000 A 
ATOM     17  C   UNL     1      44.618   7.216  11.951  0.00  0.00    +0.000 A 
ATOM     18  C   UNL     1      45.642   7.005  12.878  0.00  0.00    +0.000 A 
ATOM     19  C   UNL     1      46.051   5.708  13.234  0.00  0.00    +0.000 A 
ATOM     20  C   UNL     1      45.419   4.631  12.578  0.00  0.00    +0.000 A 
BRANCH  19  21
ATOM     21  C   UNL     1      47.009   5.464  14.338  0.00  0.00    +0.000 A 
ATOM     22  C   UNL     1      47.966   6.435  14.689  0.00  0.00    +0.000 A 
ATOM     23  C   UNL     1      48.781   6.272  15.809  0.00  0.00    +0.000 A 
ATOM     24  F   UNL     1      49.659   7.234  16.125  0.00  0.00    +0.000 F 
ATOM     25  C   UNL     1      48.678   5.152  16.614  0.00  0.00    +0.000 A 
ATOM     26  C   UNL     1      47.760   4.174  16.266  0.00  0.00    +0.000 A 
ATOM     27  F   UNL     1      47.635   3.087  17.038  0.00  0.00    +0.000 F 
ATOM     28  C   UNL     1      46.944   4.311  15.142  0.00  0.00    +0.000 A 
ENDBRANCH  19  21
ENDBRANCH   1  15
TORSDOF 4
ENDMDL
MODEL 7
REMARK VINA RESULT:    -7.858      4.261      7.313
REMARK INTER + INTRA:         -10.617
REMARK INTER:                 -10.246
REMARK INTRA:                  -0.371
REMARK UNBOUND:                -0.922
REMARK  Name = 
REMARK  4 active torsions:
REMARK  status: ('A' for Active; 'I' for Inactive)
REMARK    1  A    between atoms: C_2  and  C_4
REMARK    2  A    between atoms: N_8  and  C_9
REMARK    3  A    between atoms: C_9  and  C_10
REMARK    4  A    between atoms: C_14  and  C_15
REMARK                            x       y       z     vdW  Elec       q    Type
REMARK                         _______ _______ _______ _____ _____    ______ ____
ROOT
ATOM      1  C   UNL     1      43.612   6.598  11.148  0.00  0.00    +0.000 C 
ENDROOT
BRANCH   1   6
ATOM      2  C   UNL     1      47.962   7.375  13.759  0.00  0.00    +0.000 A 
ATOM      3  C   UNL     1      47.224   6.210  13.616  0.00  0.00    +0.000 A 
ATOM      4  C   UNL     1      46.150   6.186  12.724  0.00  0.00    +0.000 A 
ATOM      5  C   UNL     1      45.818   7.332  12.012  0.00  0.00    +0.000 A 
ATOM      6  N   UNL     1      44.828   7.376  11.059  0.00  0.00    +0.000 N 
ATOM      7  N   UNL     1      46.524   8.472  12.147  0.00  0.00    +0.000 NA
ATOM      8  C   UNL     1      47.568   8.479  13.018  0.00  0.00    +0.000 A 
ATOM      9  H   UNL     1      44.718   8.340  10.759  0.00  0.00    +0.000 HD
BRANCH   2  11
ATOM     10  N   UNL     1      50.367   7.379  14.090  0.00  0.00    +0.000 N 
ATOM     11  C   UNL     1      49.129   7.489  14.660  0.00  0.00    +0.000 C 
ATOM     12  O   UNL     1      49.000   7.702  15.856  0.00  0.00    +0.000 OA
ATOM     13  H   UNL     1      51.155   7.553  14.698  0.00  0.00    +0.000 HD
ATOM     14  H   UNL     1      50.521   7.464  13.095  0.00  0.00    +0.000 HD
ENDBRANCH   2  11
ENDBRANCH   1   6
BRANCH   1  15
ATOM     15  C   UNL     1      43.844   5.107  11.064  0.00  0.00    +0.000 A 
ATOM     16  C   UNL     1      43.145   4.220  11.889  0.00  0.00    +0.000 A 
ATOM     17  C   UNL     1      43.263   2.845  11.704  0.00  0.00    +0.000 A 
ATOM     18  C   UNL     1      44.062   2.340  10.674  0.00  0.00    +0.000 A 
ATOM     19  C   UNL     1      44.762   3.195   9.805  0.00  0.00    +0.000 A 
ATOM     20  C   UNL     1      44.665   4.580  10.049  0.00  0.00    +0.000 A 
BRANCH  19  21
ATOM     21  C   UNL     1      45.469   2.685   8.607  0.00  0.00    +0.000 A 
ATOM     22  C   UNL     1      45.814   3.550   7.551  0.00  0.00    +0.000 A 
ATOM     23  C   UNL     1      46.595   3.109   6.483  0.00  0.00    +0.000 A 
ATOM     24  F   UNL     1      46.926   3.972   5.513  0.00  0.00    +0.000 F 
ATOM     25  C   UNL     1      47.059   1.806   6.423  0.00  0.00    +0.000 A 
ATOM     26  C   UNL     1      46.705   0.935   7.441  0.00  0.00    +0.000 A 
ATOM     27  F   UNL     1      47.153  -0.327   7.410  0.00  0.00    +0.000 F 
ATOM     28  C   UNL     1      45.913   1.353   8.512  0.00  0.00    +0.000 A 
ENDBRANCH  19  21
ENDBRANCH   1  15
TORSDOF 4
ENDMDL
MODEL 8
REMARK VINA RESULT:    -7.727      4.201      7.468
REMARK INTER + INTRA:         -10.456
REMARK INTER:                  -9.614
REMARK INTRA:                  -0.842
REMARK UNBOUND:                -0.922
REMARK  Name = 
REMARK  4 active torsions:
REMARK  status: ('A' for Active; 'I' for Inactive)
REMARK    1  A    between atoms: C_2  and  C_4
REMARK    2  A    between atoms: N_8  and  C_9
REMARK    3  A    between atoms: C_9  and  C_10
REMARK    4  A    between atoms: C_14  and  C_15
REMARK                            x       y       z     vdW  Elec       q    Type
REMARK                         _______ _______ _______ _____ _____    ______ ____
ROOT
ATOM      1  C   UNL     1      45.996   4.473  13.560  0.00  0.00    +0.000 C 
ENDROOT
BRANCH   1   6
ATOM      2  C   UNL     1      47.690   9.120  12.191  0.00  0.00    +0.000 A 
ATOM      3  C   UNL     1      46.586   8.783  12.958  0.00  0.00    +0.000 A 
ATOM      4  C   UNL     1      46.400   7.453  13.342  0.00  0.00    +0.000 A 
ATOM      5  C   UNL     1      47.306   6.483  12.932  0.00  0.00    +0.000 A 
ATOM      6  N   UNL     1      47.243   5.167  13.326  0.00  0.00    +0.000 N 
ATOM      7  N   UNL     1      48.380   6.798  12.180  0.00  0.00    +0.000 NA
ATOM      8  C   UNL     1      48.548   8.097  11.817  0.00  0.00    +0.000 A 
ATOM      9  H   UNL     1      47.952   4.649  12.817  0.00  0.00    +0.000 HD
BRANCH   2  11
ATOM     10  N   UNL     1      47.465  11.516  12.516  0.00  0.00    +0.000 N 
ATOM     11  C   UNL     1      47.983  10.503  11.757  0.00  0.00    +0.000 C 
ATOM     12  O   UNL     1      48.681  10.737  10.782  0.00  0.00    +0.000 OA
ATOM     13  H   UNL     1      47.750  12.452  12.265  0.00  0.00    +0.000 HD
ATOM     14  H   UNL     1      47.114  11.373  13.453  0.00  0.00    +0.000 HD
ENDBRANCH   2  11
ENDBRANCH   1   6
BRANCH   1  15
ATOM     15  C   UNL     1      45.129   4.360  12.328  0.00  0.00    +0.000 A 
ATOM     16  C   UNL     1      43.954   5.109  12.201  0.00  0.00    +0.000 A 
ATOM     17  C   UNL     1      43.241   5.101  11.004  0.00  0.00    +0.000 A 
ATOM     18  C   UNL     1      43.708   4.365   9.912  0.00  0.00    +0.000 A 
ATOM     19  C   UNL     1      44.897   3.619   9.987  0.00  0.00    +0.000 A 
ATOM     20  C   UNL     1      45.570   3.603  11.226  0.00  0.00    +0.000 A 
BRANCH  19  21
ATOM     21  C   UNL     1      45.496   2.977   8.793  0.00  0.00    +0.000 A 
ATOM     22  C   UNL     1      45.853   3.742   7.667  0.00  0.00    +0.000 A 
ATOM     23  C   UNL     1      46.538   3.171   6.594  0.00  0.00    +0.000 A 
ATOM     24  F   UNL     1      46.886   3.942   5.555  0.00  0.00    +0.000 F 
ATOM     25  C   UNL     1      46.890   1.833   6.599  0.00  0.00    +0.000 A 
ATOM     26  C   UNL     1      46.521   1.060   7.688  0.00  0.00    +0.000 A 
ATOM     27  F   UNL     1      46.863  -0.234   7.719  0.00  0.00    +0.000 F 
ATOM     28  C   UNL     1      45.824   1.609   8.765  0.00  0.00    +0.000 A 
ENDBRANCH  19  21
ENDBRANCH   1  15
TORSDOF 4
ENDMDL
MODEL 9
REMARK VINA RESULT:    -7.659      1.885      2.670
REMARK INTER + INTRA:         -10.372
REMARK INTER:                 -10.416
REMARK INTRA:                   0.044
REMARK UNBOUND:                -0.922
REMARK  Name = 
REMARK  4 active torsions:
REMARK  status: ('A' for Active; 'I' for Inactive)
REMARK    1  A    between atoms: C_2  and  C_4
REMARK    2  A    between atoms: N_8  and  C_9
REMARK    3  A    between atoms: C_9  and  C_10
REMARK    4  A    between atoms: C_14  and  C_15
REMARK                            x       y       z     vdW  Elec       q    Type
REMARK                         _______ _______ _______ _____ _____    ______ ____
ROOT
ATOM      1  C   UNL     1      43.477   3.482  11.024  0.00  0.00    +0.000 C 
ENDROOT
BRANCH   1   6
ATOM      2  C   UNL     1      46.693   2.516   7.143  0.00  0.00    +0.000 A 
ATOM      3  C   UNL     1      46.198   3.733   7.587  0.00  0.00    +0.000 A 
ATOM      4  C   UNL     1      45.455   3.779   8.768  0.00  0.00    +0.000 A 
ATOM      5  C   UNL     1      45.200   2.607   9.469  0.00  0.00    +0.000 A 
ATOM      6  N   UNL     1      44.544   2.570  10.678  0.00  0.00    +0.000 N 
ATOM      7  N   UNL     1      45.669   1.417   9.044  0.00  0.00    +0.000 NA
ATOM      8  C   UNL     1      46.393   1.389   7.893  0.00  0.00    +0.000 A 
ATOM      9  H   UNL     1      44.399   1.598  10.931  0.00  0.00    +0.000 HD
BRANCH   2  11
ATOM     10  N   UNL     1      47.335   3.313   4.941  0.00  0.00    +0.000 N 
ATOM     11  C   UNL     1      47.508   2.371   5.918  0.00  0.00    +0.000 C 
ATOM     12  O   UNL     1      48.323   1.471   5.790  0.00  0.00    +0.000 OA
ATOM     13  H   UNL     1      47.964   3.258   4.152  0.00  0.00    +0.000 HD
ATOM     14  H   UNL     1      46.878   4.199   5.110  0.00  0.00    +0.000 HD
ENDBRANCH   2  11
ENDBRANCH   1   6
BRANCH   1  15
ATOM     15  C   UNL     1      43.931   4.915  11.169  0.00  0.00    +0.000 A 
ATOM     16  C   UNL     1      43.018   5.973  11.105  0.00  0.00    +0.000 A 
ATOM     17  C   UNL     1      43.428   7.275  11.382  0.00  0.00    +0.000 A 
ATOM     18  C   UNL     1      44.752   7.532  11.751  0.00  0.00    +0.000 A 
ATOM     19  C   UNL     1      45.697   6.496  11.853  0.00  0.00    +0.000 A 
ATOM     20  C   UNL     1      45.266   5.196  11.517  0.00  0.00    +0.000 A 
BRANCH  19  21
ATOM     21  C   UNL     1      47.051   6.725  12.410  0.00  0.00    +0.000 A 
ATOM     22  C   UNL     1      48.045   7.367  11.647  0.00  0.00    +0.000 A 
ATOM     23  C   UNL     1      49.277   7.706  12.207  0.00  0.00    +0.000 A 
ATOM     24  F   UNL     1      50.184   8.343  11.455  0.00  0.00    +0.000 F 
ATOM     25  C   UNL     1      49.566   7.423  13.530  0.00  0.00    +0.000 A 
ATOM     26  C   UNL     1      48.609   6.766  14.286  0.00  0.00    +0.000 A 
ATOM     27  F   UNL     1      48.862   6.494  15.573  0.00  0.00    +0.000 F 
ATOM     28  C   UNL     1      47.374   6.406  13.742  0.00  0.00    +0.000 A 
ENDBRANCH  19  21
ENDBRANCH   1  15
TORSDOF 4
ENDMDL
