MODEL 1
REMARK VINA RESULT:    -9.444      0.000      0.000
REMARK INTER + INTRA:         -13.749
REMARK INTER:                 -13.032
REMARK INTRA:                  -0.717
REMARK UNBOUND:                -0.717
REMARK  Name = 
REMARK  7 active torsions:
REMARK  status: ('A' for Active; 'I' for Inactive)
REMARK    1  A    between atoms: C_2  and  C_4
REMARK    2  A    between atoms: N_8  and  C_9
REMARK    3  A    between atoms: C_9  and  C_10
REMARK    4  A    between atoms: C_10  and  C_13
REMARK    5  A    between atoms: C_15  and  N_16
REMARK    6  A    between atoms: N_16  and  C_17
REMARK    7  A    between atoms: C_19  and  O_20
REMARK                            x       y       z     vdW  Elec       q    Type
REMARK                         _______ _______ _______ _____ _____    ______ ____
ROOT
ATOM      1  C   UNL     1      43.345   5.522  12.164  0.00  0.00    +0.000 C 
ATOM      2  F   UNL     1      42.887   6.733  11.707  0.00  0.00    +0.000 F 
ATOM      3  F   UNL     1      42.480   5.185  13.164  0.00  0.00    +0.000 F 
ENDROOT
BRANCH   1   4
ATOM      4  C   UNL     1      44.775   5.611  12.638  0.00  0.00    +0.000 A 
ATOM      5  C   UNL     1      45.288   4.703  13.580  0.00  0.00    +0.000 A 
ATOM      6  C   UNL     1      46.616   4.788  14.031  0.00  0.00    +0.000 A 
ATOM      7  C   UNL     1      47.440   5.784  13.500  0.00  0.00    +0.000 A 
ATOM      8  C   UNL     1      46.937   6.704  12.576  0.00  0.00    +0.000 A 
ATOM      9  C   UNL     1      45.615   6.610  12.155  0.00  0.00    +0.000 A 
ATOM     10  F   UNL     1      45.156   7.507  11.273  0.00  0.00    +0.000 F 
BRANCH   6  11
ATOM     11  N   UNL     1      47.093   3.789  14.895  0.00  0.00    +0.000 N 
ATOM     12  H   UNL     1      46.649   2.883  14.774  0.00  0.00    +0.000 HD
BRANCH  11  13
ATOM     13  C   UNL     1      47.928   3.938  16.044  0.00  0.00    +0.000 C 
ATOM     14  C   UNL     1      48.386   2.579  16.608  0.00  0.00    +0.000 C 
ATOM     15  C   UNL     1      47.833   2.980  17.987  0.00  0.00    +0.000 C 
ATOM     16  C   UNL     1      47.106   4.163  17.328  0.00  0.00    +0.000 C 
BRANCH  15  17
ATOM     17  O   UNL     1      48.804   3.303  19.006  0.00  0.00    +0.000 OA
ATOM     18  H   UNL     1      48.675   4.242  19.210  0.00  0.00    +0.000 HD
ENDBRANCH  15  17
ENDBRANCH  11  13
ENDBRANCH   6  11
ENDBRANCH   1   4
BRANCH   1  19
ATOM     19  C   UNL     1      43.207   4.512  10.996  0.00  0.00    +0.000 C 
BRANCH  19  24
ATOM     20  C   UNL     1      46.291   2.077   7.903  0.00  0.00    +0.000 A 
ATOM     21  C   UNL     1      46.293   3.388   7.433  0.00  0.00    +0.000 A 
ATOM     22  C   UNL     1      45.514   4.343   8.089  0.00  0.00    +0.000 A 
ATOM     23  C   UNL     1      44.756   3.982   9.203  0.00  0.00    +0.000 A 
ATOM     24  N   UNL     1      43.932   4.950   9.782  0.00  0.00    +0.000 N 
ATOM     25  N   UNL     1      44.744   2.713   9.661  0.00  0.00    +0.000 NA
ATOM     26  C   UNL     1      45.497   1.790   9.002  0.00  0.00    +0.000 A 
ATOM     27  H   UNL     1      44.425   5.828   9.923  0.00  0.00    +0.000 HD
BRANCH  20  29
ATOM     28  N   UNL     1      46.781  -0.291   7.670  0.00  0.00    +0.000 N 
ATOM     29  C   UNL     1      47.057   0.987   7.266  0.00  0.00    +0.000 C 
ATOM     30  O   UNL     1      47.879   1.209   6.389  0.00  0.00    +0.000 OA
ATOM     31  H   UNL     1      47.247  -1.035   7.163  0.00  0.00    +0.000 HD
ATOM     32  H   UNL     1      45.959  -0.532   8.203  0.00  0.00    +0.000 HD
ENDBRANCH  20  29
ENDBRANCH  19  24
ENDBRANCH   1  19
TORSDOF 7
ENDMDL
MODEL 2
REMARK VINA RESULT:    -8.687      2.825      3.970
REMARK INTER + INTRA:         -12.705
REMARK INTER:                 -11.632
REMARK INTRA:                  -1.073
REMARK UNBOUND:                -0.717
REMARK  Name = 
REMARK  7 active torsions:
REMARK  status: ('A' for Active; 'I' for Inactive)
REMARK    1  A    between atoms: C_2  and  C_4
REMARK    2  A    between atoms: N_8  and  C_9
REMARK    3  A    between atoms: C_9  and  C_10
REMARK    4  A    between atoms: C_10  and  C_13
REMARK    5  A    between atoms: C_15  and  N_16
REMARK    6  A    between atoms: N_16  and  C_17
REMARK    7  A    between atoms: C_19  and  O_20
REMARK                            x       y       z     vdW  Elec       q    Type
REMARK                         _______ _______ _______ _____ _____    ______ ____
ROOT
ATOM      1  C   UNL     1      43.271   5.314  12.199  0.00  0.00    +0.000 C 
ATOM      2  F   UNL     1      42.791   6.567  11.905  0.00  0.00    +0.000 F 
ATOM      3  F   UNL     1      42.445   4.855  13.184  0.00  0.00    +0.000 F 
ENDROOT
BRANCH   1   4
ATOM      4  C   UNL     1      44.717   5.359  12.628  0.00  0.00    +0.000 A 
ATOM      5  C   UNL     1      45.420   6.574  12.694  0.00  0.00    +0.000 A 
ATOM      6  C   UNL     1      46.769   6.620  13.084  0.00  0.00    +0.000 A 
ATOM      7  C   UNL     1      47.403   5.426  13.440  0.00  0.00    +0.000 A 
ATOM      8  C   UNL     1      46.720   4.209  13.362  0.00  0.00    +0.000 A 
ATOM      9  C   UNL     1      45.389   4.186  12.959  0.00  0.00    +0.000 A 
ATOM     10  F   UNL     1      44.760   3.007  12.887  0.00  0.00    +0.000 F 
BRANCH   6  11
ATOM     11  N   UNL     1      47.382   7.875  13.225  0.00  0.00    +0.000 N 
ATOM     12  H   UNL     1      47.328   8.264  14.163  0.00  0.00    +0.000 HD
BRANCH  11  13
ATOM     13  C   UNL     1      47.848   8.753  12.200  0.00  0.00    +0.000 C 
ATOM     14  C   UNL     1      49.212   8.313  11.636  0.00  0.00    +0.000 C 
ATOM     15  C   UNL     1      49.774   9.713  11.935  0.00  0.00    +0.000 C 
ATOM     16  C   UNL     1      48.525  10.009  12.781  0.00  0.00    +0.000 C 
BRANCH  15  17
ATOM     17  O   UNL     1      50.009  10.574  10.801  0.00  0.00    +0.000 OA
ATOM     18  H   UNL     1      50.962  10.530  10.624  0.00  0.00    +0.000 HD
ENDBRANCH  15  17
ENDBRANCH  11  13
ENDBRANCH   6  11
ENDBRANCH   1   4
BRANCH   1  19
ATOM     19  C   UNL     1      43.093   4.447  10.927  0.00  0.00    +0.000 C 
BRANCH  19  24
ATOM     20  C   UNL     1      46.319   2.103   7.910  0.00  0.00    +0.000 A 
ATOM     21  C   UNL     1      46.389   3.438   7.521  0.00  0.00    +0.000 A 
ATOM     22  C   UNL     1      45.592   4.377   8.179  0.00  0.00    +0.000 A 
ATOM     23  C   UNL     1      44.749   3.975   9.215  0.00  0.00    +0.000 A 
ATOM     24  N   UNL     1      43.913   4.932   9.794  0.00  0.00    +0.000 N 
ATOM     25  N   UNL     1      44.671   2.682   9.593  0.00  0.00    +0.000 NA
ATOM     26  C   UNL     1      45.443   1.777   8.933  0.00  0.00    +0.000 A 
ATOM     27  H   UNL     1      44.418   5.785  10.021  0.00  0.00    +0.000 HD
BRANCH  20  29
ATOM     28  N   UNL     1      46.820  -0.258   7.634  0.00  0.00    +0.000 N 
ATOM     29  C   UNL     1      47.098   1.029   7.262  0.00  0.00    +0.000 C 
ATOM     30  O   UNL     1      47.933   1.272   6.402  0.00  0.00    +0.000 OA
ATOM     31  H   UNL     1      47.295  -0.990   7.118  0.00  0.00    +0.000 HD
ATOM     32  H   UNL     1      45.990  -0.513   8.148  0.00  0.00    +0.000 HD
ENDBRANCH  20  29
ENDBRANCH  19  24
ENDBRANCH   1  19
TORSDOF 7
ENDMDL
MODEL 3
REMARK VINA RESULT:    -8.384      1.894      8.322
REMARK INTER + INTRA:         -12.287
REMARK INTER:                 -11.743
REMARK INTRA:                  -0.544
REMARK UNBOUND:                -0.717
REMARK  Name = 
REMARK  7 active torsions:
REMARK  status: ('A' for Active; 'I' for Inactive)
REMARK    1  A    between atoms: C_2  and  C_4
REMARK    2  A    between atoms: N_8  and  C_9
REMARK    3  A    between atoms: C_9  and  C_10
REMARK    4  A    between atoms: C_10  and  C_13
REMARK    5  A    between atoms: C_15  and  N_16
REMARK    6  A    between atoms: N_16  and  C_17
REMARK    7  A    between atoms: C_19  and  O_20
REMARK                            x       y       z     vdW  Elec       q    Type
REMARK                         _______ _______ _______ _____ _____    ______ ____
ROOT
ATOM      1  C   UNL     1      45.422   5.859  12.551  0.00  0.00    +0.000 C 
ATOM      2  F   UNL     1      44.456   6.139  13.486  0.00  0.00    +0.000 F 
ATOM      3  F   UNL     1      45.671   7.058  11.949  0.00  0.00    +0.000 F 
ENDROOT
BRANCH   1   4
ATOM      4  C   UNL     1      44.963   4.803  11.576  0.00  0.00    +0.000 A 
ATOM      5  C   UNL     1      45.344   4.844  10.224  0.00  0.00    +0.000 A 
ATOM      6  C   UNL     1      44.912   3.868   9.310  0.00  0.00    +0.000 A 
ATOM      7  C   UNL     1      44.111   2.824   9.778  0.00  0.00    +0.000 A 
ATOM      8  C   UNL     1      43.710   2.780  11.116  0.00  0.00    +0.000 A 
ATOM      9  C   UNL     1      44.138   3.765  12.000  0.00  0.00    +0.000 A 
ATOM     10  F   UNL     1      43.735   3.704  13.275  0.00  0.00    +0.000 F 
BRANCH   6  11
ATOM     11  N   UNL     1      45.411   3.913   7.999  0.00  0.00    +0.000 N 
ATOM     12  H   UNL     1      44.714   4.131   7.292  0.00  0.00    +0.000 HD
BRANCH  11  13
ATOM     13  C   UNL     1      46.683   3.473   7.521  0.00  0.00    +0.000 C 
ATOM     14  C   UNL     1      46.722   3.372   5.983  0.00  0.00    +0.000 C 
ATOM     15  C   UNL     1      47.192   1.913   6.103  0.00  0.00    +0.000 C 
ATOM     16  C   UNL     1      46.829   1.941   7.597  0.00  0.00    +0.000 C 
BRANCH  15  17
ATOM     17  O   UNL     1      48.574   1.648   5.777  0.00  0.00    +0.000 OA
ATOM     18  H   UNL     1      48.693   1.940   4.859  0.00  0.00    +0.000 HD
ENDBRANCH  15  17
ENDBRANCH  11  13
ENDBRANCH   6  11
ENDBRANCH   1   4
BRANCH   1  19
ATOM     19  C   UNL     1      46.684   5.395  13.323  0.00  0.00    +0.000 C 
BRANCH  19  24
ATOM     20  C   UNL     1      48.908   4.721  17.751  0.00  0.00    +0.000 A 
ATOM     21  C   UNL     1      47.871   3.791  17.739  0.00  0.00    +0.000 A 
ATOM     22  C   UNL     1      47.038   3.721  16.621  0.00  0.00    +0.000 A 
ATOM     23  C   UNL     1      47.256   4.566  15.533  0.00  0.00    +0.000 A 
ATOM     24  N   UNL     1      46.354   4.516  14.467  0.00  0.00    +0.000 N 
ATOM     25  N   UNL     1      48.255   5.473  15.539  0.00  0.00    +0.000 NA
ATOM     26  C   UNL     1      49.048   5.540  16.642  0.00  0.00    +0.000 A 
ATOM     27  H   UNL     1      46.167   3.559  14.178  0.00  0.00    +0.000 HD
BRANCH  20  29
ATOM     28  N   UNL     1      50.885   4.033  18.984  0.00  0.00    +0.000 N 
ATOM     29  C   UNL     1      49.826   4.895  18.894  0.00  0.00    +0.000 C 
ATOM     30  O   UNL     1      49.671   5.793  19.709  0.00  0.00    +0.000 OA
ATOM     31  H   UNL     1      51.557   4.218  19.719  0.00  0.00    +0.000 HD
ATOM     32  H   UNL     1      51.181   3.446  18.218  0.00  0.00    +0.000 HD
ENDBRANCH  20  29
ENDBRANCH  19  24
ENDBRANCH   1  19
TORSDOF 7
ENDMDL
MODEL 4
REMARK VINA RESULT:    -8.182      3.188      3.792
REMARK INTER + INTRA:         -12.008
REMARK INTER:                 -11.170
REMARK INTRA:                  -0.838
REMARK UNBOUND:                -0.717
REMARK  Name = 
REMARK  7 active torsions:
REMARK  status: ('A' for Active; 'I' for Inactive)
REMARK    1  A    between atoms: C_2  and  C_4
REMARK    2  A    between atoms: N_8  and  C_9
REMARK    3  A    between atoms: C_9  and  C_10
REMARK    4  A    between atoms: C_10  and  C_13
REMARK    5  A    between atoms: C_15  and  N_16
REMARK    6  A    between atoms: N_16  and  C_17
REMARK    7  A    between atoms: C_19  and  O_20
REMARK                            x       y       z     vdW  Elec       q    Type
REMARK                         _______ _______ _______ _____ _____    ______ ____
ROOT
ATOM      1  C   UNL     1      43.694   5.017  12.220  0.00  0.00    +0.000 C 
ATOM      2  F   UNL     1      42.474   5.171  12.830  0.00  0.00    +0.000 F 
ATOM      3  F   UNL     1      44.304   4.020  12.924  0.00  0.00    +0.000 F 
ENDROOT
BRANCH   1   4
ATOM      4  C   UNL     1      44.486   6.302  12.227  0.00  0.00    +0.000 A 
ATOM      5  C   UNL     1      45.725   6.390  12.884  0.00  0.00    +0.000 A 
ATOM      6  C   UNL     1      46.462   7.586  12.902  0.00  0.00    +0.000 A 
ATOM      7  C   UNL     1      45.952   8.695  12.221  0.00  0.00    +0.000 A 
ATOM      8  C   UNL     1      44.712   8.626  11.579  0.00  0.00    +0.000 A 
ATOM      9  C   UNL     1      43.993   7.435  11.587  0.00  0.00    +0.000 A 
ATOM     10  F   UNL     1      42.806   7.397  10.969  0.00  0.00    +0.000 F 
BRANCH   6  11
ATOM     11  N   UNL     1      47.737   7.577  13.489  0.00  0.00    +0.000 N 
ATOM     12  H   UNL     1      47.813   8.136  14.334  0.00  0.00    +0.000 HD
BRANCH  11  13
ATOM     13  C   UNL     1      48.961   7.090  12.938  0.00  0.00    +0.000 C 
ATOM     14  C   UNL     1      50.158   7.992  13.298  0.00  0.00    +0.000 C 
ATOM     15  C   UNL     1      50.500   8.113  11.803  0.00  0.00    +0.000 C 
ATOM     16  C   UNL     1      49.132   7.500  11.463  0.00  0.00    +0.000 C 
BRANCH  15  17
ATOM     17  O   UNL     1      51.665   7.394  11.344  0.00  0.00    +0.000 OA
ATOM     18  H   UNL     1      52.416   7.754  11.842  0.00  0.00    +0.000 HD
ENDBRANCH  15  17
ENDBRANCH  11  13
ENDBRANCH   6  11
ENDBRANCH   1   4
BRANCH   1  19
ATOM     19  C   UNL     1      43.422   4.538  10.771  0.00  0.00    +0.000 C 
BRANCH  19  24
ATOM     20  C   UNL     1      46.531   2.513   7.419  0.00  0.00    +0.000 A 
ATOM     21  C   UNL     1      46.026   1.424   8.125  0.00  0.00    +0.000 A 
ATOM     22  C   UNL     1      45.113   1.651   9.156  0.00  0.00    +0.000 A 
ATOM     23  C   UNL     1      44.711   2.951   9.460  0.00  0.00    +0.000 A 
ATOM     24  N   UNL     1      43.855   3.141  10.548  0.00  0.00    +0.000 N 
ATOM     25  N   UNL     1      45.200   4.012   8.785  0.00  0.00    +0.000 NA
ATOM     26  C   UNL     1      46.101   3.776   7.793  0.00  0.00    +0.000 A 
ATOM     27  H   UNL     1      43.071   2.493  10.526  0.00  0.00    +0.000 HD
BRANCH  20  29
ATOM     28  N   UNL     1      47.368   3.200   5.244  0.00  0.00    +0.000 N 
ATOM     29  C   UNL     1      47.522   2.384   6.331  0.00  0.00    +0.000 C 
ATOM     30  O   UNL     1      48.462   1.606   6.410  0.00  0.00    +0.000 OA
ATOM     31  H   UNL     1      48.102   3.167   4.547  0.00  0.00    +0.000 HD
ATOM     32  H   UNL     1      46.761   4.007   5.246  0.00  0.00    +0.000 HD
ENDBRANCH  20  29
ENDBRANCH  19  24
ENDBRANCH   1  19
TORSDOF 7
ENDMDL
MODEL 5
REMARK VINA RESULT:    -8.107      1.618      7.512
REMARK INTER + INTRA:         -11.905
REMARK INTER:                 -11.645
REMARK INTRA:                  -0.259
REMARK UNBOUND:                -0.717
REMARK  Name = 
REMARK  7 active torsions:
REMARK  status: ('A' for Active; 'I' for Inactive)
REMARK    1  A    between atoms: C_2  and  C_4
REMARK    2  A    between atoms: N_8  and  C_9
REMARK    3  A    between atoms: C_9  and  C_10
REMARK    4  A    between atoms: C_10  and  C_13
REMARK    5  A    between atoms: C_15  and  N_16
REMARK    6  A    between atoms: N_16  and  C_17
REMARK    7  A    between atoms: C_19  and  O_20
REMARK                            x       y       z     vdW  Elec       q    Type
REMARK                         _______ _______ _______ _____ _____    ______ ____
ROOT
ATOM      1  C   UNL     1      45.552   6.674  11.842  0.00  0.00    +0.000 C 
ATOM      2  F   UNL     1      45.130   6.774  13.145  0.00  0.00    +0.000 F 
ATOM      3  F   UNL     1      45.080   7.805  11.244  0.00  0.00    +0.000 F 
ENDROOT
BRANCH   1   4
ATOM      4  C   UNL     1      45.042   5.414  11.187  0.00  0.00    +0.000 A 
ATOM      5  C   UNL     1      45.325   5.126   9.841  0.00  0.00    +0.000 A 
ATOM      6  C   UNL     1      44.845   3.958   9.224  0.00  0.00    +0.000 A 
ATOM      7  C   UNL     1      44.095   3.060   9.988  0.00  0.00    +0.000 A 
ATOM      8  C   UNL     1      43.791   3.342  11.322  0.00  0.00    +0.000 A 
ATOM      9  C   UNL     1      44.265   4.511  11.908  0.00  0.00    +0.000 A 
ATOM     10  F   UNL     1      43.956   4.761  13.187  0.00  0.00    +0.000 F 
BRANCH   6  11
ATOM     11  N   UNL     1      45.249   3.683   7.908  0.00  0.00    +0.000 N 
ATOM     12  H   UNL     1      44.482   3.540   7.256  0.00  0.00    +0.000 HD
BRANCH  11  13
ATOM     13  C   UNL     1      46.555   3.356   7.434  0.00  0.00    +0.000 C 
ATOM     14  C   UNL     1      46.592   3.195   5.902  0.00  0.00    +0.000 C 
ATOM     15  C   UNL     1      47.210   1.797   6.075  0.00  0.00    +0.000 C 
ATOM     16  C   UNL     1      46.856   1.850   7.571  0.00  0.00    +0.000 C 
BRANCH  15  17
ATOM     17  O   UNL     1      48.609   1.660   5.745  0.00  0.00    +0.000 OA
ATOM     18  H   UNL     1      49.086   2.244   6.355  0.00  0.00    +0.000 HD
ENDBRANCH  15  17
ENDBRANCH  11  13
ENDBRANCH   6  11
ENDBRANCH   1   4
BRANCH   1  19
ATOM     19  C   UNL     1      47.102   6.705  11.861  0.00  0.00    +0.000 C 
BRANCH  19  24
ATOM     20  C   UNL     1      47.874   4.070  16.041  0.00  0.00    +0.000 A 
ATOM     21  C   UNL     1      48.209   5.377  16.387  0.00  0.00    +0.000 A 
ATOM     22  C   UNL     1      48.104   6.381  15.423  0.00  0.00    +0.000 A 
ATOM     23  C   UNL     1      47.660   6.072  14.138  0.00  0.00    +0.000 A 
ATOM     24  N   UNL     1      47.643   7.091  13.183  0.00  0.00    +0.000 N 
ATOM     25  N   UNL     1      47.340   4.808  13.792  0.00  0.00    +0.000 NA
ATOM     26  C   UNL     1      47.462   3.837  14.738  0.00  0.00    +0.000 A 
ATOM     27  H   UNL     1      47.210   7.938  13.544  0.00  0.00    +0.000 HD
BRANCH  20  29
ATOM     28  N   UNL     1      46.914   2.708  17.809  0.00  0.00    +0.000 N 
ATOM     29  C   UNL     1      47.976   2.932  16.976  0.00  0.00    +0.000 C 
ATOM     30  O   UNL     1      48.953   2.196  16.985  0.00  0.00    +0.000 OA
ATOM     31  H   UNL     1      46.957   1.874  18.381  0.00  0.00    +0.000 HD
ATOM     32  H   UNL     1      46.009   3.133  17.669  0.00  0.00    +0.000 HD
ENDBRANCH  20  29
ENDBRANCH  19  24
ENDBRANCH   1  19
TORSDOF 7
ENDMDL
MODEL 6
REMARK VINA RESULT:    -8.016      2.097      2.619
REMARK INTER + INTRA:         -11.780
REMARK INTER:                 -11.032
REMARK INTRA:                  -0.747
REMARK UNBOUND:                -0.717
REMARK  Name = 
REMARK  7 active torsions:
REMARK  status: ('A' for Active; 'I' for Inactive)
REMARK    1  A    between atoms: C_2  and  C_4
REMARK    2  A    between atoms: N_8  and  C_9
REMARK    3  A    between atoms: C_9  and  C_10
REMARK    4  A    between atoms: C_10  and  C_13
REMARK    5  A    between atoms: C_15  and  N_16
REMARK    6  A    between atoms: N_16  and  C_17
REMARK    7  A    between atoms: C_19  and  O_20
REMARK                            x       y       z     vdW  Elec       q    Type
REMARK                         _______ _______ _______ _____ _____    ______ ____
ROOT
ATOM      1  C   UNL     1      43.764   5.055  12.362  0.00  0.00    +0.000 C 
ATOM      2  F   UNL     1      42.571   5.498  12.880  0.00  0.00    +0.000 F 
ATOM      3  F   UNL     1      44.061   3.943  13.094  0.00  0.00    +0.000 F 
ENDROOT
BRANCH   1   4
ATOM      4  C   UNL     1      44.836   6.114  12.451  0.00  0.00    +0.000 A 
ATOM      5  C   UNL     1      46.017   5.895  13.181  0.00  0.00    +0.000 A 
ATOM      6  C   UNL     1      47.014   6.880  13.275  0.00  0.00    +0.000 A 
ATOM      7  C   UNL     1      46.825   8.088  12.598  0.00  0.00    +0.000 A 
ATOM      8  C   UNL     1      45.647   8.326  11.884  0.00  0.00    +0.000 A 
ATOM      9  C   UNL     1      44.667   7.341  11.816  0.00  0.00    +0.000 A 
ATOM     10  F   UNL     1      43.546   7.595  11.131  0.00  0.00    +0.000 F 
BRANCH   6  11
ATOM     11  N   UNL     1      48.211   6.560  13.934  0.00  0.00    +0.000 N 
ATOM     12  H   UNL     1      48.618   5.671  13.654  0.00  0.00    +0.000 HD
BRANCH  11  13
ATOM     13  C   UNL     1      48.786   7.188  15.079  0.00  0.00    +0.000 C 
ATOM     14  C   UNL     1      50.316   7.330  14.956  0.00  0.00    +0.000 C 
ATOM     15  C   UNL     1      50.479   6.607  16.304  0.00  0.00    +0.000 C 
ATOM     16  C   UNL     1      49.000   6.193  16.236  0.00  0.00    +0.000 C 
BRANCH  15  17
ATOM     17  O   UNL     1      50.874   7.417  17.432  0.00  0.00    +0.000 OA
ATOM     18  H   UNL     1      51.720   7.052  17.740  0.00  0.00    +0.000 HD
ENDBRANCH  15  17
ENDBRANCH  11  13
ENDBRANCH   6  11
ENDBRANCH   1   4
BRANCH   1  19
ATOM     19  C   UNL     1      43.500   4.652  10.889  0.00  0.00    +0.000 C 
BRANCH  19  24
ATOM     20  C   UNL     1      46.476   2.546   7.466  0.00  0.00    +0.000 A 
ATOM     21  C   UNL     1      45.905   1.469   8.139  0.00  0.00    +0.000 A 
ATOM     22  C   UNL     1      45.008   1.719   9.179  0.00  0.00    +0.000 A 
ATOM     23  C   UNL     1      44.688   3.031   9.525  0.00  0.00    +0.000 A 
ATOM     24  N   UNL     1      43.846   3.238  10.620  0.00  0.00    +0.000 N 
ATOM     25  N   UNL     1      45.241   4.081   8.882  0.00  0.00    +0.000 NA
ATOM     26  C   UNL     1      46.125   3.821   7.881  0.00  0.00    +0.000 A 
ATOM     27  H   UNL     1      43.024   2.641  10.581  0.00  0.00    +0.000 HD
BRANCH  20  29
ATOM     28  N   UNL     1      47.350   3.247   5.310  0.00  0.00    +0.000 N 
ATOM     29  C   UNL     1      47.456   2.391   6.372  0.00  0.00    +0.000 C 
ATOM     30  O   UNL     1      48.349   1.557   6.425  0.00  0.00    +0.000 OA
ATOM     31  H   UNL     1      48.080   3.191   4.610  0.00  0.00    +0.000 HD
ATOM     32  H   UNL     1      46.792   4.088   5.338  0.00  0.00    +0.000 HD
ENDBRANCH  20  29
ENDBRANCH  19  24
ENDBRANCH   1  19
TORSDOF 7
ENDMDL
MODEL 7
REMARK VINA RESULT:    -8.010      3.535      5.192
REMARK INTER + INTRA:         -11.771
REMARK INTER:                 -11.701
REMARK INTRA:                  -0.071
REMARK UNBOUND:                -0.717
REMARK  Name = 
REMARK  7 active torsions:
REMARK  status: ('A' for Active; 'I' for Inactive)
REMARK    1  A    between atoms: C_2  and  C_4
REMARK    2  A    between atoms: N_8  and  C_9
REMARK    3  A    between atoms: C_9  and  C_10
REMARK    4  A    between atoms: C_10  and  C_13
REMARK    5  A    between atoms: C_15  and  N_16
REMARK    6  A    between atoms: N_16  and  C_17
REMARK    7  A    between atoms: C_19  and  O_20
REMARK                            x       y       z     vdW  Elec       q    Type
REMARK                         _______ _______ _______ _____ _____    ______ ____
ROOT
ATOM      1  C   UNL     1      43.105   5.306  12.228  0.00  0.00    +0.000 C 
ATOM      2  F   UNL     1      42.020   6.144  12.157  0.00  0.00    +0.000 F 
ATOM      3  F   UNL     1      42.884   4.557  13.348  0.00  0.00    +0.000 F 
ENDROOT
BRANCH   1   4
ATOM      4  C   UNL     1      44.401   6.077  12.292  0.00  0.00    +0.000 A 
ATOM      5  C   UNL     1      44.434   7.466  12.076  0.00  0.00    +0.000 A 
ATOM      6  C   UNL     1      45.639   8.187  12.126  0.00  0.00    +0.000 A 
ATOM      7  C   UNL     1      46.817   7.498  12.425  0.00  0.00    +0.000 A 
ATOM      8  C   UNL     1      46.801   6.115  12.624  0.00  0.00    +0.000 A 
ATOM      9  C   UNL     1      45.598   5.419  12.556  0.00  0.00    +0.000 A 
ATOM     10  F   UNL     1      45.611   4.094  12.745  0.00  0.00    +0.000 F 
BRANCH   6  11
ATOM     11  N   UNL     1      45.587   9.584  12.002  0.00  0.00    +0.000 N 
ATOM     12  H   UNL     1      46.346  10.074  12.467  0.00  0.00    +0.000 HD
BRANCH  11  13
ATOM     13  C   UNL     1      44.510  10.390  11.523  0.00  0.00    +0.000 C 
ATOM     14  C   UNL     1      43.530   9.588  10.645  0.00  0.00    +0.000 C 
ATOM     15  C   UNL     1      43.707  10.623   9.522  0.00  0.00    +0.000 C 
ATOM     16  C   UNL     1      44.911  11.206  10.279  0.00  0.00    +0.000 C 
BRANCH  15  17
ATOM     17  O   UNL     1      42.598  11.516   9.282  0.00  0.00    +0.000 OA
ATOM     18  H   UNL     1      41.795  10.986   9.411  0.00  0.00    +0.000 HD
ENDBRANCH  15  17
ENDBRANCH  11  13
ENDBRANCH   6  11
ENDBRANCH   1   4
BRANCH   1  19
ATOM     19  C   UNL     1      43.060   4.393  10.976  0.00  0.00    +0.000 C 
BRANCH  19  24
ATOM     20  C   UNL     1      46.299   2.100   7.934  0.00  0.00    +0.000 A 
ATOM     21  C   UNL     1      46.398   3.447   7.593  0.00  0.00    +0.000 A 
ATOM     22  C   UNL     1      45.604   4.376   8.270  0.00  0.00    +0.000 A 
ATOM     23  C   UNL     1      44.737   3.953   9.277  0.00  0.00    +0.000 A 
ATOM     24  N   UNL     1      43.907   4.903   9.875  0.00  0.00    +0.000 N 
ATOM     25  N   UNL     1      44.632   2.649   9.608  0.00  0.00    +0.000 NA
ATOM     26  C   UNL     1      45.400   1.754   8.930  0.00  0.00    +0.000 A 
ATOM     27  H   UNL     1      44.422   5.739  10.140  0.00  0.00    +0.000 HD
BRANCH  20  29
ATOM     28  N   UNL     1      46.810  -0.255   7.630  0.00  0.00    +0.000 N 
ATOM     29  C   UNL     1      47.072   1.036   7.262  0.00  0.00    +0.000 C 
ATOM     30  O   UNL     1      47.886   1.291   6.386  0.00  0.00    +0.000 OA
ATOM     31  H   UNL     1      47.280  -0.980   7.100  0.00  0.00    +0.000 HD
ATOM     32  H   UNL     1      45.993  -0.519   8.161  0.00  0.00    +0.000 HD
ENDBRANCH  20  29
ENDBRANCH  19  24
ENDBRANCH   1  19
TORSDOF 7
ENDMDL
MODEL 8
REMARK VINA RESULT:    -7.945      3.458      7.347
REMARK INTER + INTRA:         -11.681
REMARK INTER:                 -11.006
REMARK INTRA:                  -0.676
REMARK UNBOUND:                -0.717
REMARK  Name = 
REMARK  7 active torsions:
REMARK  status: ('A' for Active; 'I' for Inactive)
REMARK    1  A    between atoms: C_2  and  C_4
REMARK    2  A    between atoms: N_8  and  C_9
REMARK    3  A    between atoms: C_9  and  C_10
REMARK    4  A    between atoms: C_10  and  C_13
REMARK    5  A    between atoms: C_15  and  N_16
REMARK    6  A    between atoms: N_16  and  C_17
REMARK    7  A    between atoms: C_19  and  O_20
REMARK                            x       y       z     vdW  Elec       q    Type
REMARK                         _______ _______ _______ _____ _____    ______ ____
ROOT
ATOM      1  C   UNL     1      43.399   5.850  11.816  0.00  0.00    +0.000 C 
ATOM      2  F   UNL     1      42.294   5.678  12.612  0.00  0.00    +0.000 F 
ATOM      3  F   UNL     1      43.060   6.872  10.978  0.00  0.00    +0.000 F 
ENDROOT
BRANCH   1   4
ATOM      4  C   UNL     1      43.754   4.584  11.076  0.00  0.00    +0.000 A 
ATOM      5  C   UNL     1      44.230   4.622   9.754  0.00  0.00    +0.000 A 
ATOM      6  C   UNL     1      44.553   3.445   9.057  0.00  0.00    +0.000 A 
ATOM      7  C   UNL     1      44.420   2.220   9.717  0.00  0.00    +0.000 A 
ATOM      8  C   UNL     1      43.930   2.167  11.025  0.00  0.00    +0.000 A 
ATOM      9  C   UNL     1      43.603   3.344  11.690  0.00  0.00    +0.000 A 
ATOM     10  F   UNL     1      43.131   3.266  12.941  0.00  0.00    +0.000 F 
BRANCH   6  11
ATOM     11  N   UNL     1      45.119   3.560   7.778  0.00  0.00    +0.000 N 
ATOM     12  H   UNL     1      44.441   3.653   7.027  0.00  0.00    +0.000 HD
BRANCH  11  13
ATOM     13  C   UNL     1      46.473   3.334   7.386  0.00  0.00    +0.000 C 
ATOM     14  C   UNL     1      46.636   3.305   5.853  0.00  0.00    +0.000 C 
ATOM     15  C   UNL     1      47.311   1.927   5.963  0.00  0.00    +0.000 C 
ATOM     16  C   UNL     1      46.841   1.838   7.425  0.00  0.00    +0.000 C 
BRANCH  15  17
ATOM     17  O   UNL     1      48.736   1.882   5.736  0.00  0.00    +0.000 OA
ATOM     18  H   UNL     1      48.860   2.028   4.785  0.00  0.00    +0.000 HD
ENDBRANCH  15  17
ENDBRANCH  11  13
ENDBRANCH   6  11
ENDBRANCH   1   4
BRANCH   1  19
ATOM     19  C   UNL     1      44.561   6.300  12.739  0.00  0.00    +0.000 C 
BRANCH  19  24
ATOM     20  C   UNL     1      48.884   8.624  11.781  0.00  0.00    +0.000 A 
ATOM     21  C   UNL     1      47.968   9.657  11.964  0.00  0.00    +0.000 A 
ATOM     22  C   UNL     1      46.639   9.340  12.250  0.00  0.00    +0.000 A 
ATOM     23  C   UNL     1      46.246   8.007  12.360  0.00  0.00    +0.000 A 
ATOM     24  N   UNL     1      44.892   7.732  12.572  0.00  0.00    +0.000 N 
ATOM     25  N   UNL     1      47.126   7.000  12.178  0.00  0.00    +0.000 NA
ATOM     26  C   UNL     1      48.414   7.324  11.884  0.00  0.00    +0.000 A 
ATOM     27  H   UNL     1      44.504   8.308  13.315  0.00  0.00    +0.000 HD
BRANCH  20  29
ATOM     28  N   UNL     1      50.741  10.146  11.414  0.00  0.00    +0.000 N 
ATOM     29  C   UNL     1      50.304   8.850  11.447  0.00  0.00    +0.000 C 
ATOM     30  O   UNL     1      51.070   7.919  11.243  0.00  0.00    +0.000 OA
ATOM     31  H   UNL     1      51.735  10.284  11.273  0.00  0.00    +0.000 HD
ATOM     32  H   UNL     1      50.213  10.913  11.805  0.00  0.00    +0.000 HD
ENDBRANCH  20  29
ENDBRANCH  19  24
ENDBRANCH   1  19
TORSDOF 7
ENDMDL
MODEL 9
REMARK VINA RESULT:    -7.663      3.151      7.860
REMARK INTER + INTRA:         -11.292
REMARK INTER:                 -10.642
REMARK INTRA:                  -0.650
REMARK UNBOUND:                -0.717
REMARK  Name = 
REMARK  7 active torsions:
REMARK  status: ('A' for Active; 'I' for Inactive)
REMARK    1  A    between atoms: C_2  and  C_4
REMARK    2  A    between atoms: N_8  and  C_9
REMARK    3  A    between atoms: C_9  and  C_10
REMARK    4  A    between atoms: C_10  and  C_13
REMARK    5  A    between atoms: C_15  and  N_16
REMARK    6  A    between atoms: N_16  and  C_17
REMARK    7  A    between atoms: C_19  and  O_20
REMARK                            x       y       z     vdW  Elec       q    Type
REMARK                         _______ _______ _______ _____ _____    ______ ____
ROOT
ATOM      1  C   UNL     1      44.974   6.222  12.131  0.00  0.00    +0.000 C 
ATOM      2  F   UNL     1      44.082   6.429  13.154  0.00  0.00    +0.000 F 
ATOM      3  F   UNL     1      44.853   7.330  11.344  0.00  0.00    +0.000 F 
ENDROOT
BRANCH   1   4
ATOM      4  C   UNL     1      44.679   4.944  11.386  0.00  0.00    +0.000 A 
ATOM      5  C   UNL     1      45.014   4.797  10.029  0.00  0.00    +0.000 A 
ATOM      6  C   UNL     1      44.733   3.613   9.328  0.00  0.00    +0.000 A 
ATOM      7  C   UNL     1      44.132   2.555  10.017  0.00  0.00    +0.000 A 
ATOM      8  C   UNL     1      43.777   2.694  11.361  0.00  0.00    +0.000 A 
ATOM      9  C   UNL     1      44.053   3.882  12.032  0.00  0.00    +0.000 A 
ATOM     10  F   UNL     1      43.697   3.992  13.318  0.00  0.00    +0.000 F 
BRANCH   6  11
ATOM     11  N   UNL     1      45.186   3.496   8.004  0.00  0.00    +0.000 N 
ATOM     12  H   UNL     1      44.444   3.418   7.313  0.00  0.00    +0.000 HD
BRANCH  11  13
ATOM     13  C   UNL     1      46.512   3.242   7.542  0.00  0.00    +0.000 C 
ATOM     14  C   UNL     1      46.598   3.230   6.003  0.00  0.00    +0.000 C 
ATOM     15  C   UNL     1      47.243   1.835   6.062  0.00  0.00    +0.000 C 
ATOM     16  C   UNL     1      46.844   1.737   7.543  0.00  0.00    +0.000 C 
BRANCH  15  17
ATOM     17  O   UNL     1      48.654   1.759   5.764  0.00  0.00    +0.000 OA
ATOM     18  H   UNL     1      49.022   2.628   5.988  0.00  0.00    +0.000 HD
ENDBRANCH  15  17
ENDBRANCH  11  13
ENDBRANCH   6  11
ENDBRANCH   1   4
BRANCH   1  19
ATOM     19  C   UNL     1      46.390   6.186  12.761  0.00  0.00    +0.000 C 
BRANCH  19  24
ATOM     20  C   UNL     1      50.914   8.082  13.733  0.00  0.00    +0.000 A 
ATOM     21  C   UNL     1      50.727   8.312  12.372  0.00  0.00    +0.000 A 
ATOM     22  C   UNL     1      49.539   7.891  11.772  0.00  0.00    +0.000 A 
ATOM     23  C   UNL     1      48.556   7.260  12.534  0.00  0.00    +0.000 A 
ATOM     24  N   UNL     1      47.416   6.787  11.880  0.00  0.00    +0.000 N 
ATOM     25  N   UNL     1      48.732   7.028  13.852  0.00  0.00    +0.000 NA
ATOM     26  C   UNL     1      49.902   7.430  14.419  0.00  0.00    +0.000 A 
ATOM     27  H   UNL     1      47.025   7.487  11.254  0.00  0.00    +0.000 HD
BRANCH  20  29
ATOM     28  N   UNL     1      53.071   7.478  14.675  0.00  0.00    +0.000 N 
ATOM     29  C   UNL     1      52.144   8.461  14.457  0.00  0.00    +0.000 C 
ATOM     30  O   UNL     1      52.347   9.612  14.817  0.00  0.00    +0.000 OA
ATOM     31  H   UNL     1      53.947   7.769  15.091  0.00  0.00    +0.000 HD
ATOM     32  H   UNL     1      53.053   6.592  14.193  0.00  0.00    +0.000 HD
ENDBRANCH  20  29
ENDBRANCH  19  24
ENDBRANCH   1  19
TORSDOF 7
ENDMDL
