MODEL 1
REMARK VINA RESULT:    -9.599      0.000      0.000
REMARK INTER + INTRA:         -14.030
REMARK INTER:                 -12.967
REMARK INTRA:                  -1.063
REMARK UNBOUND:                -1.063
REMARK  Name = 
REMARK  6 active torsions:
REMARK  status: ('A' for Active; 'I' for Inactive)
REMARK    1  A    between atoms: C_2  and  C_4
REMARK    2  A    between atoms: N_8  and  C_9
REMARK    3  A    between atoms: C_9  and  C_10
REMARK    4  A    between atoms: C_10  and  C_13
REMARK    5  A    between atoms: C_18  and  O_19
REMARK    6  A    between atoms: O_19  and  C_20
REMARK                            x       y       z     vdW  Elec       q    Type
REMARK                         _______ _______ _______ _____ _____    ______ ____
ROOT
ATOM      1  C   UNL     1      43.705   4.836  12.417  0.00  0.00    +0.000 C 
ATOM      2  F   UNL     1      42.784   5.777  12.797  0.00  0.00    +0.000 F 
ATOM      3  F   UNL     1      43.466   3.764  13.232  0.00  0.00    +0.000 F 
ENDROOT
BRANCH   1   4
ATOM      4  C   UNL     1      45.130   5.338  12.571  0.00  0.00    +0.000 A 
ATOM      5  C   UNL     1      45.678   6.201  11.610  0.00  0.00    +0.000 A 
ATOM      6  C   UNL     1      46.981   6.680  11.752  0.00  0.00    +0.000 A 
ATOM      7  C   UNL     1      47.751   6.295  12.848  0.00  0.00    +0.000 A 
ATOM      8  F   UNL     1      48.988   6.797  12.951  0.00  0.00    +0.000 F 
ATOM      9  C   UNL     1      47.235   5.426  13.809  0.00  0.00    +0.000 A 
ATOM     10  C   UNL     1      45.921   4.958  13.669  0.00  0.00    +0.000 A 
BRANCH   9  11
ATOM     11  O   UNL     1      47.890   4.990  14.934  0.00  0.00    +0.000 OA
BRANCH  11  12
ATOM     12  C   UNL     1      47.242   4.040  15.810  0.00  0.00    +0.000 C 
ATOM     13  C   UNL     1      47.172   4.404  17.308  0.00  0.00    +0.000 C 
ATOM     14  C   UNL     1      47.678   2.994  17.653  0.00  0.00    +0.000 C 
ATOM     15  F   UNL     1      48.666   2.940  18.574  0.00  0.00    +0.000 F 
ATOM     16  F   UNL     1      46.726   2.122  18.055  0.00  0.00    +0.000 F 
ATOM     17  C   UNL     1      48.131   2.838  16.193  0.00  0.00    +0.000 C 
ENDBRANCH  11  12
ENDBRANCH   9  11
ENDBRANCH   1   4
BRANCH   1  18
ATOM     18  C   UNL     1      43.391   4.435  10.951  0.00  0.00    +0.000 C 
BRANCH  18  23
ATOM     19  C   UNL     1      46.429   2.777   7.343  0.00  0.00    +0.000 A 
ATOM     20  C   UNL     1      46.015   1.624   8.003  0.00  0.00    +0.000 A 
ATOM     21  C   UNL     1      45.160   1.743   9.099  0.00  0.00    +0.000 A 
ATOM     22  C   UNL     1      44.722   3.002   9.510  0.00  0.00    +0.000 A 
ATOM     23  N   UNL     1      43.884   3.078  10.627  0.00  0.00    +0.000 N 
ATOM     24  N   UNL     1      45.144   4.125   8.896  0.00  0.00    +0.000 NA
ATOM     25  C   UNL     1      45.989   3.995   7.838  0.00  0.00    +0.000 A 
ATOM     26  H   UNL     1      43.123   2.407  10.553  0.00  0.00    +0.000 HD
BRANCH  19  28
ATOM     27  N   UNL     1      48.646   2.503   6.388  0.00  0.00    +0.000 N 
ATOM     28  C   UNL     1      47.321   2.761   6.165  0.00  0.00    +0.000 C 
ATOM     29  O   UNL     1      46.891   2.929   5.034  0.00  0.00    +0.000 OA
ATOM     30  H   UNL     1      49.225   2.387   5.565  0.00  0.00    +0.000 HD
ATOM     31  H   UNL     1      48.991   2.120   7.256  0.00  0.00    +0.000 HD
ENDBRANCH  19  28
ENDBRANCH  18  23
ENDBRANCH   1  18
TORSDOF 6
ENDMDL
MODEL 2
REMARK VINA RESULT:    -8.332      3.595      7.892
REMARK INTER + INTRA:         -12.318
REMARK INTER:                 -11.551
REMARK INTRA:                  -0.766
REMARK UNBOUND:                -1.063
REMARK  Name = 
REMARK  6 active torsions:
REMARK  status: ('A' for Active; 'I' for Inactive)
REMARK    1  A    between atoms: C_2  and  C_4
REMARK    2  A    between atoms: N_8  and  C_9
REMARK    3  A    between atoms: C_9  and  C_10
REMARK    4  A    between atoms: C_10  and  C_13
REMARK    5  A    between atoms: C_18  and  O_19
REMARK    6  A    between atoms: O_19  and  C_20
REMARK                            x       y       z     vdW  Elec       q    Type
REMARK                         _______ _______ _______ _____ _____    ______ ____
ROOT
ATOM      1  C   UNL     1      45.707   6.837  12.070  0.00  0.00    +0.000 C 
ATOM      2  F   UNL     1      45.384   7.462  13.247  0.00  0.00    +0.000 F 
ATOM      3  F   UNL     1      45.357   7.730  11.094  0.00  0.00    +0.000 F 
ENDROOT
BRANCH   1   4
ATOM      4  C   UNL     1      44.967   5.521  11.903  0.00  0.00    +0.000 A 
ATOM      5  C   UNL     1      44.131   5.051  12.927  0.00  0.00    +0.000 A 
ATOM      6  C   UNL     1      43.435   3.851  12.776  0.00  0.00    +0.000 A 
ATOM      7  C   UNL     1      43.574   3.106  11.607  0.00  0.00    +0.000 A 
ATOM      8  F   UNL     1      42.871   1.971  11.500  0.00  0.00    +0.000 F 
ATOM      9  C   UNL     1      44.411   3.543  10.581  0.00  0.00    +0.000 A 
ATOM     10  C   UNL     1      45.098   4.755  10.731  0.00  0.00    +0.000 A 
BRANCH   9  11
ATOM     11  O   UNL     1      44.616   2.904   9.382  0.00  0.00    +0.000 OA
BRANCH  11  12
ATOM     12  C   UNL     1      45.949   2.854   8.824  0.00  0.00    +0.000 C 
ATOM     13  C   UNL     1      46.183   3.617   7.503  0.00  0.00    +0.000 C 
ATOM     14  C   UNL     1      46.883   2.372   6.933  0.00  0.00    +0.000 C 
ATOM     15  F   UNL     1      46.509   2.016   5.683  0.00  0.00    +0.000 F 
ATOM     16  F   UNL     1      48.234   2.419   6.934  0.00  0.00    +0.000 F 
ATOM     17  C   UNL     1      46.259   1.545   8.068  0.00  0.00    +0.000 C 
ENDBRANCH  11  12
ENDBRANCH   9  11
ENDBRANCH   1   4
BRANCH   1  18
ATOM     18  C   UNL     1      47.246   6.641  12.046  0.00  0.00    +0.000 C 
BRANCH  18  23
ATOM     19  C   UNL     1      47.847   4.243  16.392  0.00  0.00    +0.000 A 
ATOM     20  C   UNL     1      48.346   5.519  16.631  0.00  0.00    +0.000 A 
ATOM     21  C   UNL     1      48.346   6.450  15.590  0.00  0.00    +0.000 A 
ATOM     22  C   UNL     1      47.839   6.099  14.339  0.00  0.00    +0.000 A 
ATOM     23  N   UNL     1      47.878   7.054  13.318  0.00  0.00    +0.000 N 
ATOM     24  N   UNL     1      47.384   4.854  14.092  0.00  0.00    +0.000 NA
ATOM     25  C   UNL     1      47.404   3.954  15.110  0.00  0.00    +0.000 A 
ATOM     26  H   UNL     1      47.519   7.947  13.647  0.00  0.00    +0.000 HD
BRANCH  19  28
ATOM     27  N   UNL     1      48.942   2.922  18.112  0.00  0.00    +0.000 N 
ATOM     28  C   UNL     1      47.789   3.188  17.426  0.00  0.00    +0.000 C 
ATOM     29  O   UNL     1      46.747   2.607  17.689  0.00  0.00    +0.000 OA
ATOM     30  H   UNL     1      48.862   2.278  18.889  0.00  0.00    +0.000 HD
ATOM     31  H   UNL     1      49.742   3.538  18.099  0.00  0.00    +0.000 HD
ENDBRANCH  19  28
ENDBRANCH  18  23
ENDBRANCH   1  18
TORSDOF 6
ENDMDL
MODEL 3
REMARK VINA RESULT:    -8.302      1.703      2.019
REMARK INTER + INTRA:         -12.277
REMARK INTER:                 -11.248
REMARK INTRA:                  -1.029
REMARK UNBOUND:                -1.063
REMARK  Name = 
REMARK  6 active torsions:
REMARK  status: ('A' for Active; 'I' for Inactive)
REMARK    1  A    between atoms: C_2  and  C_4
REMARK    2  A    between atoms: N_8  and  C_9
REMARK    3  A    between atoms: C_9  and  C_10
REMARK    4  A    between atoms: C_10  and  C_13
REMARK    5  A    between atoms: C_18  and  O_19
REMARK    6  A    between atoms: O_19  and  C_20
REMARK                            x       y       z     vdW  Elec       q    Type
REMARK                         _______ _______ _______ _____ _____    ______ ____
ROOT
ATOM      1  C   UNL     1      43.832   4.437  12.530  0.00  0.00    +0.000 C 
ATOM      2  F   UNL     1      42.728   4.838  13.238  0.00  0.00    +0.000 F 
ATOM      3  F   UNL     1      44.262   3.306  13.168  0.00  0.00    +0.000 F 
ENDROOT
BRANCH   1   4
ATOM      4  C   UNL     1      44.913   5.502  12.509  0.00  0.00    +0.000 A 
ATOM      5  C   UNL     1      44.693   6.713  11.833  0.00  0.00    +0.000 A 
ATOM      6  C   UNL     1      45.674   7.704  11.821  0.00  0.00    +0.000 A 
ATOM      7  C   UNL     1      46.887   7.494  12.476  0.00  0.00    +0.000 A 
ATOM      8  F   UNL     1      47.790   8.483  12.454  0.00  0.00    +0.000 F 
ATOM      9  C   UNL     1      47.136   6.294  13.142  0.00  0.00    +0.000 A 
ATOM     10  C   UNL     1      46.142   5.306  13.162  0.00  0.00    +0.000 A 
BRANCH   9  11
ATOM     11  O   UNL     1      48.281   5.980  13.831  0.00  0.00    +0.000 OA
BRANCH  11  12
ATOM     12  C   UNL     1      48.528   6.594  15.117  0.00  0.00    +0.000 C 
ATOM     13  C   UNL     1      49.992   6.947  15.455  0.00  0.00    +0.000 C 
ATOM     14  C   UNL     1      49.812   6.282  16.830  0.00  0.00    +0.000 C 
ATOM     15  F   UNL     1      50.808   5.449  17.207  0.00  0.00    +0.000 F 
ATOM     16  F   UNL     1      49.609   7.134  17.860  0.00  0.00    +0.000 F 
ATOM     17  C   UNL     1      48.547   5.595  16.292  0.00  0.00    +0.000 C 
ENDBRANCH  11  12
ENDBRANCH   9  11
ENDBRANCH   1   4
BRANCH   1  18
ATOM     18  C   UNL     1      43.363   4.062  11.099  0.00  0.00    +0.000 C 
BRANCH  18  23
ATOM     19  C   UNL     1      46.426   2.737   7.377  0.00  0.00    +0.000 A 
ATOM     20  C   UNL     1      46.033   1.530   7.946  0.00  0.00    +0.000 A 
ATOM     21  C   UNL     1      45.177   1.550   9.048  0.00  0.00    +0.000 A 
ATOM     22  C   UNL     1      44.717   2.766   9.554  0.00  0.00    +0.000 A 
ATOM     23  N   UNL     1      43.879   2.743  10.673  0.00  0.00    +0.000 N 
ATOM     24  N   UNL     1      45.120   3.941   9.028  0.00  0.00    +0.000 NA
ATOM     25  C   UNL     1      45.966   3.906   7.963  0.00  0.00    +0.000 A 
ATOM     26  H   UNL     1      43.130   2.067  10.547  0.00  0.00    +0.000 HD
BRANCH  19  28
ATOM     27  N   UNL     1      48.654   2.624   6.414  0.00  0.00    +0.000 N 
ATOM     28  C   UNL     1      47.318   2.827   6.202  0.00  0.00    +0.000 C 
ATOM     29  O   UNL     1      46.879   3.031   5.080  0.00  0.00    +0.000 OA
ATOM     30  H   UNL     1      49.237   2.579   5.587  0.00  0.00    +0.000 HD
ATOM     31  H   UNL     1      49.018   2.215   7.262  0.00  0.00    +0.000 HD
ENDBRANCH  19  28
ENDBRANCH  18  23
ENDBRANCH   1  18
TORSDOF 6
ENDMDL
MODEL 4
REMARK VINA RESULT:    -8.285      2.853      4.050
REMARK INTER + INTRA:         -12.254
REMARK INTER:                 -11.773
REMARK INTRA:                  -0.481
REMARK UNBOUND:                -1.063
REMARK  Name = 
REMARK  6 active torsions:
REMARK  status: ('A' for Active; 'I' for Inactive)
REMARK    1  A    between atoms: C_2  and  C_4
REMARK    2  A    between atoms: N_8  and  C_9
REMARK    3  A    between atoms: C_9  and  C_10
REMARK    4  A    between atoms: C_10  and  C_13
REMARK    5  A    between atoms: C_18  and  O_19
REMARK    6  A    between atoms: O_19  and  C_20
REMARK                            x       y       z     vdW  Elec       q    Type
REMARK                         _______ _______ _______ _____ _____    ______ ____
ROOT
ATOM      1  C   UNL     1      43.813   4.593  12.457  0.00  0.00    +0.000 C 
ATOM      2  F   UNL     1      42.764   4.634  13.338  0.00  0.00    +0.000 F 
ATOM      3  F   UNL     1      44.581   3.543  12.879  0.00  0.00    +0.000 F 
ENDROOT
BRANCH   1   4
ATOM      4  C   UNL     1      44.605   5.888  12.452  0.00  0.00    +0.000 A 
ATOM      5  C   UNL     1      44.078   7.031  11.831  0.00  0.00    +0.000 A 
ATOM      6  C   UNL     1      44.791   8.229  11.835  0.00  0.00    +0.000 A 
ATOM      7  C   UNL     1      46.039   8.297  12.451  0.00  0.00    +0.000 A 
ATOM      8  F   UNL     1      46.677   9.475  12.448  0.00  0.00    +0.000 F 
ATOM      9  C   UNL     1      46.592   7.172  13.062  0.00  0.00    +0.000 A 
ATOM     10  C   UNL     1      45.866   5.973  13.067  0.00  0.00    +0.000 A 
BRANCH   9  11
ATOM     11  O   UNL     1      47.802   7.121  13.710  0.00  0.00    +0.000 OA
BRANCH  11  12
ATOM     12  C   UNL     1      49.013   6.954  12.940  0.00  0.00    +0.000 C 
ATOM     13  C   UNL     1      50.080   8.063  13.063  0.00  0.00    +0.000 C 
ATOM     14  C   UNL     1      50.194   8.093  11.530  0.00  0.00    +0.000 C 
ATOM     15  F   UNL     1      50.189   9.325  10.971  0.00  0.00    +0.000 F 
ATOM     16  F   UNL     1      51.261   7.441  11.018  0.00  0.00    +0.000 F 
ATOM     17  C   UNL     1      48.863   7.329  11.451  0.00  0.00    +0.000 C 
ENDBRANCH  11  12
ENDBRANCH   9  11
ENDBRANCH   1   4
BRANCH   1  18
ATOM     18  C   UNL     1      43.237   4.264  11.054  0.00  0.00    +0.000 C 
BRANCH  18  23
ATOM     19  C   UNL     1      46.457   2.354   7.740  0.00  0.00    +0.000 A 
ATOM     20  C   UNL     1      46.491   3.725   7.504  0.00  0.00    +0.000 A 
ATOM     21  C   UNL     1      45.671   4.562   8.262  0.00  0.00    +0.000 A 
ATOM     22  C   UNL     1      44.844   4.023   9.248  0.00  0.00    +0.000 A 
ATOM     23  N   UNL     1      44.021   4.894   9.969  0.00  0.00    +0.000 N 
ATOM     24  N   UNL     1      44.781   2.693   9.460  0.00  0.00    +0.000 NA
ATOM     25  C   UNL     1      45.575   1.888   8.704  0.00  0.00    +0.000 A 
ATOM     26  H   UNL     1      44.550   5.696  10.302  0.00  0.00    +0.000 HD
BRANCH  19  28
ATOM     27  N   UNL     1      48.344   1.883   6.285  0.00  0.00    +0.000 N 
ATOM     28  C   UNL     1      47.293   1.383   7.004  0.00  0.00    +0.000 C 
ATOM     29  O   UNL     1      47.084   0.181   7.068  0.00  0.00    +0.000 OA
ATOM     30  H   UNL     1      48.972   1.201   5.876  0.00  0.00    +0.000 HD
ATOM     31  H   UNL     1      48.693   2.822   6.405  0.00  0.00    +0.000 HD
ENDBRANCH  19  28
ENDBRANCH  18  23
ENDBRANCH   1  18
TORSDOF 6
ENDMDL
MODEL 5
REMARK VINA RESULT:    -8.069      2.581      4.770
REMARK INTER + INTRA:         -11.962
REMARK INTER:                 -10.855
REMARK INTRA:                  -1.107
REMARK UNBOUND:                -1.063
REMARK  Name = 
REMARK  6 active torsions:
REMARK  status: ('A' for Active; 'I' for Inactive)
REMARK    1  A    between atoms: C_2  and  C_4
REMARK    2  A    between atoms: N_8  and  C_9
REMARK    3  A    between atoms: C_9  and  C_10
REMARK    4  A    between atoms: C_10  and  C_13
REMARK    5  A    between atoms: C_18  and  O_19
REMARK    6  A    between atoms: O_19  and  C_20
REMARK                            x       y       z     vdW  Elec       q    Type
REMARK                         _______ _______ _______ _____ _____    ______ ____
ROOT
ATOM      1  C   UNL     1      43.257   5.505  12.151  0.00  0.00    +0.000 C 
ATOM      2  F   UNL     1      42.653   6.656  11.716  0.00  0.00    +0.000 F 
ATOM      3  F   UNL     1      42.452   5.049  13.160  0.00  0.00    +0.000 F 
ENDROOT
BRANCH   1   4
ATOM      4  C   UNL     1      44.671   5.754  12.645  0.00  0.00    +0.000 A 
ATOM      5  C   UNL     1      45.488   4.673  13.009  0.00  0.00    +0.000 A 
ATOM      6  C   UNL     1      46.793   4.890  13.449  0.00  0.00    +0.000 A 
ATOM      7  C   UNL     1      47.293   6.189  13.537  0.00  0.00    +0.000 A 
ATOM      8  F   UNL     1      48.559   6.346  13.945  0.00  0.00    +0.000 F 
ATOM      9  C   UNL     1      46.496   7.281  13.195  0.00  0.00    +0.000 A 
ATOM     10  C   UNL     1      45.189   7.057  12.742  0.00  0.00    +0.000 A 
BRANCH   9  11
ATOM     11  O   UNL     1      46.882   8.599  13.228  0.00  0.00    +0.000 OA
BRANCH  11  12
ATOM     12  C   UNL     1      47.351   9.231  12.015  0.00  0.00    +0.000 C 
ATOM     13  C   UNL     1      48.876   9.239  11.775  0.00  0.00    +0.000 C 
ATOM     14  C   UNL     1      48.794  10.738  11.441  0.00  0.00    +0.000 C 
ATOM     15  F   UNL     1      49.731  11.516  12.030  0.00  0.00    +0.000 F 
ATOM     16  F   UNL     1      48.816  11.037  10.123  0.00  0.00    +0.000 F 
ATOM     17  C   UNL     1      47.404  10.771  12.095  0.00  0.00    +0.000 C 
ENDBRANCH  11  12
ENDBRANCH   9  11
ENDBRANCH   1   4
BRANCH   1  18
ATOM     18  C   UNL     1      43.225   4.486  10.982  0.00  0.00    +0.000 C 
BRANCH  18  23
ATOM     19  C   UNL     1      46.333   2.115   7.865  0.00  0.00    +0.000 A 
ATOM     20  C   UNL     1      46.384   3.444   7.458  0.00  0.00    +0.000 A 
ATOM     21  C   UNL     1      45.596   4.385   8.122  0.00  0.00    +0.000 A 
ATOM     22  C   UNL     1      44.784   3.990   9.185  0.00  0.00    +0.000 A 
ATOM     23  N   UNL     1      43.993   4.960   9.810  0.00  0.00    +0.000 N 
ATOM     24  N   UNL     1      44.705   2.698   9.564  0.00  0.00    +0.000 NA
ATOM     25  C   UNL     1      45.467   1.791   8.898  0.00  0.00    +0.000 A 
ATOM     26  H   UNL     1      44.543   5.787  10.027  0.00  0.00    +0.000 HD
BRANCH  19  28
ATOM     27  N   UNL     1      46.843  -0.245   7.593  0.00  0.00    +0.000 N 
ATOM     28  C   UNL     1      47.135   1.044   7.238  0.00  0.00    +0.000 C 
ATOM     29  O   UNL     1      47.995   1.291   6.406  0.00  0.00    +0.000 OA
ATOM     30  H   UNL     1      47.323  -0.972   7.077  0.00  0.00    +0.000 HD
ATOM     31  H   UNL     1      45.994  -0.501   8.075  0.00  0.00    +0.000 HD
ENDBRANCH  19  28
ENDBRANCH  18  23
ENDBRANCH   1  18
TORSDOF 6
ENDMDL
MODEL 6
REMARK VINA RESULT:    -8.066      2.705      3.261
REMARK INTER + INTRA:         -11.958
REMARK INTER:                 -11.277
REMARK INTRA:                  -0.681
REMARK UNBOUND:                -1.063
REMARK  Name = 
REMARK  6 active torsions:
REMARK  status: ('A' for Active; 'I' for Inactive)
REMARK    1  A    between atoms: C_2  and  C_4
REMARK    2  A    between atoms: N_8  and  C_9
REMARK    3  A    between atoms: C_9  and  C_10
REMARK    4  A    between atoms: C_10  and  C_13
REMARK    5  A    between atoms: C_18  and  O_19
REMARK    6  A    between atoms: O_19  and  C_20
REMARK                            x       y       z     vdW  Elec       q    Type
REMARK                         _______ _______ _______ _____ _____    ______ ____
ROOT
ATOM      1  C   UNL     1      43.795   4.904  12.420  0.00  0.00    +0.000 C 
ATOM      2  F   UNL     1      42.767   5.139  13.296  0.00  0.00    +0.000 F 
ATOM      3  F   UNL     1      44.454   3.824  12.938  0.00  0.00    +0.000 F 
ENDROOT
BRANCH   1   4
ATOM      4  C   UNL     1      44.718   6.102  12.290  0.00  0.00    +0.000 A 
ATOM      5  C   UNL     1      44.232   7.310  11.765  0.00  0.00    +0.000 A 
ATOM      6  C   UNL     1      45.068   8.421  11.656  0.00  0.00    +0.000 A 
ATOM      7  C   UNL     1      46.399   8.335  12.061  0.00  0.00    +0.000 A 
ATOM      8  F   UNL     1      47.157   9.434  11.957  0.00  0.00    +0.000 F 
ATOM      9  C   UNL     1      46.910   7.142  12.572  0.00  0.00    +0.000 A 
ATOM     10  C   UNL     1      46.063   6.032  12.692  0.00  0.00    +0.000 A 
BRANCH   9  11
ATOM     11  O   UNL     1      48.195   6.943  13.015  0.00  0.00    +0.000 OA
BRANCH  11  12
ATOM     12  C   UNL     1      48.498   7.120  14.418  0.00  0.00    +0.000 C 
ATOM     13  C   UNL     1      48.255   8.522  15.015  0.00  0.00    +0.000 C 
ATOM     14  C   UNL     1      49.651   8.467  15.657  0.00  0.00    +0.000 C 
ATOM     15  F   UNL     1      50.403   9.581  15.510  0.00  0.00    +0.000 F 
ATOM     16  F   UNL     1      49.667   8.161  16.974  0.00  0.00    +0.000 F 
ATOM     17  C   UNL     1      50.000   7.307  14.713  0.00  0.00    +0.000 C 
ENDBRANCH  11  12
ENDBRANCH   9  11
ENDBRANCH   1   4
BRANCH   1  18
ATOM     18  C   UNL     1      43.170   4.507  11.056  0.00  0.00    +0.000 C 
BRANCH  18  23
ATOM     19  C   UNL     1      46.285   2.116   7.962  0.00  0.00    +0.000 A 
ATOM     20  C   UNL     1      46.383   3.452   7.586  0.00  0.00    +0.000 A 
ATOM     21  C   UNL     1      45.605   4.400   8.252  0.00  0.00    +0.000 A 
ATOM     22  C   UNL     1      44.757   4.006   9.287  0.00  0.00    +0.000 A 
ATOM     23  N   UNL     1      43.979   4.984   9.913  0.00  0.00    +0.000 N 
ATOM     24  N   UNL     1      44.633   2.709   9.635  0.00  0.00    +0.000 NA
ATOM     25  C   UNL     1      45.386   1.794   8.967  0.00  0.00    +0.000 A 
ATOM     26  H   UNL     1      44.546   5.790  10.162  0.00  0.00    +0.000 HD
BRANCH  19  28
ATOM     27  N   UNL     1      46.744  -0.251   7.662  0.00  0.00    +0.000 N 
ATOM     28  C   UNL     1      47.072   1.036   7.332  0.00  0.00    +0.000 C 
ATOM     29  O   UNL     1      47.950   1.276   6.517  0.00  0.00    +0.000 OA
ATOM     30  H   UNL     1      47.216  -0.981   7.142  0.00  0.00    +0.000 HD
ATOM     31  H   UNL     1      45.882  -0.494   8.128  0.00  0.00    +0.000 HD
ENDBRANCH  19  28
ENDBRANCH  18  23
ENDBRANCH   1  18
TORSDOF 6
ENDMDL
MODEL 7
REMARK VINA RESULT:    -7.673      4.023      8.526
REMARK INTER + INTRA:         -11.427
REMARK INTER:                 -11.149
REMARK INTRA:                  -0.278
REMARK UNBOUND:                -1.063
REMARK  Name = 
REMARK  6 active torsions:
REMARK  status: ('A' for Active; 'I' for Inactive)
REMARK    1  A    between atoms: C_2  and  C_4
REMARK    2  A    between atoms: N_8  and  C_9
REMARK    3  A    between atoms: C_9  and  C_10
REMARK    4  A    between atoms: C_10  and  C_13
REMARK    5  A    between atoms: C_18  and  O_19
REMARK    6  A    between atoms: O_19  and  C_20
REMARK                            x       y       z     vdW  Elec       q    Type
REMARK                         _______ _______ _______ _____ _____    ______ ____
ROOT
ATOM      1  C   UNL     1      46.220   6.291  12.519  0.00  0.00    +0.000 C 
ATOM      2  F   UNL     1      45.540   7.364  13.035  0.00  0.00    +0.000 F 
ATOM      3  F   UNL     1      46.821   6.771  11.388  0.00  0.00    +0.000 F 
ENDROOT
BRANCH   1   4
ATOM      4  C   UNL     1      45.295   5.130  12.200  0.00  0.00    +0.000 A 
ATOM      5  C   UNL     1      44.328   4.727  13.134  0.00  0.00    +0.000 A 
ATOM      6  C   UNL     1      43.463   3.672  12.844  0.00  0.00    +0.000 A 
ATOM      7  C   UNL     1      43.561   3.003  11.625  0.00  0.00    +0.000 A 
ATOM      8  F   UNL     1      42.695   2.010  11.383  0.00  0.00    +0.000 F 
ATOM      9  C   UNL     1      44.523   3.375  10.686  0.00  0.00    +0.000 A 
ATOM     10  C   UNL     1      45.382   4.444  10.976  0.00  0.00    +0.000 A 
BRANCH   9  11
ATOM     11  O   UNL     1      44.705   2.803   9.451  0.00  0.00    +0.000 OA
BRANCH  11  12
ATOM     12  C   UNL     1      46.011   2.849   8.832  0.00  0.00    +0.000 C 
ATOM     13  C   UNL     1      46.150   3.702   7.554  0.00  0.00    +0.000 C 
ATOM     14  C   UNL     1      46.876   2.529   6.876  0.00  0.00    +0.000 C 
ATOM     15  F   UNL     1      46.461   2.234   5.623  0.00  0.00    +0.000 F 
ATOM     16  F   UNL     1      48.223   2.638   6.820  0.00  0.00    +0.000 F 
ATOM     17  C   UNL     1      46.342   1.606   7.981  0.00  0.00    +0.000 C 
ENDBRANCH  11  12
ENDBRANCH   9  11
ENDBRANCH   1   4
BRANCH   1  18
ATOM     18  C   UNL     1      47.316   5.892  13.542  0.00  0.00    +0.000 C 
BRANCH  18  23
ATOM     19  C   UNL     1      49.103   4.597  18.028  0.00  0.00    +0.000 A 
ATOM     20  C   UNL     1      47.977   3.797  17.862  0.00  0.00    +0.000 A 
ATOM     21  C   UNL     1      47.219   3.932  16.697  0.00  0.00    +0.000 A 
ATOM     22  C   UNL     1      47.602   4.847  15.717  0.00  0.00    +0.000 A 
ATOM     23  N   UNL     1      46.802   4.966  14.575  0.00  0.00    +0.000 N 
ATOM     24  N   UNL     1      48.673   5.648  15.885  0.00  0.00    +0.000 NA
ATOM     25  C   UNL     1      49.394   5.516  17.031  0.00  0.00    +0.000 A 
ATOM     26  H   UNL     1      46.587   4.050  14.190  0.00  0.00    +0.000 HD
BRANCH  19  28
ATOM     27  N   UNL     1      51.259   4.077  19.021  0.00  0.00    +0.000 N 
ATOM     28  C   UNL     1      49.981   4.525  19.215  0.00  0.00    +0.000 C 
ATOM     29  O   UNL     1      49.599   4.891  20.316  0.00  0.00    +0.000 OA
ATOM     30  H   UNL     1      51.881   4.136  19.818  0.00  0.00    +0.000 HD
ATOM     31  H   UNL     1      51.681   4.004  18.107  0.00  0.00    +0.000 HD
ENDBRANCH  19  28
ENDBRANCH  18  23
ENDBRANCH   1  18
TORSDOF 6
ENDMDL
MODEL 8
REMARK VINA RESULT:    -7.584      3.908      8.446
REMARK INTER + INTRA:         -11.307
REMARK INTER:                 -10.421
REMARK INTRA:                  -0.886
REMARK UNBOUND:                -1.063
REMARK  Name = 
REMARK  6 active torsions:
REMARK  status: ('A' for Active; 'I' for Inactive)
REMARK    1  A    between atoms: C_2  and  C_4
REMARK    2  A    between atoms: N_8  and  C_9
REMARK    3  A    between atoms: C_9  and  C_10
REMARK    4  A    between atoms: C_10  and  C_13
REMARK    5  A    between atoms: C_18  and  O_19
REMARK    6  A    between atoms: O_19  and  C_20
REMARK                            x       y       z     vdW  Elec       q    Type
REMARK                         _______ _______ _______ _____ _____    ______ ____
ROOT
ATOM      1  C   UNL     1      45.966   6.725  12.235  0.00  0.00    +0.000 C 
ATOM      2  F   UNL     1      45.484   7.442  13.299  0.00  0.00    +0.000 F 
ATOM      3  F   UNL     1      45.859   7.572  11.167  0.00  0.00    +0.000 F 
ENDROOT
BRANCH   1   4
ATOM      4  C   UNL     1      45.178   5.447  12.005  0.00  0.00    +0.000 A 
ATOM      5  C   UNL     1      44.336   4.951  13.013  0.00  0.00    +0.000 A 
ATOM      6  C   UNL     1      43.596   3.787  12.805  0.00  0.00    +0.000 A 
ATOM      7  C   UNL     1      43.696   3.103  11.595  0.00  0.00    +0.000 A 
ATOM      8  F   UNL     1      42.950   2.002  11.435  0.00  0.00    +0.000 F 
ATOM      9  C   UNL     1      44.537   3.567  10.584  0.00  0.00    +0.000 A 
ATOM     10  C   UNL     1      45.269   4.744  10.792  0.00  0.00    +0.000 A 
BRANCH   9  11
ATOM     11  O   UNL     1      44.705   2.988   9.350  0.00  0.00    +0.000 OA
BRANCH  11  12
ATOM     12  C   UNL     1      46.032   2.902   8.781  0.00  0.00    +0.000 C 
ATOM     13  C   UNL     1      46.286   3.681   7.474  0.00  0.00    +0.000 C 
ATOM     14  C   UNL     1      46.939   2.424   6.876  0.00  0.00    +0.000 C 
ATOM     15  F   UNL     1      46.546   2.105   5.622  0.00  0.00    +0.000 F 
ATOM     16  F   UNL     1      48.291   2.424   6.869  0.00  0.00    +0.000 F 
ATOM     17  C   UNL     1      46.292   1.598   7.999  0.00  0.00    +0.000 C 
ENDBRANCH  11  12
ENDBRANCH   9  11
ENDBRANCH   1   4
BRANCH   1  18
ATOM     18  C   UNL     1      47.467   6.436  12.502  0.00  0.00    +0.000 C 
BRANCH  18  23
ATOM     19  C   UNL     1      48.657   5.823  17.319  0.00  0.00    +0.000 A 
ATOM     20  C   UNL     1      48.901   7.170  17.073  0.00  0.00    +0.000 A 
ATOM     21  C   UNL     1      48.687   7.671  15.788  0.00  0.00    +0.000 A 
ATOM     22  C   UNL     1      48.223   6.829  14.778  0.00  0.00    +0.000 A 
ATOM     23  N   UNL     1      48.043   7.366  13.499  0.00  0.00    +0.000 N 
ATOM     24  N   UNL     1      48.015   5.515  15.001  0.00  0.00    +0.000 NA
ATOM     25  C   UNL     1      48.242   5.038  16.254  0.00  0.00    +0.000 A 
ATOM     26  H   UNL     1      47.525   8.239  13.545  0.00  0.00    +0.000 HD
BRANCH  19  28
ATOM     27  N   UNL     1      47.714   4.755  19.287  0.00  0.00    +0.000 N 
ATOM     28  C   UNL     1      48.839   5.195  18.645  0.00  0.00    +0.000 C 
ATOM     29  O   UNL     1      49.948   5.036  19.131  0.00  0.00    +0.000 OA
ATOM     30  H   UNL     1      47.861   4.230  20.141  0.00  0.00    +0.000 HD
ATOM     31  H   UNL     1      46.825   4.644  18.821  0.00  0.00    +0.000 HD
ENDBRANCH  19  28
ENDBRANCH  18  23
ENDBRANCH   1  18
TORSDOF 6
ENDMDL
MODEL 9
REMARK VINA RESULT:    -7.321      3.985      8.057
REMARK INTER + INTRA:         -10.951
REMARK INTER:                  -9.862
REMARK INTRA:                  -1.089
REMARK UNBOUND:                -1.063
REMARK  Name = 
REMARK  6 active torsions:
REMARK  status: ('A' for Active; 'I' for Inactive)
REMARK    1  A    between atoms: C_2  and  C_4
REMARK    2  A    between atoms: N_8  and  C_9
REMARK    3  A    between atoms: C_9  and  C_10
REMARK    4  A    between atoms: C_10  and  C_13
REMARK    5  A    between atoms: C_18  and  O_19
REMARK    6  A    between atoms: O_19  and  C_20
REMARK                            x       y       z     vdW  Elec       q    Type
REMARK                         _______ _______ _______ _____ _____    ______ ____
ROOT
ATOM      1  C   UNL     1      48.529   8.621  12.339  0.00  0.00    +0.000 C 
ATOM      2  F   UNL     1      48.559   9.500  13.390  0.00  0.00    +0.000 F 
ATOM      3  F   UNL     1      49.035   9.325  11.281  0.00  0.00    +0.000 F 
ENDROOT
BRANCH   1   4
ATOM      4  C   UNL     1      47.122   8.127  12.049  0.00  0.00    +0.000 A 
ATOM      5  C   UNL     1      46.050   9.033  12.035  0.00  0.00    +0.000 A 
ATOM      6  C   UNL     1      44.757   8.592  11.754  0.00  0.00    +0.000 A 
ATOM      7  C   UNL     1      44.520   7.243  11.494  0.00  0.00    +0.000 A 
ATOM      8  F   UNL     1      43.265   6.871  11.209  0.00  0.00    +0.000 F 
ATOM      9  C   UNL     1      45.566   6.321  11.517  0.00  0.00    +0.000 A 
ATOM     10  C   UNL     1      46.866   6.771  11.786  0.00  0.00    +0.000 A 
BRANCH   9  11
ATOM     11  O   UNL     1      45.458   4.976  11.263  0.00  0.00    +0.000 OA
BRANCH  11  12
ATOM     12  C   UNL     1      44.883   4.534  10.012  0.00  0.00    +0.000 C 
ATOM     13  C   UNL     1      44.960   3.024   9.701  0.00  0.00    +0.000 C 
ATOM     14  C   UNL     1      45.477   3.362   8.293  0.00  0.00    +0.000 C 
ATOM     15  F   UNL     1      46.547   2.646   7.880  0.00  0.00    +0.000 F 
ATOM     16  F   UNL     1      44.555   3.284   7.307  0.00  0.00    +0.000 F 
ATOM     17  C   UNL     1      45.786   4.783   8.787  0.00  0.00    +0.000 C 
ENDBRANCH  11  12
ENDBRANCH   9  11
ENDBRANCH   1   4
BRANCH   1  18
ATOM     18  C   UNL     1      49.493   7.452  12.674  0.00  0.00    +0.000 C 
BRANCH  18  23
ATOM     19  C   UNL     1      48.154   5.005  16.823  0.00  0.00    +0.000 A 
ATOM     20  C   UNL     1      49.111   5.918  17.255  0.00  0.00    +0.000 A 
ATOM     21  C   UNL     1      49.715   6.757  16.318  0.00  0.00    +0.000 A 
ATOM     22  C   UNL     1      49.348   6.683  14.974  0.00  0.00    +0.000 A 
ATOM     23  N   UNL     1      49.994   7.526  14.064  0.00  0.00    +0.000 N 
ATOM     24  N   UNL     1      48.445   5.778  14.544  0.00  0.00    +0.000 NA
ATOM     25  C   UNL     1      47.876   4.957  15.466  0.00  0.00    +0.000 A 
ATOM     26  H   UNL     1      50.012   8.482  14.410  0.00  0.00    +0.000 HD
BRANCH  19  28
ATOM     27  N   UNL     1      47.858   4.051  19.038  0.00  0.00    +0.000 N 
ATOM     28  C   UNL     1      47.446   4.081  17.734  0.00  0.00    +0.000 C 
ATOM     29  O   UNL     1      46.503   3.405  17.352  0.00  0.00    +0.000 OA
ATOM     30  H   UNL     1      47.295   3.498  19.673  0.00  0.00    +0.000 HD
ATOM     31  H   UNL     1      48.453   4.760  19.441  0.00  0.00    +0.000 HD
ENDBRANCH  19  28
ENDBRANCH  18  23
ENDBRANCH   1  18
TORSDOF 6
ENDMDL
