MODEL 1
REMARK VINA RESULT:    -9.396      0.000      0.000
REMARK INTER + INTRA:         -13.183
REMARK INTER:                 -12.143
REMARK INTRA:                  -1.040
REMARK UNBOUND:                -1.040
REMARK  Name = 
REMARK  5 active torsions:
REMARK  status: ('A' for Active; 'I' for Inactive)
REMARK    1  A    between atoms: C_2  and  C_4
REMARK    2  A    between atoms: N_8  and  C_9
REMARK    3  A    between atoms: C_9  and  C_10
REMARK    4  A    between atoms: C_10  and  C_13
REMARK    5  A    between atoms: C_17  and  C_18
REMARK                            x       y       z     vdW  Elec       q    Type
REMARK                         _______ _______ _______ _____ _____    ______ ____
ROOT
ATOM      1  C   UNL     1      43.367   5.415  12.228  0.00  0.00    +0.000 C 
ATOM      2  F   UNL     1      42.874   6.652  11.898  0.00  0.00    +0.000 F 
ATOM      3  F   UNL     1      42.560   4.980  13.246  0.00  0.00    +0.000 F 
ENDROOT
BRANCH   1   4
ATOM      4  C   UNL     1      44.817   5.482  12.661  0.00  0.00    +0.000 A 
ATOM      5  C   UNL     1      45.408   4.446  13.392  0.00  0.00    +0.000 A 
ATOM      6  C   UNL     1      46.746   4.533  13.767  0.00  0.00    +0.000 A 
ATOM      7  C   UNL     1      47.508   5.647  13.403  0.00  0.00    +0.000 A 
ATOM      8  C   UNL     1      46.962   6.697  12.646  0.00  0.00    +0.000 A 
ATOM      9  C   UNL     1      45.601   6.597  12.303  0.00  0.00    +0.000 A 
BRANCH   8  10
ATOM     10  C   UNL     1      47.787   7.847  12.203  0.00  0.00    +0.000 A 
ATOM     11  C   UNL     1      47.269   9.157  12.155  0.00  0.00    +0.000 A 
ATOM     12  C   UNL     1      48.053  10.238  11.738  0.00  0.00    +0.000 A 
ATOM     13  C   UNL     1      49.376  10.029  11.374  0.00  0.00    +0.000 A 
ATOM     14  F   UNL     1      50.117  11.081  10.998  0.00  0.00    +0.000 F 
ATOM     15  C   UNL     1      49.915   8.750  11.401  0.00  0.00    +0.000 A 
ATOM     16 CL   UNL     1      51.557   8.478  10.955  0.00  0.00    +0.000 Cl
ATOM     17  C   UNL     1      49.126   7.668  11.800  0.00  0.00    +0.000 A 
ENDBRANCH   8  10
ENDBRANCH   1   4
BRANCH   1  18
ATOM     18  C   UNL     1      43.166   4.487  11.002  0.00  0.00    +0.000 C 
BRANCH  18  23
ATOM     19  C   UNL     1      46.276   2.063   7.928  0.00  0.00    +0.000 A 
ATOM     20  C   UNL     1      46.343   3.387   7.509  0.00  0.00    +0.000 A 
ATOM     21  C   UNL     1      45.566   4.345   8.168  0.00  0.00    +0.000 A 
ATOM     22  C   UNL     1      44.752   3.968   9.236  0.00  0.00    +0.000 A 
ATOM     23  N   UNL     1      43.946   4.943   9.830  0.00  0.00    +0.000 N 
ATOM     24  N   UNL     1      44.672   2.683   9.636  0.00  0.00    +0.000 NA
ATOM     25  C   UNL     1      45.422   1.761   8.978  0.00  0.00    +0.000 A 
ATOM     26  H   UNL     1      44.474   5.790  10.027  0.00  0.00    +0.000 HD
BRANCH  19  28
ATOM     27  N   UNL     1      46.736  -0.306   7.676  0.00  0.00    +0.000 N 
ATOM     28  C   UNL     1      47.041   0.971   7.291  0.00  0.00    +0.000 C 
ATOM     29  O   UNL     1      47.881   1.192   6.432  0.00  0.00    +0.000 OA
ATOM     30  H   UNL     1      47.193  -1.052   7.164  0.00  0.00    +0.000 HD
ATOM     31  H   UNL     1      45.895  -0.539   8.186  0.00  0.00    +0.000 HD
ENDBRANCH  19  28
ENDBRANCH  18  23
ENDBRANCH   1  18
TORSDOF 5
ENDMDL
MODEL 2
REMARK VINA RESULT:    -9.172      2.846      4.306
REMARK INTER + INTRA:         -12.894
REMARK INTER:                 -11.833
REMARK INTRA:                  -1.061
REMARK UNBOUND:                -1.040
REMARK  Name = 
REMARK  5 active torsions:
REMARK  status: ('A' for Active; 'I' for Inactive)
REMARK    1  A    between atoms: C_2  and  C_4
REMARK    2  A    between atoms: N_8  and  C_9
REMARK    3  A    between atoms: C_9  and  C_10
REMARK    4  A    between atoms: C_10  and  C_13
REMARK    5  A    between atoms: C_17  and  C_18
REMARK                            x       y       z     vdW  Elec       q    Type
REMARK                         _______ _______ _______ _____ _____    ______ ____
ROOT
ATOM      1  C   UNL     1      43.600   5.287  11.965  0.00  0.00    +0.000 C 
ATOM      2  F   UNL     1      42.799   6.394  12.078  0.00  0.00    +0.000 F 
ATOM      3  F   UNL     1      43.083   4.392  12.865  0.00  0.00    +0.000 F 
ENDROOT
BRANCH   1   4
ATOM      4  C   UNL     1      45.049   5.604  12.271  0.00  0.00    +0.000 A 
ATOM      5  C   UNL     1      45.824   6.385  11.407  0.00  0.00    +0.000 A 
ATOM      6  C   UNL     1      47.151   6.667  11.721  0.00  0.00    +0.000 A 
ATOM      7  C   UNL     1      47.710   6.184  12.908  0.00  0.00    +0.000 A 
ATOM      8  C   UNL     1      46.960   5.420  13.818  0.00  0.00    +0.000 A 
ATOM      9  C   UNL     1      45.631   5.127  13.463  0.00  0.00    +0.000 A 
BRANCH   8  10
ATOM     10  C   UNL     1      47.534   4.964  15.108  0.00  0.00    +0.000 A 
ATOM     11  C   UNL     1      47.298   3.669  15.608  0.00  0.00    +0.000 A 
ATOM     12  C   UNL     1      47.843   3.244  16.825  0.00  0.00    +0.000 A 
ATOM     13  C   UNL     1      48.646   4.106  17.557  0.00  0.00    +0.000 A 
ATOM     14  F   UNL     1      49.176   3.674  18.710  0.00  0.00    +0.000 F 
ATOM     15  C   UNL     1      48.892   5.394  17.098  0.00  0.00    +0.000 A 
ATOM     16 CL   UNL     1      49.891   6.472  17.995  0.00  0.00    +0.000 Cl
ATOM     17  C   UNL     1      48.332   5.823  15.891  0.00  0.00    +0.000 A 
ENDBRANCH   8  10
ENDBRANCH   1   4
BRANCH   1  18
ATOM     18  C   UNL     1      43.416   4.716  10.536  0.00  0.00    +0.000 C 
BRANCH  18  23
ATOM     19  C   UNL     1      46.583   2.539   7.337  0.00  0.00    +0.000 A 
ATOM     20  C   UNL     1      46.129   1.494   8.133  0.00  0.00    +0.000 A 
ATOM     21  C   UNL     1      45.218   1.772   9.158  0.00  0.00    +0.000 A 
ATOM     22  C   UNL     1      44.772   3.077   9.359  0.00  0.00    +0.000 A 
ATOM     23  N   UNL     1      43.908   3.324  10.430  0.00  0.00    +0.000 N 
ATOM     24  N   UNL     1      45.220   4.097   8.599  0.00  0.00    +0.000 NA
ATOM     25  C   UNL     1      46.114   3.814   7.616  0.00  0.00    +0.000 A 
ATOM     26  H   UNL     1      43.149   2.646  10.457  0.00  0.00    +0.000 HD
BRANCH  19  28
ATOM     27  N   UNL     1      47.494   3.248   5.201  0.00  0.00    +0.000 N 
ATOM     28  C   UNL     1      47.557   2.359   6.240  0.00  0.00    +0.000 C 
ATOM     29  O   UNL     1      48.406   1.481   6.273  0.00  0.00    +0.000 OA
ATOM     30  H   UNL     1      48.225   3.179   4.504  0.00  0.00    +0.000 HD
ATOM     31  H   UNL     1      46.982   4.119   5.255  0.00  0.00    +0.000 HD
ENDBRANCH  19  28
ENDBRANCH  18  23
ENDBRANCH   1  18
TORSDOF 5
ENDMDL
MODEL 3
REMARK VINA RESULT:    -8.544      1.961      2.544
REMARK INTER + INTRA:         -12.081
REMARK INTER:                 -11.363
REMARK INTRA:                  -0.719
REMARK UNBOUND:                -1.040
REMARK  Name = 
REMARK  5 active torsions:
REMARK  status: ('A' for Active; 'I' for Inactive)
REMARK    1  A    between atoms: C_2  and  C_4
REMARK    2  A    between atoms: N_8  and  C_9
REMARK    3  A    between atoms: C_9  and  C_10
REMARK    4  A    between atoms: C_10  and  C_13
REMARK    5  A    between atoms: C_17  and  C_18
REMARK                            x       y       z     vdW  Elec       q    Type
REMARK                         _______ _______ _______ _____ _____    ______ ____
ROOT
ATOM      1  C   UNL     1      43.727   5.054  12.386  0.00  0.00    +0.000 C 
ATOM      2  F   UNL     1      42.644   5.230  13.209  0.00  0.00    +0.000 F 
ATOM      3  F   UNL     1      44.475   4.084  13.001  0.00  0.00    +0.000 F 
ENDROOT
BRANCH   1   4
ATOM      4  C   UNL     1      44.518   6.334  12.212  0.00  0.00    +0.000 A 
ATOM      5  C   UNL     1      43.953   7.464  11.611  0.00  0.00    +0.000 A 
ATOM      6  C   UNL     1      44.703   8.629  11.474  0.00  0.00    +0.000 A 
ATOM      7  C   UNL     1      46.017   8.679  11.948  0.00  0.00    +0.000 A 
ATOM      8  C   UNL     1      46.615   7.577  12.582  0.00  0.00    +0.000 A 
ATOM      9  C   UNL     1      45.844   6.404  12.684  0.00  0.00    +0.000 A 
BRANCH   8  10
ATOM     10  C   UNL     1      47.985   7.652  13.145  0.00  0.00    +0.000 A 
ATOM     11  C   UNL     1      49.017   8.353  12.490  0.00  0.00    +0.000 A 
ATOM     12  C   UNL     1      50.308   8.421  13.026  0.00  0.00    +0.000 A 
ATOM     13  C   UNL     1      50.585   7.800  14.234  0.00  0.00    +0.000 A 
ATOM     14  F   UNL     1      51.822   7.895  14.742  0.00  0.00    +0.000 F 
ATOM     15  C   UNL     1      49.593   7.092  14.902  0.00  0.00    +0.000 A 
ATOM     16 CL   UNL     1      49.924   6.320  16.405  0.00  0.00    +0.000 Cl
ATOM     17  C   UNL     1      48.309   7.009  14.356  0.00  0.00    +0.000 A 
ENDBRANCH   8  10
ENDBRANCH   1   4
BRANCH   1  18
ATOM     18  C   UNL     1      43.207   4.500  11.035  0.00  0.00    +0.000 C 
BRANCH  18  23
ATOM     19  C   UNL     1      46.326   2.124   7.932  0.00  0.00    +0.000 A 
ATOM     20  C   UNL     1      46.425   3.460   7.560  0.00  0.00    +0.000 A 
ATOM     21  C   UNL     1      45.654   4.410   8.239  0.00  0.00    +0.000 A 
ATOM     22  C   UNL     1      44.814   4.011   9.279  0.00  0.00    +0.000 A 
ATOM     23  N   UNL     1      44.016   4.981   9.893  0.00  0.00    +0.000 N 
ATOM     24  N   UNL     1      44.703   2.715   9.633  0.00  0.00    +0.000 NA
ATOM     25  C   UNL     1      45.448   1.803   8.956  0.00  0.00    +0.000 A 
ATOM     26  H   UNL     1      44.556   5.810  10.128  0.00  0.00    +0.000 HD
BRANCH  19  28
ATOM     27  N   UNL     1      46.770  -0.243   7.630  0.00  0.00    +0.000 N 
ATOM     28  C   UNL     1      47.082   1.040   7.270  0.00  0.00    +0.000 C 
ATOM     29  O   UNL     1      47.921   1.273   6.413  0.00  0.00    +0.000 OA
ATOM     30  H   UNL     1      47.220  -0.981   7.102  0.00  0.00    +0.000 HD
ATOM     31  H   UNL     1      45.928  -0.480   8.139  0.00  0.00    +0.000 HD
ENDBRANCH  19  28
ENDBRANCH  18  23
ENDBRANCH   1  18
TORSDOF 5
ENDMDL
MODEL 4
REMARK VINA RESULT:    -8.425      4.938      7.787
REMARK INTER + INTRA:         -11.928
REMARK INTER:                 -11.148
REMARK INTRA:                  -0.780
REMARK UNBOUND:                -1.040
REMARK  Name = 
REMARK  5 active torsions:
REMARK  status: ('A' for Active; 'I' for Inactive)
REMARK    1  A    between atoms: C_2  and  C_4
REMARK    2  A    between atoms: N_8  and  C_9
REMARK    3  A    between atoms: C_9  and  C_10
REMARK    4  A    between atoms: C_10  and  C_13
REMARK    5  A    between atoms: C_17  and  C_18
REMARK                            x       y       z     vdW  Elec       q    Type
REMARK                         _______ _______ _______ _____ _____    ______ ____
ROOT
ATOM      1  C   UNL     1      45.818   6.999  12.418  0.00  0.00    +0.000 C 
ATOM      2  F   UNL     1      45.000   7.702  13.265  0.00  0.00    +0.000 F 
ATOM      3  F   UNL     1      46.295   7.936  11.539  0.00  0.00    +0.000 F 
ENDROOT
BRANCH   1   4
ATOM      4  C   UNL     1      45.070   5.896  11.698  0.00  0.00    +0.000 A 
ATOM      5  C   UNL     1      43.756   5.561  12.041  0.00  0.00    +0.000 A 
ATOM      6  C   UNL     1      43.093   4.548  11.353  0.00  0.00    +0.000 A 
ATOM      7  C   UNL     1      43.731   3.872  10.308  0.00  0.00    +0.000 A 
ATOM      8  C   UNL     1      45.040   4.196   9.912  0.00  0.00    +0.000 A 
ATOM      9  C   UNL     1      45.696   5.204  10.641  0.00  0.00    +0.000 A 
BRANCH   8  10
ATOM     10  C   UNL     1      45.692   3.525   8.761  0.00  0.00    +0.000 A 
ATOM     11  C   UNL     1      46.181   4.253   7.659  0.00  0.00    +0.000 A 
ATOM     12  C   UNL     1      46.797   3.615   6.576  0.00  0.00    +0.000 A 
ATOM     13  C   UNL     1      46.944   2.236   6.584  0.00  0.00    +0.000 A 
ATOM     14  F   UNL     1      47.556   1.645   5.548  0.00  0.00    +0.000 F 
ATOM     15  C   UNL     1      46.465   1.486   7.651  0.00  0.00    +0.000 A 
ATOM     16 CL   UNL     1      46.646  -0.226   7.675  0.00  0.00    +0.000 Cl
ATOM     17  C   UNL     1      45.834   2.123   8.723  0.00  0.00    +0.000 A 
ENDBRANCH   8  10
ENDBRANCH   1   4
BRANCH   1  18
ATOM     18  C   UNL     1      47.003   6.452  13.254  0.00  0.00    +0.000 C 
BRANCH  18  23
ATOM     19  C   UNL     1      48.911   4.393  17.392  0.00  0.00    +0.000 A 
ATOM     20  C   UNL     1      47.931   3.496  16.984  0.00  0.00    +0.000 A 
ATOM     21  C   UNL     1      47.183   3.786  15.837  0.00  0.00    +0.000 A 
ATOM     22  C   UNL     1      47.436   4.953  15.118  0.00  0.00    +0.000 A 
ATOM     23  N   UNL     1      46.629   5.237  14.012  0.00  0.00    +0.000 N 
ATOM     24  N   UNL     1      48.375   5.834  15.518  0.00  0.00    +0.000 NA
ATOM     25  C   UNL     1      49.084   5.546  16.640  0.00  0.00    +0.000 A 
ATOM     26  H   UNL     1      46.529   4.424  13.409  0.00  0.00    +0.000 HD
BRANCH  19  28
ATOM     27  N   UNL     1      49.087   4.067  19.791  0.00  0.00    +0.000 N 
ATOM     28  C   UNL     1      49.744   4.192  18.596  0.00  0.00    +0.000 C 
ATOM     29  O   UNL     1      50.960   4.103  18.528  0.00  0.00    +0.000 OA
ATOM     30  H   UNL     1      49.657   3.832  20.595  0.00  0.00    +0.000 HD
ATOM     31  H   UNL     1      48.094   3.889  19.855  0.00  0.00    +0.000 HD
ENDBRANCH  19  28
ENDBRANCH  18  23
ENDBRANCH   1  18
TORSDOF 5
ENDMDL
MODEL 5
REMARK VINA RESULT:    -8.395      4.199      7.092
REMARK INTER + INTRA:         -11.890
REMARK INTER:                 -11.054
REMARK INTRA:                  -0.835
REMARK UNBOUND:                -1.040
REMARK  Name = 
REMARK  5 active torsions:
REMARK  status: ('A' for Active; 'I' for Inactive)
REMARK    1  A    between atoms: C_2  and  C_4
REMARK    2  A    between atoms: N_8  and  C_9
REMARK    3  A    between atoms: C_9  and  C_10
REMARK    4  A    between atoms: C_10  and  C_13
REMARK    5  A    between atoms: C_17  and  C_18
REMARK                            x       y       z     vdW  Elec       q    Type
REMARK                         _______ _______ _______ _____ _____    ______ ____
ROOT
ATOM      1  C   UNL     1      45.637   7.408  11.965  0.00  0.00    +0.000 C 
ATOM      2  F   UNL     1      45.239   7.617  13.260  0.00  0.00    +0.000 F 
ATOM      3  F   UNL     1      45.296   8.560  11.307  0.00  0.00    +0.000 F 
ENDROOT
BRANCH   1   4
ATOM      4  C   UNL     1      44.958   6.200  11.353  0.00  0.00    +0.000 A 
ATOM      5  C   UNL     1      43.668   5.816  11.735  0.00  0.00    +0.000 A 
ATOM      6  C   UNL     1      43.068   4.706  11.147  0.00  0.00    +0.000 A 
ATOM      7  C   UNL     1      43.744   3.980  10.162  0.00  0.00    +0.000 A 
ATOM      8  C   UNL     1      45.030   4.346   9.729  0.00  0.00    +0.000 A 
ATOM      9  C   UNL     1      45.624   5.455  10.359  0.00  0.00    +0.000 A 
BRANCH   8  10
ATOM     10  C   UNL     1      45.720   3.615   8.638  0.00  0.00    +0.000 A 
ATOM     11  C   UNL     1      46.287   4.289   7.538  0.00  0.00    +0.000 A 
ATOM     12  C   UNL     1      46.939   3.594   6.513  0.00  0.00    +0.000 A 
ATOM     13  C   UNL     1      47.044   2.212   6.577  0.00  0.00    +0.000 A 
ATOM     14  F   UNL     1      47.690   1.567   5.595  0.00  0.00    +0.000 F 
ATOM     15  C   UNL     1      46.487   1.516   7.642  0.00  0.00    +0.000 A 
ATOM     16 CL   UNL     1      46.615  -0.199   7.735  0.00  0.00    +0.000 Cl
ATOM     17  C   UNL     1      45.821   2.210   8.657  0.00  0.00    +0.000 A 
ENDBRANCH   8  10
ENDBRANCH   1   4
BRANCH   1  18
ATOM     18  C   UNL     1      47.181   7.273  11.963  0.00  0.00    +0.000 C 
BRANCH  18  23
ATOM     19  C   UNL     1      47.943   4.110  15.761  0.00  0.00    +0.000 A 
ATOM     20  C   UNL     1      48.315   5.350  16.268  0.00  0.00    +0.000 A 
ATOM     21  C   UNL     1      48.231   6.473  15.438  0.00  0.00    +0.000 A 
ATOM     22  C   UNL     1      47.768   6.339  14.129  0.00  0.00    +0.000 A 
ATOM     23  N   UNL     1      47.755   7.474  13.313  0.00  0.00    +0.000 N 
ATOM     24  N   UNL     1      47.420   5.137  13.628  0.00  0.00    +0.000 NA
ATOM     25  C   UNL     1      47.520   4.053  14.441  0.00  0.00    +0.000 A 
ATOM     26  H   UNL     1      47.339   8.269  13.792  0.00  0.00    +0.000 HD
BRANCH  19  28
ATOM     27  N   UNL     1      47.115   2.723  17.573  0.00  0.00    +0.000 N 
ATOM     28  C   UNL     1      48.010   2.860  16.546  0.00  0.00    +0.000 C 
ATOM     29  O   UNL     1      48.801   1.971  16.270  0.00  0.00    +0.000 OA
ATOM     30  H   UNL     1      47.102   1.826  18.041  0.00  0.00    +0.000 HD
ATOM     31  H   UNL     1      46.300   3.314  17.672  0.00  0.00    +0.000 HD
ENDBRANCH  19  28
ENDBRANCH  18  23
ENDBRANCH   1  18
TORSDOF 5
ENDMDL
MODEL 6
REMARK VINA RESULT:    -8.373      1.583      2.172
REMARK INTER + INTRA:         -11.861
REMARK INTER:                 -11.121
REMARK INTRA:                  -0.740
REMARK UNBOUND:                -1.040
REMARK  Name = 
REMARK  5 active torsions:
REMARK  status: ('A' for Active; 'I' for Inactive)
REMARK    1  A    between atoms: C_2  and  C_4
REMARK    2  A    between atoms: N_8  and  C_9
REMARK    3  A    between atoms: C_9  and  C_10
REMARK    4  A    between atoms: C_10  and  C_13
REMARK    5  A    between atoms: C_17  and  C_18
REMARK                            x       y       z     vdW  Elec       q    Type
REMARK                         _______ _______ _______ _____ _____    ______ ____
ROOT
ATOM      1  C   UNL     1      43.740   4.866  12.379  0.00  0.00    +0.000 C 
ATOM      2  F   UNL     1      42.663   4.986  13.219  0.00  0.00    +0.000 F 
ATOM      3  F   UNL     1      44.576   3.984  13.010  0.00  0.00    +0.000 F 
ENDROOT
BRANCH   1   4
ATOM      4  C   UNL     1      44.421   6.199  12.140  0.00  0.00    +0.000 A 
ATOM      5  C   UNL     1      43.720   7.296  11.630  0.00  0.00    +0.000 A 
ATOM      6  C   UNL     1      44.372   8.510  11.431  0.00  0.00    +0.000 A 
ATOM      7  C   UNL     1      45.725   8.642  11.754  0.00  0.00    +0.000 A 
ATOM      8  C   UNL     1      46.461   7.574  12.295  0.00  0.00    +0.000 A 
ATOM      9  C   UNL     1      45.785   6.351  12.461  0.00  0.00    +0.000 A 
BRANCH   8  10
ATOM     10  C   UNL     1      47.880   7.734  12.700  0.00  0.00    +0.000 A 
ATOM     11  C   UNL     1      48.252   7.886  14.050  0.00  0.00    +0.000 A 
ATOM     12  C   UNL     1      49.592   8.035  14.426  0.00  0.00    +0.000 A 
ATOM     13  C   UNL     1      50.584   8.021  13.457  0.00  0.00    +0.000 A 
ATOM     14  F   UNL     1      51.863   8.144  13.839  0.00  0.00    +0.000 F 
ATOM     15  C   UNL     1      50.251   7.882  12.115  0.00  0.00    +0.000 A 
ATOM     16 CL   UNL     1      51.474   7.859  10.903  0.00  0.00    +0.000 Cl
ATOM     17  C   UNL     1      48.911   7.752  11.740  0.00  0.00    +0.000 A 
ENDBRANCH   8  10
ENDBRANCH   1   4
BRANCH   1  18
ATOM     18  C   UNL     1      43.240   4.222  11.061  0.00  0.00    +0.000 C 
BRANCH  18  23
ATOM     19  C   UNL     1      46.462   2.273   7.771  0.00  0.00    +0.000 A 
ATOM     20  C   UNL     1      46.359   3.608   7.399  0.00  0.00    +0.000 A 
ATOM     21  C   UNL     1      45.508   4.449   8.125  0.00  0.00    +0.000 A 
ATOM     22  C   UNL     1      44.792   3.946   9.211  0.00  0.00    +0.000 A 
ATOM     23  N   UNL     1      43.909   4.802   9.874  0.00  0.00    +0.000 N 
ATOM     24  N   UNL     1      44.878   2.648   9.567  0.00  0.00    +0.000 NA
ATOM     25  C   UNL     1      45.697   1.841   8.844  0.00  0.00    +0.000 A 
ATOM     26  H   UNL     1      44.345   5.698  10.079  0.00  0.00    +0.000 HD
BRANCH  19  28
ATOM     27  N   UNL     1      48.459   1.779   6.482  0.00  0.00    +0.000 N 
ATOM     28  C   UNL     1      47.317   1.297   7.062  0.00  0.00    +0.000 C 
ATOM     29  O   UNL     1      47.039   0.108   7.026  0.00  0.00    +0.000 OA
ATOM     30  H   UNL     1      49.087   1.091   6.084  0.00  0.00    +0.000 HD
ATOM     31  H   UNL     1      48.842   2.690   6.698  0.00  0.00    +0.000 HD
ENDBRANCH  19  28
ENDBRANCH  18  23
ENDBRANCH   1  18
TORSDOF 5
ENDMDL
MODEL 7
REMARK VINA RESULT:    -8.317      2.476      3.137
REMARK INTER + INTRA:         -11.788
REMARK INTER:                 -10.846
REMARK INTRA:                  -0.943
REMARK UNBOUND:                -1.040
REMARK  Name = 
REMARK  5 active torsions:
REMARK  status: ('A' for Active; 'I' for Inactive)
REMARK    1  A    between atoms: C_2  and  C_4
REMARK    2  A    between atoms: N_8  and  C_9
REMARK    3  A    between atoms: C_9  and  C_10
REMARK    4  A    between atoms: C_10  and  C_13
REMARK    5  A    between atoms: C_17  and  C_18
REMARK                            x       y       z     vdW  Elec       q    Type
REMARK                         _______ _______ _______ _____ _____    ______ ____
ROOT
ATOM      1  C   UNL     1      43.805   5.175  12.308  0.00  0.00    +0.000 C 
ATOM      2  F   UNL     1      42.647   5.421  13.001  0.00  0.00    +0.000 F 
ATOM      3  F   UNL     1      44.394   4.134  12.976  0.00  0.00    +0.000 F 
ENDROOT
BRANCH   1   4
ATOM      4  C   UNL     1      44.709   6.390  12.270  0.00  0.00    +0.000 A 
ATOM      5  C   UNL     1      44.323   7.567  11.621  0.00  0.00    +0.000 A 
ATOM      6  C   UNL     1      45.173   8.670  11.611  0.00  0.00    +0.000 A 
ATOM      7  C   UNL     1      46.409   8.611  12.262  0.00  0.00    +0.000 A 
ATOM      8  C   UNL     1      46.825   7.458  12.950  0.00  0.00    +0.000 A 
ATOM      9  C   UNL     1      45.959   6.350  12.920  0.00  0.00    +0.000 A 
BRANCH   8  10
ATOM     10  C   UNL     1      48.106   7.418  13.696  0.00  0.00    +0.000 A 
ATOM     11  C   UNL     1      49.231   8.155  13.276  0.00  0.00    +0.000 A 
ATOM     12  C   UNL     1      50.437   8.115  13.985  0.00  0.00    +0.000 A 
ATOM     13  C   UNL     1      50.534   7.346  15.135  0.00  0.00    +0.000 A 
ATOM     14  F   UNL     1      51.691   7.337  15.812  0.00  0.00    +0.000 F 
ATOM     15  C   UNL     1      49.446   6.600  15.572  0.00  0.00    +0.000 A 
ATOM     16 CL   UNL     1      49.552   5.645  17.002  0.00  0.00    +0.000 Cl
ATOM     17  C   UNL     1      48.248   6.626  14.853  0.00  0.00    +0.000 A 
ENDBRANCH   8  10
ENDBRANCH   1   4
BRANCH   1  18
ATOM     18  C   UNL     1      43.410   4.696  10.888  0.00  0.00    +0.000 C 
BRANCH  18  23
ATOM     19  C   UNL     1      46.418   2.571   7.505  0.00  0.00    +0.000 A 
ATOM     20  C   UNL     1      45.877   1.498   8.204  0.00  0.00    +0.000 A 
ATOM     21  C   UNL     1      44.983   1.754   9.250  0.00  0.00    +0.000 A 
ATOM     22  C   UNL     1      44.640   3.067   9.567  0.00  0.00    +0.000 A 
ATOM     23  N   UNL     1      43.791   3.284  10.656  0.00  0.00    +0.000 N 
ATOM     24  N   UNL     1      45.174   4.112   8.903  0.00  0.00    +0.000 NA
ATOM     25  C   UNL     1      46.050   3.849   7.899  0.00  0.00    +0.000 A 
ATOM     26  H   UNL     1      42.981   2.670  10.622  0.00  0.00    +0.000 HD
BRANCH  19  28
ATOM     27  N   UNL     1      47.312   3.324   5.378  0.00  0.00    +0.000 N 
ATOM     28  C   UNL     1      47.383   2.413   6.397  0.00  0.00    +0.000 C 
ATOM     29  O   UNL     1      48.231   1.534   6.404  0.00  0.00    +0.000 OA
ATOM     30  H   UNL     1      48.038   3.269   4.674  0.00  0.00    +0.000 HD
ATOM     31  H   UNL     1      46.802   4.194   5.455  0.00  0.00    +0.000 HD
ENDBRANCH  19  28
ENDBRANCH  18  23
ENDBRANCH   1  18
TORSDOF 5
ENDMDL
MODEL 8
REMARK VINA RESULT:    -7.983      4.407      7.651
REMARK INTER + INTRA:         -11.356
REMARK INTER:                 -10.196
REMARK INTRA:                  -1.160
REMARK UNBOUND:                -1.040
REMARK  Name = 
REMARK  5 active torsions:
REMARK  status: ('A' for Active; 'I' for Inactive)
REMARK    1  A    between atoms: C_2  and  C_4
REMARK    2  A    between atoms: N_8  and  C_9
REMARK    3  A    between atoms: C_9  and  C_10
REMARK    4  A    between atoms: C_10  and  C_13
REMARK    5  A    between atoms: C_17  and  C_18
REMARK                            x       y       z     vdW  Elec       q    Type
REMARK                         _______ _______ _______ _____ _____    ______ ____
ROOT
ATOM      1  C   UNL     1      48.498   8.667  12.528  0.00  0.00    +0.000 C 
ATOM      2  F   UNL     1      48.539   9.459  13.647  0.00  0.00    +0.000 F 
ATOM      3  F   UNL     1      49.121   9.406  11.557  0.00  0.00    +0.000 F 
ENDROOT
BRANCH   1   4
ATOM      4  C   UNL     1      47.077   8.320  12.133  0.00  0.00    +0.000 A 
ATOM      5  C   UNL     1      46.044   9.257  12.229  0.00  0.00    +0.000 A 
ATOM      6  C   UNL     1      44.750   8.910  11.849  0.00  0.00    +0.000 A 
ATOM      7  C   UNL     1      44.482   7.629  11.356  0.00  0.00    +0.000 A 
ATOM      8  C   UNL     1      45.495   6.666  11.217  0.00  0.00    +0.000 A 
ATOM      9  C   UNL     1      46.787   7.034  11.634  0.00  0.00    +0.000 A 
BRANCH   8  10
ATOM     10  C   UNL     1      45.223   5.330  10.632  0.00  0.00    +0.000 A 
ATOM     11  C   UNL     1      44.564   4.322  11.363  0.00  0.00    +0.000 A 
ATOM     12  C   UNL     1      44.308   3.064  10.805  0.00  0.00    +0.000 A 
ATOM     13  C   UNL     1      44.696   2.798   9.500  0.00  0.00    +0.000 A 
ATOM     14  F   UNL     1      44.424   1.595   8.977  0.00  0.00    +0.000 F 
ATOM     15  C   UNL     1      45.357   3.767   8.755  0.00  0.00    +0.000 A 
ATOM     16 CL   UNL     1      45.841   3.450   7.132  0.00  0.00    +0.000 Cl
ATOM     17  C   UNL     1      45.628   5.017   9.319  0.00  0.00    +0.000 A 
ENDBRANCH   8  10
ENDBRANCH   1   4
BRANCH   1  18
ATOM     18  C   UNL     1      49.350   7.404  12.814  0.00  0.00    +0.000 C 
BRANCH  18  23
ATOM     19  C   UNL     1      48.079   4.671  16.804  0.00  0.00    +0.000 A 
ATOM     20  C   UNL     1      49.030   5.562  17.288  0.00  0.00    +0.000 A 
ATOM     21  C   UNL     1      49.609   6.479  16.405  0.00  0.00    +0.000 A 
ATOM     22  C   UNL     1      49.221   6.497  15.065  0.00  0.00    +0.000 A 
ATOM     23  N   UNL     1      49.865   7.388  14.202  0.00  0.00    +0.000 N 
ATOM     24  N   UNL     1      48.310   5.625  14.587  0.00  0.00    +0.000 NA
ATOM     25  C   UNL     1      47.766   4.732  15.454  0.00  0.00    +0.000 A 
ATOM     26  H   UNL     1      49.915   8.321  14.603  0.00  0.00    +0.000 HD
BRANCH  19  28
ATOM     27  N   UNL     1      48.004   3.370  18.852  0.00  0.00    +0.000 N 
ATOM     28  C   UNL     1      47.420   3.651  17.646  0.00  0.00    +0.000 C 
ATOM     29  O   UNL     1      46.380   3.109  17.303  0.00  0.00    +0.000 OA
ATOM     30  H   UNL     1      47.494   2.745  19.464  0.00  0.00    +0.000 HD
ATOM     31  H   UNL     1      48.708   3.963  19.272  0.00  0.00    +0.000 HD
ENDBRANCH  19  28
ENDBRANCH  18  23
ENDBRANCH   1  18
TORSDOF 5
ENDMDL
MODEL 9
REMARK VINA RESULT:    -7.484      5.103      8.100
REMARK INTER + INTRA:         -10.712
REMARK INTER:                  -9.749
REMARK INTRA:                  -0.963
REMARK UNBOUND:                -1.040
REMARK  Name = 
REMARK  5 active torsions:
REMARK  status: ('A' for Active; 'I' for Inactive)
REMARK    1  A    between atoms: C_2  and  C_4
REMARK    2  A    between atoms: N_8  and  C_9
REMARK    3  A    between atoms: C_9  and  C_10
REMARK    4  A    between atoms: C_10  and  C_13
REMARK    5  A    between atoms: C_17  and  C_18
REMARK                            x       y       z     vdW  Elec       q    Type
REMARK                         _______ _______ _______ _____ _____    ______ ____
ROOT
ATOM      1  C   UNL     1      48.648   8.000  12.892  0.00  0.00    +0.000 C 
ATOM      2  F   UNL     1      49.264   9.087  12.327  0.00  0.00    +0.000 F 
ATOM      3  F   UNL     1      49.443   6.936  12.555  0.00  0.00    +0.000 F 
ENDROOT
BRANCH   1   4
ATOM      4  C   UNL     1      47.235   7.819  12.375  0.00  0.00    +0.000 A 
ATOM      5  C   UNL     1      46.291   8.847  12.456  0.00  0.00    +0.000 A 
ATOM      6  C   UNL     1      45.003   8.653  11.963  0.00  0.00    +0.000 A 
ATOM      7  C   UNL     1      44.654   7.435  11.371  0.00  0.00    +0.000 A 
ATOM      8  C   UNL     1      45.579   6.385  11.243  0.00  0.00    +0.000 A 
ATOM      9  C   UNL     1      46.864   6.599  11.774  0.00  0.00    +0.000 A 
BRANCH   8  10
ATOM     10  C   UNL     1      45.227   5.119  10.556  0.00  0.00    +0.000 A 
ATOM     11  C   UNL     1      44.442   4.130  11.181  0.00  0.00    +0.000 A 
ATOM     12  C   UNL     1      44.111   2.938  10.527  0.00  0.00    +0.000 A 
ATOM     13  C   UNL     1      44.551   2.720   9.230  0.00  0.00    +0.000 A 
ATOM     14  F   UNL     1      44.206   1.581   8.613  0.00  0.00    +0.000 F 
ATOM     15  C   UNL     1      45.335   3.670   8.587  0.00  0.00    +0.000 A 
ATOM     16 CL   UNL     1      45.883   3.414   6.975  0.00  0.00    +0.000 Cl
ATOM     17  C   UNL     1      45.679   4.853   9.248  0.00  0.00    +0.000 A 
ENDBRANCH   8  10
ENDBRANCH   1   4
BRANCH   1  18
ATOM     18  C   UNL     1      48.687   8.183  14.430  0.00  0.00    +0.000 C 
BRANCH  18  23
ATOM     19  C   UNL     1      50.373   4.617  17.503  0.00  0.00    +0.000 A 
ATOM     20  C   UNL     1      49.026   4.317  17.337  0.00  0.00    +0.000 A 
ATOM     21  C   UNL     1      48.244   5.146  16.526  0.00  0.00    +0.000 A 
ATOM     22  C   UNL     1      48.821   6.244  15.890  0.00  0.00    +0.000 A 
ATOM     23  N   UNL     1      47.994   7.082  15.136  0.00  0.00    +0.000 N 
ATOM     24  N   UNL     1      50.123   6.549  16.060  0.00  0.00    +0.000 NA
ATOM     25  C   UNL     1      50.868   5.742  16.861  0.00  0.00    +0.000 A 
ATOM     26  H   UNL     1      47.393   6.546  14.514  0.00  0.00    +0.000 HD
BRANCH  19  28
ATOM     27  N   UNL     1      51.421   2.493  18.036  0.00  0.00    +0.000 N 
ATOM     28  C   UNL     1      51.283   3.819  18.350  0.00  0.00    +0.000 C 
ATOM     29  O   UNL     1      51.915   4.323  19.267  0.00  0.00    +0.000 OA
ATOM     30  H   UNL     1      52.119   1.977  18.557  0.00  0.00    +0.000 HD
ATOM     31  H   UNL     1      51.116   2.105  17.153  0.00  0.00    +0.000 HD
ENDBRANCH  19  28
ENDBRANCH  18  23
ENDBRANCH   1  18
TORSDOF 5
ENDMDL
