MODEL 1
REMARK VINA RESULT:    -9.085      0.000      0.000
REMARK INTER + INTRA:         -11.708
REMARK INTER:                 -11.209
REMARK INTRA:                  -0.499
REMARK UNBOUND:                -0.499
REMARK  Name = 
REMARK  6 active torsions:
REMARK  status: ('A' for Active; 'I' for Inactive)
REMARK    1  A    between atoms: C_1  and  C_2
REMARK    2  A    between atoms: C_9  and  C_10
REMARK    3  A    between atoms: C_10  and  N_11
REMARK    4  A    between atoms: N_11  and  C_12
REMARK    5  A    between atoms: C_15  and  C_16
REMARK    6  A    between atoms: C_25  and  C_26
REMARK                            x       y       z     vdW  Elec       q    Type
REMARK                         _______ _______ _______ _____ _____    ______ ____
ROOT
ATOM      1  C   UNL     1      43.896   4.981  11.345  0.00  0.00    +0.000 C 
ATOM      2  C   UNL     1      43.262   6.346  11.167  0.00  0.00    +0.000 C 
ATOM      3  C   UNL     1      42.556   5.333  12.002  0.00  0.00    +0.000 C 
ENDROOT
BRANCH   1  12
ATOM      4  C   UNL     1      49.429   7.150  11.646  0.00  0.00    +0.000 C 
ATOM      5  C   UNL     1      49.232   8.107  12.820  0.00  0.00    +0.000 C 
ATOM      6  C   UNL     1      48.567   7.463  14.059  0.00  0.00    +0.000 C 
ATOM      7  N   UNL     1      47.127   7.295  13.875  0.00  0.00    +0.000 N 
ATOM      8  C   UNL     1      46.672   6.058  13.474  0.00  0.00    +0.000 A 
ATOM      9  N   UNL     1      47.352   4.943  13.775  0.00  0.00    +0.000 NA
ATOM     10  C   UNL     1      46.834   3.769  13.365  0.00  0.00    +0.000 A 
ATOM     11  C   UNL     1      45.684   3.666  12.622  0.00  0.00    +0.000 A 
ATOM     12  C   UNL     1      45.069   4.857  12.308  0.00  0.00    +0.000 A 
ATOM     13  N   UNL     1      45.536   6.027  12.783  0.00  0.00    +0.000 NA
ATOM     14  C   UNL     1      46.430   8.485  13.362  0.00  0.00    +0.000 C 
ATOM     15  C   UNL     1      47.147   9.078  12.131  0.00  0.00    +0.000 C 
ATOM     16  C   UNL     1      46.540  10.426  11.755  0.00  0.00    +0.000 C 
ATOM     17  O   UNL     1      48.544   9.301  12.399  0.00  0.00    +0.000 OA
ENDBRANCH   1  12
BRANCH   1  18
ATOM     18  N   UNL     1      43.773   3.850  10.399  0.00  0.00    +0.000 N 
ATOM     19  H   UNL     1      43.323   3.030  10.811  0.00  0.00    +0.000 HD
BRANCH  18  20
ATOM     20  C   UNL     1      44.753   3.505   9.457  0.00  0.00    +0.000 A 
ATOM     21  C   UNL     1      45.119   2.160   9.314  0.00  0.00    +0.000 A 
ATOM     22  C   UNL     1      46.015   1.773   8.317  0.00  0.00    +0.000 A 
ATOM     23  C   UNL     1      46.511   2.756   7.476  0.00  0.00    +0.000 A 
ATOM     24  N   UNL     1      46.168   4.072   7.560  0.00  0.00    +0.000 NA
ATOM     25  C   UNL     1      45.290   4.398   8.535  0.00  0.00    +0.000 A 
BRANCH  23  26
ATOM     26  C   UNL     1      47.482   2.408   6.387  0.00  0.00    +0.000 C 
ATOM     27  N   UNL     1      47.407   3.233   5.300  0.00  0.00    +0.000 N 
ATOM     28  O   UNL     1      48.270   1.477   6.457  0.00  0.00    +0.000 OA
ATOM     29  H   UNL     1      46.729   3.988   5.297  0.00  0.00    +0.000 HD
ATOM     30  H   UNL     1      48.013   3.091   4.505  0.00  0.00    +0.000 HD
ENDBRANCH  23  26
ENDBRANCH  18  20
ENDBRANCH   1  18
TORSDOF 4
ENDMDL
MODEL 2
REMARK VINA RESULT:    -7.244      3.698      6.113
REMARK INTER + INTRA:          -9.437
REMARK INTER:                  -8.928
REMARK INTRA:                  -0.509
REMARK UNBOUND:                -0.499
REMARK  Name = 
REMARK  6 active torsions:
REMARK  status: ('A' for Active; 'I' for Inactive)
REMARK    1  A    between atoms: C_1  and  C_2
REMARK    2  A    between atoms: C_9  and  C_10
REMARK    3  A    between atoms: C_10  and  N_11
REMARK    4  A    between atoms: N_11  and  C_12
REMARK    5  A    between atoms: C_15  and  C_16
REMARK    6  A    between atoms: C_25  and  C_26
REMARK                            x       y       z     vdW  Elec       q    Type
REMARK                         _______ _______ _______ _____ _____    ______ ____
ROOT
ATOM      1  C   UNL     1      47.942   7.402  13.484  0.00  0.00    +0.000 C 
ATOM      2  C   UNL     1      48.935   6.666  12.608  0.00  0.00    +0.000 C 
ATOM      3  C   UNL     1      48.622   8.089  12.294  0.00  0.00    +0.000 C 
ENDROOT
BRANCH   1  12
ATOM      4  C   UNL     1      47.017   5.762  19.129  0.00  0.00    +0.000 C 
ATOM      5  C   UNL     1      48.400   5.186  19.426  0.00  0.00    +0.000 C 
ATOM      6  C   UNL     1      49.571   6.127  19.058  0.00  0.00    +0.000 C 
ATOM      7  N   UNL     1      49.820   6.144  17.618  0.00  0.00    +0.000 N 
ATOM      8  C   UNL     1      49.276   7.177  16.886  0.00  0.00    +0.000 A 
ATOM      9  N   UNL     1      49.039   8.370  17.448  0.00  0.00    +0.000 NA
ATOM     10  C   UNL     1      48.523   9.335  16.663  0.00  0.00    +0.000 A 
ATOM     11  C   UNL     1      48.187   9.143  15.346  0.00  0.00    +0.000 A 
ATOM     12  C   UNL     1      48.411   7.877  14.853  0.00  0.00    +0.000 A 
ATOM     13  N   UNL     1      49.001   6.931  15.607  0.00  0.00    +0.000 NA
ATOM     14  C   UNL     1      49.888   4.815  16.990  0.00  0.00    +0.000 C 
ATOM     15  C   UNL     1      48.694   3.929  17.402  0.00  0.00    +0.000 C 
ATOM     16  C   UNL     1      48.900   2.495  16.922  0.00  0.00    +0.000 C 
ATOM     17  O   UNL     1      48.550   3.881  18.834  0.00  0.00    +0.000 OA
ENDBRANCH   1  12
BRANCH   1  18
ATOM     18  N   UNL     1      46.471   7.357  13.336  0.00  0.00    +0.000 N 
ATOM     19  H   UNL     1      45.975   7.803  14.109  0.00  0.00    +0.000 HD
BRANCH  18  20
ATOM     20  C   UNL     1      45.768   6.261  12.813  0.00  0.00    +0.000 A 
ATOM     21  C   UNL     1      45.382   6.277  11.466  0.00  0.00    +0.000 A 
ATOM     22  C   UNL     1      44.772   5.161  10.891  0.00  0.00    +0.000 A 
ATOM     23  C   UNL     1      44.578   4.047  11.691  0.00  0.00    +0.000 A 
ATOM     24  N   UNL     1      44.957   3.974  12.999  0.00  0.00    +0.000 NA
ATOM     25  C   UNL     1      45.552   5.076  13.509  0.00  0.00    +0.000 A 
BRANCH  23  26
ATOM     26  C   UNL     1      43.924   2.816  11.138  0.00  0.00    +0.000 C 
ATOM     27  N   UNL     1      44.526   2.334  10.009  0.00  0.00    +0.000 N 
ATOM     28  O   UNL     1      42.946   2.286  11.641  0.00  0.00    +0.000 OA
ATOM     29  H   UNL     1      45.334   2.820   9.633  0.00  0.00    +0.000 HD
ATOM     30  H   UNL     1      44.169   1.510   9.548  0.00  0.00    +0.000 HD
ENDBRANCH  23  26
ENDBRANCH  18  20
ENDBRANCH   1  18
TORSDOF 4
ENDMDL
MODEL 3
REMARK VINA RESULT:    -6.686      3.539      5.957
REMARK INTER + INTRA:          -8.748
REMARK INTER:                  -8.495
REMARK INTRA:                  -0.254
REMARK UNBOUND:                -0.499
REMARK  Name = 
REMARK  6 active torsions:
REMARK  status: ('A' for Active; 'I' for Inactive)
REMARK    1  A    between atoms: C_1  and  C_2
REMARK    2  A    between atoms: C_9  and  C_10
REMARK    3  A    between atoms: C_10  and  N_11
REMARK    4  A    between atoms: N_11  and  C_12
REMARK    5  A    between atoms: C_15  and  C_16
REMARK    6  A    between atoms: C_25  and  C_26
REMARK                            x       y       z     vdW  Elec       q    Type
REMARK                         _______ _______ _______ _____ _____    ______ ____
ROOT
ATOM      1  C   UNL     1      48.318   7.495  13.156  0.00  0.00    +0.000 C 
ATOM      2  C   UNL     1      48.923   7.390  11.771  0.00  0.00    +0.000 C 
ATOM      3  C   UNL     1      48.246   8.660  12.161  0.00  0.00    +0.000 C 
ENDROOT
BRANCH   1  12
ATOM      4  C   UNL     1      47.896   7.177  19.082  0.00  0.00    +0.000 C 
ATOM      5  C   UNL     1      48.743   5.925  19.302  0.00  0.00    +0.000 C 
ATOM      6  C   UNL     1      50.124   5.965  18.609  0.00  0.00    +0.000 C 
ATOM      7  N   UNL     1      50.017   5.715  17.173  0.00  0.00    +0.000 N 
ATOM      8  C   UNL     1      50.002   6.807  16.332  0.00  0.00    +0.000 A 
ATOM      9  N   UNL     1      50.605   7.953  16.679  0.00  0.00    +0.000 NA
ATOM     10  C   UNL     1      50.561   8.969  15.796  0.00  0.00    +0.000 A 
ATOM     11  C   UNL     1      49.897   8.905  14.597  0.00  0.00    +0.000 A 
ATOM     12  C   UNL     1      49.258   7.713  14.333  0.00  0.00    +0.000 A 
ATOM     13  N   UNL     1      49.365   6.667  15.172  0.00  0.00    +0.000 NA
ATOM     14  C   UNL     1      49.189   4.554  16.811  0.00  0.00    +0.000 C 
ATOM     15  C   UNL     1      47.830   4.576  17.539  0.00  0.00    +0.000 C 
ATOM     16  C   UNL     1      47.085   3.261  17.323  0.00  0.00    +0.000 C 
ATOM     17  O   UNL     1      48.001   4.738  18.959  0.00  0.00    +0.000 OA
ENDBRANCH   1  12
BRANCH   1  18
ATOM     18  N   UNL     1      46.974   7.009  13.542  0.00  0.00    +0.000 N 
ATOM     19  H   UNL     1      46.823   7.006  14.552  0.00  0.00    +0.000 HD
BRANCH  18  20
ATOM     20  C   UNL     1      46.306   5.956  12.899  0.00  0.00    +0.000 A 
ATOM     21  C   UNL     1      46.402   4.662  13.429  0.00  0.00    +0.000 A 
ATOM     22  C   UNL     1      45.668   3.614  12.873  0.00  0.00    +0.000 A 
ATOM     23  C   UNL     1      44.841   3.902  11.799  0.00  0.00    +0.000 A 
ATOM     24  N   UNL     1      44.696   5.148  11.263  0.00  0.00    +0.000 NA
ATOM     25  C   UNL     1      45.420   6.133  11.841  0.00  0.00    +0.000 A 
BRANCH  23  26
ATOM     26  C   UNL     1      44.029   2.821  11.151  0.00  0.00    +0.000 C 
ATOM     27  N   UNL     1      44.572   2.345   9.991  0.00  0.00    +0.000 N 
ATOM     28  O   UNL     1      42.980   2.397  11.611  0.00  0.00    +0.000 OA
ATOM     29  H   UNL     1      45.446   2.739   9.654  0.00  0.00    +0.000 HD
ATOM     30  H   UNL     1      44.110   1.615   9.468  0.00  0.00    +0.000 HD
ENDBRANCH  23  26
ENDBRANCH  18  20
ENDBRANCH   1  18
TORSDOF 4
ENDMDL
MODEL 4
REMARK VINA RESULT:    -6.099      4.097      6.830
REMARK INTER + INTRA:          -8.025
REMARK INTER:                  -8.023
REMARK INTRA:                  -0.001
REMARK UNBOUND:                -0.499
REMARK  Name = 
REMARK  6 active torsions:
REMARK  status: ('A' for Active; 'I' for Inactive)
REMARK    1  A    between atoms: C_1  and  C_2
REMARK    2  A    between atoms: C_9  and  C_10
REMARK    3  A    between atoms: C_10  and  N_11
REMARK    4  A    between atoms: N_11  and  C_12
REMARK    5  A    between atoms: C_15  and  C_16
REMARK    6  A    between atoms: C_25  and  C_26
REMARK                            x       y       z     vdW  Elec       q    Type
REMARK                         _______ _______ _______ _____ _____    ______ ____
ROOT
ATOM      1  C   UNL     1      49.062   7.840  13.892  0.00  0.00    +0.000 C 
ATOM      2  C   UNL     1      48.821   9.242  13.371  0.00  0.00    +0.000 C 
ATOM      3  C   UNL     1      47.811   8.635  14.284  0.00  0.00    +0.000 C 
ENDROOT
BRANCH   1  12
ATOM      4  C   UNL     1      48.858   6.621  19.712  0.00  0.00    +0.000 C 
ATOM      5  C   UNL     1      49.421   5.202  19.666  0.00  0.00    +0.000 C 
ATOM      6  C   UNL     1      50.744   5.070  18.877  0.00  0.00    +0.000 C 
ATOM      7  N   UNL     1      50.518   5.094  17.433  0.00  0.00    +0.000 N 
ATOM      8  C   UNL     1      50.702   6.292  16.775  0.00  0.00    +0.000 A 
ATOM      9  N   UNL     1      51.556   7.212  17.245  0.00  0.00    +0.000 NA
ATOM     10  C   UNL     1      51.694   8.350  16.537  0.00  0.00    +0.000 A 
ATOM     11  C   UNL     1      50.976   8.628  15.400  0.00  0.00    +0.000 A 
ATOM     12  C   UNL     1      50.081   7.657  15.008  0.00  0.00    +0.000 A 
ATOM     13  N   UNL     1      49.996   6.484  15.664  0.00  0.00    +0.000 NA
ATOM     14  C   UNL     1      49.442   4.208  16.964  0.00  0.00    +0.000 C 
ATOM     15  C   UNL     1      48.155   4.388  17.795  0.00  0.00    +0.000 C 
ATOM     16  C   UNL     1      47.133   3.312  17.440  0.00  0.00    +0.000 C 
ATOM     17  O   UNL     1      48.423   4.269  19.205  0.00  0.00    +0.000 OA
ENDBRANCH   1  12
BRANCH   1  18
ATOM     18  N   UNL     1      48.725   6.590  13.175  0.00  0.00    +0.000 N 
ATOM     19  H   UNL     1      49.195   6.506  12.272  0.00  0.00    +0.000 HD
BRANCH  18  20
ATOM     20  C   UNL     1      47.448   6.009  13.168  0.00  0.00    +0.000 A 
ATOM     21  C   UNL     1      46.583   6.272  12.097  0.00  0.00    +0.000 A 
ATOM     22  C   UNL     1      45.348   5.630  12.011  0.00  0.00    +0.000 A 
ATOM     23  C   UNL     1      45.020   4.723  13.006  0.00  0.00    +0.000 A 
ATOM     24  N   UNL     1      45.836   4.416  14.054  0.00  0.00    +0.000 NA
ATOM     25  C   UNL     1      47.026   5.057  14.091  0.00  0.00    +0.000 A 
BRANCH  23  26
ATOM     26  C   UNL     1      43.705   4.003  12.976  0.00  0.00    +0.000 C 
ATOM     27  N   UNL     1      43.809   2.685  12.629  0.00  0.00    +0.000 N 
ATOM     28  O   UNL     1      42.637   4.534  13.237  0.00  0.00    +0.000 OA
ATOM     29  H   UNL     1      44.724   2.298  12.418  0.00  0.00    +0.000 HD
ATOM     30  H   UNL     1      42.986   2.101  12.575  0.00  0.00    +0.000 HD
ENDBRANCH  23  26
ENDBRANCH  18  20
ENDBRANCH   1  18
TORSDOF 4
ENDMDL
