MODEL 1
REMARK VINA RESULT:    -9.088      0.000      0.000
REMARK INTER + INTRA:         -12.240
REMARK INTER:                 -11.744
REMARK INTRA:                  -0.496
REMARK UNBOUND:                -0.496
REMARK  Name = 
REMARK  5 active torsions:
REMARK  status: ('A' for Active; 'I' for Inactive)
REMARK    1  A    between atoms: C_2  and  C_18
REMARK    2  A    between atoms: N_3  and  C_4
REMARK    3  A    between atoms: C_4  and  C_5
REMARK    4  A    between atoms: C_8  and  O_9
REMARK    5  A    between atoms: O_9  and  C_10
REMARK                            x       y       z     vdW  Elec       q    Type
REMARK                         _______ _______ _______ _____ _____    ______ ____
ROOT
ATOM      1  O   UNL     1      46.384   3.313  13.755  0.00  0.00    +0.000 OA
ATOM      2  C   UNL     1      46.268   4.513  14.000  0.00  0.00    +0.000 C 
ATOM      3  N   UNL     1      45.124   5.213  13.724  0.00  0.00    +0.000 N 
ATOM      4  H   UNL     1      45.149   6.226  13.756  0.00  0.00    +0.000 HD
ENDROOT
BRANCH   2   5
ATOM      5  C   UNL     1      47.339   5.268  14.660  0.00  0.00    +0.000 A 
ATOM      6  C   UNL     1      48.003   6.269  13.967  0.00  0.00    +0.000 A 
ATOM      7  S   UNL     1      49.236   7.023  14.874  0.00  0.00    +0.000 S 
ATOM      8  C   UNL     1      48.888   6.072  16.241  0.00  0.00    +0.000 A 
ATOM      9  N   UNL     1      49.576   6.239  17.404  0.00  0.00    +0.000 NA
ATOM     10  C   UNL     1      49.179   5.481  18.374  0.00  0.00    +0.000 A 
ATOM     11  N   UNL     1      48.164   4.564  18.281  0.00  0.00    +0.000 N 
ATOM     12  C   UNL     1      47.496   4.309  17.109  0.00  0.00    +0.000 A 
ATOM     13  O   UNL     1      46.690   3.385  17.029  0.00  0.00    +0.000 OA
ATOM     14  C   UNL     1      47.868   5.170  16.001  0.00  0.00    +0.000 A 
ATOM     15  H   UNL     1      47.924   3.980  19.068  0.00  0.00    +0.000 HD
ENDBRANCH   2   5
BRANCH   3  16
ATOM     16  C   UNL     1      44.019   4.646  12.995  0.00  0.00    +0.000 C 
BRANCH  16  17
ATOM     17  C   UNL     1      44.375   4.460  11.544  0.00  0.00    +0.000 A 
ATOM     18  C   UNL     1      43.881   3.355  10.840  0.00  0.00    +0.000 A 
ATOM     19  C   UNL     1      44.200   3.173   9.495  0.00  0.00    +0.000 A 
ATOM     20  C   UNL     1      44.971   4.124   8.821  0.00  0.00    +0.000 A 
ATOM     21  C   UNL     1      45.527   5.188   9.533  0.00  0.00    +0.000 A 
ATOM     22  C   UNL     1      45.237   5.353  10.890  0.00  0.00    +0.000 A 
BRANCH  20  23
ATOM     23  O   UNL     1      45.277   4.061   7.480  0.00  0.00    +0.000 OA
BRANCH  23  24
ATOM     24  C   UNL     1      46.227   3.166   7.039  0.00  0.00    +0.000 A 
ATOM     25  C   UNL     1      46.593   2.003   7.715  0.00  0.00    +0.000 A 
ATOM     26  C   UNL     1      47.601   1.225   7.174  0.00  0.00    +0.000 A 
ATOM     27  N   UNL     1      48.210   1.496   6.001  0.00  0.00    +0.000 NA
ATOM     28  C   UNL     1      47.786   2.591   5.335  0.00  0.00    +0.000 A 
ATOM     29  C   UNL     1      46.807   3.448   5.807  0.00  0.00    +0.000 A 
ENDBRANCH  23  24
ENDBRANCH  20  23
ENDBRANCH  16  17
ENDBRANCH   3  16
TORSDOF 5
ENDMDL
MODEL 2
REMARK VINA RESULT:    -8.689      1.520      2.128
REMARK INTER + INTRA:         -11.724
REMARK INTER:                 -11.040
REMARK INTRA:                  -0.685
REMARK UNBOUND:                -0.496
REMARK  Name = 
REMARK  5 active torsions:
REMARK  status: ('A' for Active; 'I' for Inactive)
REMARK    1  A    between atoms: C_2  and  C_18
REMARK    2  A    between atoms: N_3  and  C_4
REMARK    3  A    between atoms: C_4  and  C_5
REMARK    4  A    between atoms: C_8  and  O_9
REMARK    5  A    between atoms: O_9  and  C_10
REMARK                            x       y       z     vdW  Elec       q    Type
REMARK                         _______ _______ _______ _____ _____    ______ ____
ROOT
ATOM      1  O   UNL     1      48.397   7.178  12.661  0.00  0.00    +0.000 OA
ATOM      2  C   UNL     1      47.732   6.819  13.632  0.00  0.00    +0.000 C 
ATOM      3  N   UNL     1      46.364   6.759  13.607  0.00  0.00    +0.000 N 
ATOM      4  H   UNL     1      45.862   6.655  14.481  0.00  0.00    +0.000 HD
ENDROOT
BRANCH   2   5
ATOM      5  C   UNL     1      48.371   6.377  14.877  0.00  0.00    +0.000 A 
ATOM      6  C   UNL     1      49.417   7.113  15.414  0.00  0.00    +0.000 A 
ATOM      7  S   UNL     1      50.059   6.441  16.844  0.00  0.00    +0.000 S 
ATOM      8  C   UNL     1      48.927   5.171  16.822  0.00  0.00    +0.000 A 
ATOM      9  N   UNL     1      48.906   4.234  17.808  0.00  0.00    +0.000 NA
ATOM     10  C   UNL     1      47.967   3.353  17.690  0.00  0.00    +0.000 A 
ATOM     11  N   UNL     1      47.055   3.319  16.667  0.00  0.00    +0.000 N 
ATOM     12  C   UNL     1      47.087   4.197  15.612  0.00  0.00    +0.000 A 
ATOM     13  O   UNL     1      46.343   4.051  14.646  0.00  0.00    +0.000 OA
ATOM     14  C   UNL     1      48.090   5.239  15.723  0.00  0.00    +0.000 A 
ATOM     15  H   UNL     1      46.366   2.584  16.616  0.00  0.00    +0.000 HD
ENDBRANCH   2   5
BRANCH   3  16
ATOM     16  C   UNL     1      45.583   7.245  12.499  0.00  0.00    +0.000 C 
BRANCH  16  17
ATOM     17  C   UNL     1      45.346   6.151  11.492  0.00  0.00    +0.000 A 
ATOM     18  C   UNL     1      44.494   5.085  11.807  0.00  0.00    +0.000 A 
ATOM     19  C   UNL     1      44.262   4.067  10.883  0.00  0.00    +0.000 A 
ATOM     20  C   UNL     1      44.836   4.131   9.610  0.00  0.00    +0.000 A 
ATOM     21  C   UNL     1      45.743   5.149   9.314  0.00  0.00    +0.000 A 
ATOM     22  C   UNL     1      46.003   6.152  10.253  0.00  0.00    +0.000 A 
BRANCH  20  23
ATOM     23  O   UNL     1      44.608   3.209   8.614  0.00  0.00    +0.000 OA
BRANCH  23  24
ATOM     24  C   UNL     1      45.674   2.677   7.921  0.00  0.00    +0.000 A 
ATOM     25  C   UNL     1      46.395   3.352   6.938  0.00  0.00    +0.000 A 
ATOM     26  C   UNL     1      47.410   2.671   6.290  0.00  0.00    +0.000 A 
ATOM     27  N   UNL     1      47.781   1.411   6.595  0.00  0.00    +0.000 NA
ATOM     28  C   UNL     1      47.111   0.806   7.600  0.00  0.00    +0.000 A 
ATOM     29  C   UNL     1      46.061   1.392   8.286  0.00  0.00    +0.000 A 
ENDBRANCH  23  24
ENDBRANCH  20  23
ENDBRANCH  16  17
ENDBRANCH   3  16
TORSDOF 5
ENDMDL
MODEL 3
REMARK VINA RESULT:    -8.581      1.137      1.888
REMARK INTER + INTRA:         -11.585
REMARK INTER:                 -10.953
REMARK INTRA:                  -0.632
REMARK UNBOUND:                -0.496
REMARK  Name = 
REMARK  5 active torsions:
REMARK  status: ('A' for Active; 'I' for Inactive)
REMARK    1  A    between atoms: C_2  and  C_18
REMARK    2  A    between atoms: N_3  and  C_4
REMARK    3  A    between atoms: C_4  and  C_5
REMARK    4  A    between atoms: C_8  and  O_9
REMARK    5  A    between atoms: O_9  and  C_10
REMARK                            x       y       z     vdW  Elec       q    Type
REMARK                         _______ _______ _______ _____ _____    ______ ____
ROOT
ATOM      1  O   UNL     1      47.332   4.110  14.102  0.00  0.00    +0.000 OA
ATOM      2  C   UNL     1      47.179   5.325  13.985  0.00  0.00    +0.000 C 
ATOM      3  N   UNL     1      45.979   5.886  13.640  0.00  0.00    +0.000 N 
ATOM      4  H   UNL     1      45.955   6.861  13.361  0.00  0.00    +0.000 HD
ENDROOT
BRANCH   2   5
ATOM      5  C   UNL     1      48.271   6.265  14.262  0.00  0.00    +0.000 A 
ATOM      6  C   UNL     1      48.801   7.028  13.231  0.00  0.00    +0.000 A 
ATOM      7  S   UNL     1      50.080   8.044  13.723  0.00  0.00    +0.000 S 
ATOM      8  C   UNL     1      49.934   7.537  15.341  0.00  0.00    +0.000 A 
ATOM      9  N   UNL     1      50.732   8.058  16.312  0.00  0.00    +0.000 NA
ATOM     10  C   UNL     1      50.484   7.616  17.502  0.00  0.00    +0.000 A 
ATOM     11  N   UNL     1      49.517   6.691  17.804  0.00  0.00    +0.000 N 
ATOM     12  C   UNL     1      48.743   6.084  16.847  0.00  0.00    +0.000 A 
ATOM     13  O   UNL     1      47.986   5.161  17.138  0.00  0.00    +0.000 OA
ATOM     14  C   UNL     1      48.945   6.583  15.499  0.00  0.00    +0.000 A 
ATOM     15  H   UNL     1      49.396   6.363  18.751  0.00  0.00    +0.000 HD
ENDBRANCH   2   5
BRANCH   3  16
ATOM     16  C   UNL     1      44.837   5.103  13.245  0.00  0.00    +0.000 C 
BRANCH  16  17
ATOM     17  C   UNL     1      44.859   4.835  11.764  0.00  0.00    +0.000 A 
ATOM     18  C   UNL     1      45.625   5.647  10.919  0.00  0.00    +0.000 A 
ATOM     19  C   UNL     1      45.658   5.408   9.546  0.00  0.00    +0.000 A 
ATOM     20  C   UNL     1      44.968   4.319   9.006  0.00  0.00    +0.000 A 
ATOM     21  C   UNL     1      44.143   3.551   9.829  0.00  0.00    +0.000 A 
ATOM     22  C   UNL     1      44.082   3.811  11.201  0.00  0.00    +0.000 A 
BRANCH  20  23
ATOM     23  O   UNL     1      44.999   3.968   7.675  0.00  0.00    +0.000 OA
BRANCH  23  24
ATOM     24  C   UNL     1      45.986   3.124   7.216  0.00  0.00    +0.000 A 
ATOM     25  C   UNL     1      46.791   3.377   6.107  0.00  0.00    +0.000 A 
ATOM     26  C   UNL     1      47.709   2.411   5.733  0.00  0.00    +0.000 A 
ATOM     27  N   UNL     1      47.910   1.264   6.414  0.00  0.00    +0.000 NA
ATOM     28  C   UNL     1      47.164   1.078   7.525  0.00  0.00    +0.000 A 
ATOM     29  C   UNL     1      46.200   1.970   7.962  0.00  0.00    +0.000 A 
ENDBRANCH  23  24
ENDBRANCH  20  23
ENDBRANCH  16  17
ENDBRANCH   3  16
TORSDOF 5
ENDMDL
MODEL 4
REMARK VINA RESULT:    -8.540      1.799      2.702
REMARK INTER + INTRA:         -11.532
REMARK INTER:                 -11.043
REMARK INTRA:                  -0.489
REMARK UNBOUND:                -0.496
REMARK  Name = 
REMARK  5 active torsions:
REMARK  status: ('A' for Active; 'I' for Inactive)
REMARK    1  A    between atoms: C_2  and  C_18
REMARK    2  A    between atoms: N_3  and  C_4
REMARK    3  A    between atoms: C_4  and  C_5
REMARK    4  A    between atoms: C_8  and  O_9
REMARK    5  A    between atoms: O_9  and  C_10
REMARK                            x       y       z     vdW  Elec       q    Type
REMARK                         _______ _______ _______ _____ _____    ______ ____
ROOT
ATOM      1  O   UNL     1      46.759   3.642  14.131  0.00  0.00    +0.000 OA
ATOM      2  C   UNL     1      46.707   4.871  14.131  0.00  0.00    +0.000 C 
ATOM      3  N   UNL     1      45.583   5.560  13.760  0.00  0.00    +0.000 N 
ATOM      4  H   UNL     1      45.654   6.557  13.584  0.00  0.00    +0.000 HD
ENDROOT
BRANCH   2   5
ATOM      5  C   UNL     1      47.839   5.687  14.584  0.00  0.00    +0.000 A 
ATOM      6  C   UNL     1      48.305   5.557  15.884  0.00  0.00    +0.000 A 
ATOM      7  S   UNL     1      49.606   6.600  16.249  0.00  0.00    +0.000 S 
ATOM      8  C   UNL     1      49.623   7.222  14.665  0.00  0.00    +0.000 A 
ATOM      9  N   UNL     1      50.539   8.156  14.290  0.00  0.00    +0.000 NA
ATOM     10  C   UNL     1      50.467   8.508  13.048  0.00  0.00    +0.000 A 
ATOM     11  N   UNL     1      49.552   8.018  12.151  0.00  0.00    +0.000 N 
ATOM     12  C   UNL     1      48.563   7.134  12.505  0.00  0.00    +0.000 A 
ATOM     13  O   UNL     1      47.678   6.826  11.711  0.00  0.00    +0.000 OA
ATOM     14  C   UNL     1      48.632   6.667  13.877  0.00  0.00    +0.000 A 
ATOM     15  H   UNL     1      49.528   8.359  11.202  0.00  0.00    +0.000 HD
ENDBRANCH   2   5
BRANCH   3  16
ATOM     16  C   UNL     1      44.422   4.916  13.203  0.00  0.00    +0.000 C 
BRANCH  16  17
ATOM     17  C   UNL     1      44.627   4.614  11.742  0.00  0.00    +0.000 A 
ATOM     18  C   UNL     1      44.155   3.411  11.206  0.00  0.00    +0.000 A 
ATOM     19  C   UNL     1      44.335   3.120   9.854  0.00  0.00    +0.000 A 
ATOM     20  C   UNL     1      44.941   4.053   9.009  0.00  0.00    +0.000 A 
ATOM     21  C   UNL     1      45.481   5.221   9.550  0.00  0.00    +0.000 A 
ATOM     22  C   UNL     1      45.332   5.499  10.912  0.00  0.00    +0.000 A 
BRANCH  20  23
ATOM     23  O   UNL     1      45.099   3.879   7.653  0.00  0.00    +0.000 OA
BRANCH  23  24
ATOM     24  C   UNL     1      46.078   3.031   7.184  0.00  0.00    +0.000 A 
ATOM     25  C   UNL     1      46.458   1.842   7.803  0.00  0.00    +0.000 A 
ATOM     26  C   UNL     1      47.495   1.117   7.242  0.00  0.00    +0.000 A 
ATOM     27  N   UNL     1      48.120   1.465   6.098  0.00  0.00    +0.000 NA
ATOM     28  C   UNL     1      47.683   2.584   5.482  0.00  0.00    +0.000 A 
ATOM     29  C   UNL     1      46.675   3.392   5.980  0.00  0.00    +0.000 A 
ENDBRANCH  23  24
ENDBRANCH  20  23
ENDBRANCH  16  17
ENDBRANCH   3  16
TORSDOF 5
ENDMDL
MODEL 5
REMARK VINA RESULT:    -8.480      1.728      2.081
REMARK INTER + INTRA:         -11.454
REMARK INTER:                 -10.614
REMARK INTRA:                  -0.840
REMARK UNBOUND:                -0.496
REMARK  Name = 
REMARK  5 active torsions:
REMARK  status: ('A' for Active; 'I' for Inactive)
REMARK    1  A    between atoms: C_2  and  C_18
REMARK    2  A    between atoms: N_3  and  C_4
REMARK    3  A    between atoms: C_4  and  C_5
REMARK    4  A    between atoms: C_8  and  O_9
REMARK    5  A    between atoms: O_9  and  C_10
REMARK                            x       y       z     vdW  Elec       q    Type
REMARK                         _______ _______ _______ _____ _____    ______ ____
ROOT
ATOM      1  O   UNL     1      48.247   5.984  13.360  0.00  0.00    +0.000 OA
ATOM      2  C   UNL     1      47.384   5.626  14.160  0.00  0.00    +0.000 C 
ATOM      3  N   UNL     1      46.047   5.820  13.939  0.00  0.00    +0.000 N 
ATOM      4  H   UNL     1      45.398   5.693  14.708  0.00  0.00    +0.000 HD
ENDROOT
BRANCH   2   5
ATOM      5  C   UNL     1      47.732   4.911  15.394  0.00  0.00    +0.000 A 
ATOM      6  C   UNL     1      47.441   3.560  15.513  0.00  0.00    +0.000 A 
ATOM      7  S   UNL     1      47.887   2.897  17.020  0.00  0.00    +0.000 S 
ATOM      8  C   UNL     1      48.531   4.382  17.545  0.00  0.00    +0.000 A 
ATOM      9  N   UNL     1      49.115   4.498  18.769  0.00  0.00    +0.000 NA
ATOM     10  C   UNL     1      49.601   5.669  19.021  0.00  0.00    +0.000 A 
ATOM     11  N   UNL     1      49.545   6.737  18.162  0.00  0.00    +0.000 N 
ATOM     12  C   UNL     1      48.900   6.686  16.952  0.00  0.00    +0.000 A 
ATOM     13  O   UNL     1      48.749   7.699  16.272  0.00  0.00    +0.000 OA
ATOM     14  C   UNL     1      48.381   5.378  16.597  0.00  0.00    +0.000 A 
ATOM     15  H   UNL     1      49.916   7.636  18.433  0.00  0.00    +0.000 HD
ENDBRANCH   2   5
BRANCH   3  16
ATOM     16  C   UNL     1      45.544   6.585  12.827  0.00  0.00    +0.000 C 
BRANCH  16  17
ATOM     17  C   UNL     1      45.342   5.706  11.622  0.00  0.00    +0.000 A 
ATOM     18  C   UNL     1      44.562   4.548  11.726  0.00  0.00    +0.000 A 
ATOM     19  C   UNL     1      44.363   3.727  10.617  0.00  0.00    +0.000 A 
ATOM     20  C   UNL     1      44.896   4.082   9.375  0.00  0.00    +0.000 A 
ATOM     21  C   UNL     1      45.734   5.194   9.279  0.00  0.00    +0.000 A 
ATOM     22  C   UNL     1      45.963   5.999  10.399  0.00  0.00    +0.000 A 
BRANCH  20  23
ATOM     23  O   UNL     1      44.694   3.369   8.215  0.00  0.00    +0.000 OA
BRANCH  23  24
ATOM     24  C   UNL     1      45.737   2.662   7.659  0.00  0.00    +0.000 A 
ATOM     25  C   UNL     1      46.198   1.433   8.127  0.00  0.00    +0.000 A 
ATOM     26  C   UNL     1      47.291   0.863   7.497  0.00  0.00    +0.000 A 
ATOM     27  N   UNL     1      47.899   1.400   6.420  0.00  0.00    +0.000 NA
ATOM     28  C   UNL     1      47.387   2.556   5.945  0.00  0.00    +0.000 A 
ATOM     29  C   UNL     1      46.318   3.218   6.524  0.00  0.00    +0.000 A 
ENDBRANCH  23  24
ENDBRANCH  20  23
ENDBRANCH  16  17
ENDBRANCH   3  16
TORSDOF 5
ENDMDL
MODEL 6
REMARK VINA RESULT:    -7.961      2.912      3.845
REMARK INTER + INTRA:         -10.784
REMARK INTER:                  -9.863
REMARK INTRA:                  -0.921
REMARK UNBOUND:                -0.496
REMARK  Name = 
REMARK  5 active torsions:
REMARK  status: ('A' for Active; 'I' for Inactive)
REMARK    1  A    between atoms: C_2  and  C_18
REMARK    2  A    between atoms: N_3  and  C_4
REMARK    3  A    between atoms: C_4  and  C_5
REMARK    4  A    between atoms: C_8  and  O_9
REMARK    5  A    between atoms: O_9  and  C_10
REMARK                            x       y       z     vdW  Elec       q    Type
REMARK                         _______ _______ _______ _____ _____    ______ ____
ROOT
ATOM      1  O   UNL     1      45.884   8.717  13.260  0.00  0.00    +0.000 OA
ATOM      2  C   UNL     1      46.721   7.853  13.517  0.00  0.00    +0.000 C 
ATOM      3  N   UNL     1      46.449   6.514  13.431  0.00  0.00    +0.000 N 
ATOM      4  H   UNL     1      47.098   5.854  13.843  0.00  0.00    +0.000 HD
ENDROOT
BRANCH   2   5
ATOM      5  C   UNL     1      48.097   8.205  13.887  0.00  0.00    +0.000 A 
ATOM      6  C   UNL     1      48.367   8.683  15.162  0.00  0.00    +0.000 A 
ATOM      7  S   UNL     1      50.009   9.069  15.411  0.00  0.00    +0.000 S 
ATOM      8  C   UNL     1      50.424   8.562  13.841  0.00  0.00    +0.000 A 
ATOM      9  N   UNL     1      51.715   8.601  13.411  0.00  0.00    +0.000 NA
ATOM     10  C   UNL     1      51.894   8.146  12.214  0.00  0.00    +0.000 A 
ATOM     11  N   UNL     1      50.895   7.666  11.405  0.00  0.00    +0.000 N 
ATOM     12  C   UNL     1      49.572   7.680  11.769  0.00  0.00    +0.000 A 
ATOM     13  O   UNL     1      48.693   7.374  10.967  0.00  0.00    +0.000 OA
ATOM     14  C   UNL     1      49.322   8.134  13.124  0.00  0.00    +0.000 A 
ATOM     15  H   UNL     1      51.098   7.355  10.467  0.00  0.00    +0.000 HD
ENDBRANCH   2   5
BRANCH   3  16
ATOM     16  C   UNL     1      45.128   6.002  13.173  0.00  0.00    +0.000 C 
BRANCH  16  17
ATOM     17  C   UNL     1      45.037   5.434  11.782  0.00  0.00    +0.000 A 
ATOM     18  C   UNL     1      45.868   5.929  10.770  0.00  0.00    +0.000 A 
ATOM     19  C   UNL     1      45.798   5.409   9.478  0.00  0.00    +0.000 A 
ATOM     20  C   UNL     1      44.933   4.349   9.195  0.00  0.00    +0.000 A 
ATOM     21  C   UNL     1      44.049   3.900  10.177  0.00  0.00    +0.000 A 
ATOM     22  C   UNL     1      44.095   4.444  11.464  0.00  0.00    +0.000 A 
BRANCH  20  23
ATOM     23  O   UNL     1      44.846   3.730   7.968  0.00  0.00    +0.000 OA
BRANCH  23  24
ATOM     24  C   UNL     1      45.893   2.953   7.522  0.00  0.00    +0.000 A 
ATOM     25  C   UNL     1      46.834   3.358   6.577  0.00  0.00    +0.000 A 
ATOM     26  C   UNL     1      47.801   2.449   6.188  0.00  0.00    +0.000 A 
ATOM     27  N   UNL     1      47.922   1.212   6.712  0.00  0.00    +0.000 NA
ATOM     28  C   UNL     1      47.039   0.871   7.676  0.00  0.00    +0.000 A 
ATOM     29  C   UNL     1      46.018   1.698   8.111  0.00  0.00    +0.000 A 
ENDBRANCH  23  24
ENDBRANCH  20  23
ENDBRANCH  16  17
ENDBRANCH   3  16
TORSDOF 5
ENDMDL
MODEL 7
REMARK VINA RESULT:    -7.856      2.731      3.715
REMARK INTER + INTRA:         -10.648
REMARK INTER:                 -10.155
REMARK INTRA:                  -0.494
REMARK UNBOUND:                -0.496
REMARK  Name = 
REMARK  5 active torsions:
REMARK  status: ('A' for Active; 'I' for Inactive)
REMARK    1  A    between atoms: C_2  and  C_18
REMARK    2  A    between atoms: N_3  and  C_4
REMARK    3  A    between atoms: C_4  and  C_5
REMARK    4  A    between atoms: C_8  and  O_9
REMARK    5  A    between atoms: O_9  and  C_10
REMARK                            x       y       z     vdW  Elec       q    Type
REMARK                         _______ _______ _______ _____ _____    ______ ____
ROOT
ATOM      1  O   UNL     1      48.218   5.394  15.238  0.00  0.00    +0.000 OA
ATOM      2  C   UNL     1      47.898   6.283  14.450  0.00  0.00    +0.000 C 
ATOM      3  N   UNL     1      46.726   6.254  13.743  0.00  0.00    +0.000 N 
ATOM      4  H   UNL     1      46.604   6.896  12.968  0.00  0.00    +0.000 HD
ENDROOT
BRANCH   2   5
ATOM      5  C   UNL     1      48.736   7.471  14.254  0.00  0.00    +0.000 A 
ATOM      6  C   UNL     1      50.085   7.424  14.576  0.00  0.00    +0.000 A 
ATOM      7  S   UNL     1      50.901   8.899  14.312  0.00  0.00    +0.000 S 
ATOM      8  C   UNL     1      49.490   9.635  13.710  0.00  0.00    +0.000 A 
ATOM      9  N   UNL     1      49.506  10.922  13.267  0.00  0.00    +0.000 NA
ATOM     10  C   UNL     1      48.377  11.340  12.795  0.00  0.00    +0.000 A 
ATOM     11  N   UNL     1      47.231  10.590  12.739  0.00  0.00    +0.000 N 
ATOM     12  C   UNL     1      47.150   9.316  13.244  0.00  0.00    +0.000 A 
ATOM     13  O   UNL     1      46.073   8.727  13.303  0.00  0.00    +0.000 OA
ATOM     14  C   UNL     1      48.404   8.780  13.738  0.00  0.00    +0.000 A 
ATOM     15  H   UNL     1      46.372  10.987  12.388  0.00  0.00    +0.000 HD
ENDBRANCH   2   5
BRANCH   3  16
ATOM     16  C   UNL     1      45.839   5.120  13.750  0.00  0.00    +0.000 C 
BRANCH  16  17
ATOM     17  C   UNL     1      45.535   4.670  12.346  0.00  0.00    +0.000 A 
ATOM     18  C   UNL     1      45.688   5.564  11.279  0.00  0.00    +0.000 A 
ATOM     19  C   UNL     1      45.414   5.160   9.973  0.00  0.00    +0.000 A 
ATOM     20  C   UNL     1      45.036   3.841   9.711  0.00  0.00    +0.000 A 
ATOM     21  C   UNL     1      44.810   2.966  10.774  0.00  0.00    +0.000 A 
ATOM     22  C   UNL     1      45.051   3.379  12.088  0.00  0.00    +0.000 A 
BRANCH  20  23
ATOM     23  O   UNL     1      44.813   3.338   8.449  0.00  0.00    +0.000 OA
BRANCH  23  24
ATOM     24  C   UNL     1      45.806   2.626   7.813  0.00  0.00    +0.000 A 
ATOM     25  C   UNL     1      46.105   1.288   8.062  0.00  0.00    +0.000 A 
ATOM     26  C   UNL     1      47.167   0.719   7.381  0.00  0.00    +0.000 A 
ATOM     27  N   UNL     1      47.892   1.367   6.446  0.00  0.00    +0.000 NA
ATOM     28  C   UNL     1      47.534   2.640   6.175  0.00  0.00    +0.000 A 
ATOM     29  C   UNL     1      46.509   3.307   6.824  0.00  0.00    +0.000 A 
ENDBRANCH  23  24
ENDBRANCH  20  23
ENDBRANCH  16  17
ENDBRANCH   3  16
TORSDOF 5
ENDMDL
MODEL 8
REMARK VINA RESULT:    -7.746      2.154      3.211
REMARK INTER + INTRA:         -10.506
REMARK INTER:                  -9.565
REMARK INTRA:                  -0.941
REMARK UNBOUND:                -0.496
REMARK  Name = 
REMARK  5 active torsions:
REMARK  status: ('A' for Active; 'I' for Inactive)
REMARK    1  A    between atoms: C_2  and  C_18
REMARK    2  A    between atoms: N_3  and  C_4
REMARK    3  A    between atoms: C_4  and  C_5
REMARK    4  A    between atoms: C_8  and  O_9
REMARK    5  A    between atoms: O_9  and  C_10
REMARK                            x       y       z     vdW  Elec       q    Type
REMARK                         _______ _______ _______ _____ _____    ______ ____
ROOT
ATOM      1  O   UNL     1      49.917   7.350  14.197  0.00  0.00    +0.000 OA
ATOM      2  C   UNL     1      49.016   7.142  15.008  0.00  0.00    +0.000 C 
ATOM      3  N   UNL     1      47.702   7.415  14.736  0.00  0.00    +0.000 N 
ATOM      4  H   UNL     1      47.033   7.417  15.498  0.00  0.00    +0.000 HD
ENDROOT
BRANCH   2   5
ATOM      5  C   UNL     1      49.287   6.532  16.315  0.00  0.00    +0.000 A 
ATOM      6  C   UNL     1      50.095   7.193  17.229  0.00  0.00    +0.000 A 
ATOM      7  S   UNL     1      50.327   6.329  18.682  0.00  0.00    +0.000 S 
ATOM      8  C   UNL     1      49.314   5.067  18.158  0.00  0.00    +0.000 A 
ATOM      9  N   UNL     1      49.054   3.999  18.961  0.00  0.00    +0.000 NA
ATOM     10  C   UNL     1      48.234   3.136  18.455  0.00  0.00    +0.000 A 
ATOM     11  N   UNL     1      47.661   3.241  17.214  0.00  0.00    +0.000 N 
ATOM     12  C   UNL     1      47.954   4.261  16.342  0.00  0.00    +0.000 A 
ATOM     13  O   UNL     1      47.530   4.247  15.189  0.00  0.00    +0.000 OA
ATOM     14  C   UNL     1      48.829   5.284  16.881  0.00  0.00    +0.000 A 
ATOM     15  H   UNL     1      47.053   2.516  16.864  0.00  0.00    +0.000 HD
ENDBRANCH   2   5
BRANCH   3  16
ATOM     16  C   UNL     1      47.279   8.099  13.541  0.00  0.00    +0.000 C 
BRANCH  16  17
ATOM     17  C   UNL     1      46.401   7.211  12.700  0.00  0.00    +0.000 A 
ATOM     18  C   UNL     1      45.290   7.750  12.041  0.00  0.00    +0.000 A 
ATOM     19  C   UNL     1      44.471   6.940  11.255  0.00  0.00    +0.000 A 
ATOM     20  C   UNL     1      44.785   5.590  11.074  0.00  0.00    +0.000 A 
ATOM     21  C   UNL     1      45.846   5.029  11.785  0.00  0.00    +0.000 A 
ATOM     22  C   UNL     1      46.648   5.833  12.601  0.00  0.00    +0.000 A 
BRANCH  20  23
ATOM     23  O   UNL     1      44.073   4.734  10.263  0.00  0.00    +0.000 OA
BRANCH  23  24
ATOM     24  C   UNL     1      44.746   3.845   9.455  0.00  0.00    +0.000 A 
ATOM     25  C   UNL     1      44.687   2.458   9.582  0.00  0.00    +0.000 A 
ATOM     26  C   UNL     1      45.460   1.691   8.727  0.00  0.00    +0.000 A 
ATOM     27  N   UNL     1      46.221   2.206   7.740  0.00  0.00    +0.000 NA
ATOM     28  C   UNL     1      46.203   3.548   7.595  0.00  0.00    +0.000 A 
ATOM     29  C   UNL     1      45.489   4.401   8.418  0.00  0.00    +0.000 A 
ENDBRANCH  23  24
ENDBRANCH  20  23
ENDBRANCH  16  17
ENDBRANCH   3  16
TORSDOF 5
ENDMDL
