MODEL 1
REMARK VINA RESULT:    -9.179      0.000      0.000
REMARK INTER + INTRA:         -12.064
REMARK INTER:                 -11.325
REMARK INTRA:                  -0.739
REMARK UNBOUND:                -0.739
REMARK  Name = 
REMARK  4 active torsions:
REMARK  status: ('A' for Active; 'I' for Inactive)
REMARK    1  A    between atoms: C_2  and  C_4
REMARK    2  A    between atoms: N_8  and  C_9
REMARK    3  A    between atoms: C_9  and  C_10
REMARK    4  A    between atoms: C_14  and  C_15
REMARK                            x       y       z     vdW  Elec       q    Type
REMARK                         _______ _______ _______ _____ _____    ______ ____
ROOT
ATOM      1  C   UNL     1      43.429   4.742  10.982  0.00  0.00    +0.000 C 
ENDROOT
BRANCH   1   6
ATOM      2  C   UNL     1      46.398   2.280   7.666  0.00  0.00    +0.000 A 
ATOM      3  C   UNL     1      45.625   1.794   8.713  0.00  0.00    +0.000 A 
ATOM      4  C   UNL     1      44.770   2.663   9.390  0.00  0.00    +0.000 A 
ATOM      5  C   UNL     1      44.711   4.008   9.028  0.00  0.00    +0.000 A 
ATOM      6  N   UNL     1      43.806   4.895   9.587  0.00  0.00    +0.000 N 
ATOM      7  N   UNL     1      45.483   4.496   8.037  0.00  0.00    +0.000 NA
ATOM      8  C   UNL     1      46.312   3.634   7.382  0.00  0.00    +0.000 A 
ATOM      9  H   UNL     1      44.072   5.840   9.318  0.00  0.00    +0.000 HD
BRANCH   2  11
ATOM     10  N   UNL     1      48.369   2.013   6.278  0.00  0.00    +0.000 N 
ATOM     11  C   UNL     1      47.289   1.413   6.871  0.00  0.00    +0.000 C 
ATOM     12  O   UNL     1      47.096   0.214   6.773  0.00  0.00    +0.000 OA
ATOM     13  H   UNL     1      49.030   1.399   5.815  0.00  0.00    +0.000 HD
ATOM     14  H   UNL     1      48.700   2.930   6.546  0.00  0.00    +0.000 HD
ENDBRANCH   2  11
ENDBRANCH   1   6
BRANCH   1  15
ATOM     15  C   UNL     1      44.584   5.054  11.916  0.00  0.00    +0.000 A 
ATOM     16  C   UNL     1      44.950   4.136  12.897  0.00  0.00    +0.000 A 
ATOM     17  C   UNL     1      46.055   4.409  13.690  0.00  0.00    +0.000 A 
ATOM     18  C   UNL     1      46.757   5.593  13.490  0.00  0.00    +0.000 A 
ATOM     19  C   UNL     1      46.336   6.481  12.500  0.00  0.00    +0.000 A 
ATOM     20  N   UNL     1      45.251   6.223  11.725  0.00  0.00    +0.000 NA
BRANCH  19  21
ATOM     21  C   UNL     1      47.044   7.749  12.228  0.00  0.00    +0.000 A 
ATOM     22  C   UNL     1      48.394   7.765  11.821  0.00  0.00    +0.000 A 
ATOM     23  C   UNL     1      49.072   8.966  11.598  0.00  0.00    +0.000 A 
ATOM     24  C   UNL     1      48.401  10.171  11.769  0.00  0.00    +0.000 A 
ATOM     25  F   UNL     1      49.053  11.320  11.564  0.00  0.00    +0.000 F 
ATOM     26  C   UNL     1      47.066  10.193  12.148  0.00  0.00    +0.000 A 
ATOM     27  C   UNL     1      46.392   8.989  12.371  0.00  0.00    +0.000 A 
ENDBRANCH  19  21
ENDBRANCH   1  15
TORSDOF 4
ENDMDL
MODEL 2
REMARK VINA RESULT:    -8.272      2.654      3.932
REMARK INTER + INTRA:         -10.945
REMARK INTER:                 -10.224
REMARK INTRA:                  -0.722
REMARK UNBOUND:                -0.739
REMARK  Name = 
REMARK  4 active torsions:
REMARK  status: ('A' for Active; 'I' for Inactive)
REMARK    1  A    between atoms: C_2  and  C_4
REMARK    2  A    between atoms: N_8  and  C_9
REMARK    3  A    between atoms: C_9  and  C_10
REMARK    4  A    between atoms: C_14  and  C_15
REMARK                            x       y       z     vdW  Elec       q    Type
REMARK                         _______ _______ _______ _____ _____    ______ ____
ROOT
ATOM      1  C   UNL     1      43.980   4.810  11.283  0.00  0.00    +0.000 C 
ENDROOT
BRANCH   1   6
ATOM      2  C   UNL     1      46.412   2.286   7.597  0.00  0.00    +0.000 A 
ATOM      3  C   UNL     1      45.911   1.838   8.813  0.00  0.00    +0.000 A 
ATOM      4  C   UNL     1      45.141   2.701   9.592  0.00  0.00    +0.000 A 
ATOM      5  C   UNL     1      44.897   4.003   9.160  0.00  0.00    +0.000 A 
ATOM      6  N   UNL     1      44.052   4.870   9.833  0.00  0.00    +0.000 N 
ATOM      7  N   UNL     1      45.407   4.457   7.998  0.00  0.00    +0.000 NA
ATOM      8  C   UNL     1      46.156   3.602   7.245  0.00  0.00    +0.000 A 
ATOM      9  H   UNL     1      44.177   5.805   9.450  0.00  0.00    +0.000 HD
BRANCH   2  11
ATOM     10  N   UNL     1      48.184   2.017   5.963  0.00  0.00    +0.000 N 
ATOM     11  C   UNL     1      47.193   1.417   6.694  0.00  0.00    +0.000 C 
ATOM     12  O   UNL     1      46.992   0.218   6.627  0.00  0.00    +0.000 OA
ATOM     13  H   UNL     1      48.780   1.403   5.419  0.00  0.00    +0.000 HD
ATOM     14  H   UNL     1      48.545   2.936   6.183  0.00  0.00    +0.000 HD
ENDBRANCH   2  11
ENDBRANCH   1   6
BRANCH   1  15
ATOM     15  C   UNL     1      45.077   5.631  11.937  0.00  0.00    +0.000 A 
ATOM     16  C   UNL     1      45.345   6.919  11.479  0.00  0.00    +0.000 A 
ATOM     17  C   UNL     1      46.300   7.678  12.140  0.00  0.00    +0.000 A 
ATOM     18  C   UNL     1      46.968   7.129  13.228  0.00  0.00    +0.000 A 
ATOM     19  C   UNL     1      46.668   5.828  13.634  0.00  0.00    +0.000 A 
ATOM     20  N   UNL     1      45.737   5.078  12.988  0.00  0.00    +0.000 NA
BRANCH  19  21
ATOM     21  C   UNL     1      47.330   5.190  14.789  0.00  0.00    +0.000 A 
ATOM     22  C   UNL     1      47.091   3.841  15.122  0.00  0.00    +0.000 A 
ATOM     23  C   UNL     1      47.691   3.250  16.236  0.00  0.00    +0.000 A 
ATOM     24  C   UNL     1      48.551   4.000  17.028  0.00  0.00    +0.000 A 
ATOM     25  F   UNL     1      49.118   3.436  18.099  0.00  0.00    +0.000 F 
ATOM     26  C   UNL     1      48.827   5.325  16.718  0.00  0.00    +0.000 A 
ATOM     27  C   UNL     1      48.223   5.914  15.603  0.00  0.00    +0.000 A 
ENDBRANCH  19  21
ENDBRANCH   1  15
TORSDOF 4
ENDMDL
MODEL 3
REMARK VINA RESULT:    -8.091      3.678      6.942
REMARK INTER + INTRA:         -10.722
REMARK INTER:                 -10.339
REMARK INTRA:                  -0.383
REMARK UNBOUND:                -0.739
REMARK  Name = 
REMARK  4 active torsions:
REMARK  status: ('A' for Active; 'I' for Inactive)
REMARK    1  A    between atoms: C_2  and  C_4
REMARK    2  A    between atoms: N_8  and  C_9
REMARK    3  A    between atoms: C_9  and  C_10
REMARK    4  A    between atoms: C_14  and  C_15
REMARK                            x       y       z     vdW  Elec       q    Type
REMARK                         _______ _______ _______ _____ _____    ______ ____
ROOT
ATOM      1  C   UNL     1      43.744   6.361  11.378  0.00  0.00    +0.000 C 
ENDROOT
BRANCH   1   6
ATOM      2  C   UNL     1      48.268   7.009  13.609  0.00  0.00    +0.000 A 
ATOM      3  C   UNL     1      47.427   5.904  13.589  0.00  0.00    +0.000 A 
ATOM      4  C   UNL     1      46.298   5.922  12.771  0.00  0.00    +0.000 A 
ATOM      5  C   UNL     1      46.012   7.047  11.999  0.00  0.00    +0.000 A 
ATOM      6  N   UNL     1      44.970   7.084  11.087  0.00  0.00    +0.000 N 
ATOM      7  N   UNL     1      46.805   8.136  12.037  0.00  0.00    +0.000 NA
ATOM      8  C   UNL     1      47.906   8.104  12.839  0.00  0.00    +0.000 A 
ATOM      9  H   UNL     1      44.837   8.048  10.789  0.00  0.00    +0.000 HD
BRANCH   2  11
ATOM     10  N   UNL     1      50.558   7.758  13.893  0.00  0.00    +0.000 N 
ATOM     11  C   UNL     1      49.508   7.046  14.410  0.00  0.00    +0.000 C 
ATOM     12  O   UNL     1      49.585   6.501  15.497  0.00  0.00    +0.000 OA
ATOM     13  H   UNL     1      51.372   7.862  14.488  0.00  0.00    +0.000 HD
ATOM     14  H   UNL     1      50.448   8.425  13.140  0.00  0.00    +0.000 HD
ENDBRANCH   2  11
ENDBRANCH   1   6
BRANCH   1  15
ATOM     15  C   UNL     1      43.879   4.879  11.079  0.00  0.00    +0.000 A 
ATOM     16  C   UNL     1      43.171   3.951  11.839  0.00  0.00    +0.000 A 
ATOM     17  C   UNL     1      43.251   2.608  11.500  0.00  0.00    +0.000 A 
ATOM     18  C   UNL     1      44.043   2.227  10.423  0.00  0.00    +0.000 A 
ATOM     19  C   UNL     1      44.741   3.200   9.707  0.00  0.00    +0.000 A 
ATOM     20  N   UNL     1      44.671   4.515  10.036  0.00  0.00    +0.000 NA
BRANCH  19  21
ATOM     21  C   UNL     1      45.590   2.864   8.545  0.00  0.00    +0.000 A 
ATOM     22  C   UNL     1      46.087   1.559   8.349  0.00  0.00    +0.000 A 
ATOM     23  C   UNL     1      46.918   1.252   7.269  0.00  0.00    +0.000 A 
ATOM     24  C   UNL     1      47.254   2.248   6.361  0.00  0.00    +0.000 A 
ATOM     25  F   UNL     1      48.057   1.956   5.333  0.00  0.00    +0.000 F 
ATOM     26  C   UNL     1      46.767   3.539   6.511  0.00  0.00    +0.000 A 
ATOM     27  C   UNL     1      45.936   3.843   7.593  0.00  0.00    +0.000 A 
ENDBRANCH  19  21
ENDBRANCH   1  15
TORSDOF 4
ENDMDL
MODEL 4
REMARK VINA RESULT:    -7.990      3.662      7.034
REMARK INTER + INTRA:         -10.598
REMARK INTER:                  -9.848
REMARK INTRA:                  -0.749
REMARK UNBOUND:                -0.739
REMARK  Name = 
REMARK  4 active torsions:
REMARK  status: ('A' for Active; 'I' for Inactive)
REMARK    1  A    between atoms: C_2  and  C_4
REMARK    2  A    between atoms: N_8  and  C_9
REMARK    3  A    between atoms: C_9  and  C_10
REMARK    4  A    between atoms: C_14  and  C_15
REMARK                            x       y       z     vdW  Elec       q    Type
REMARK                         _______ _______ _______ _____ _____    ______ ____
ROOT
ATOM      1  C   UNL     1      44.343   6.508  11.760  0.00  0.00    +0.000 C 
ENDROOT
BRANCH   1   6
ATOM      2  C   UNL     1      49.183   7.626  12.852  0.00  0.00    +0.000 A 
ATOM      3  C   UNL     1      48.374   8.060  11.810  0.00  0.00    +0.000 A 
ATOM      4  C   UNL     1      47.020   7.727  11.813  0.00  0.00    +0.000 A 
ATOM      5  C   UNL     1      46.494   6.950  12.844  0.00  0.00    +0.000 A 
ATOM      6  N   UNL     1      45.141   6.678  12.962  0.00  0.00    +0.000 N 
ATOM      7  N   UNL     1      47.278   6.496  13.842  0.00  0.00    +0.000 NA
ATOM      8  C   UNL     1      48.600   6.832  13.828  0.00  0.00    +0.000 A 
ATOM      9  H   UNL     1      45.019   5.950  13.662  0.00  0.00    +0.000 HD
BRANCH   2  11
ATOM     10  N   UNL     1      51.236   7.731  14.140  0.00  0.00    +0.000 N 
ATOM     11  C   UNL     1      50.613   7.980  12.945  0.00  0.00    +0.000 C 
ATOM     12  O   UNL     1      51.223   8.438  11.995  0.00  0.00    +0.000 OA
ATOM     13  H   UNL     1      52.238   7.884  14.169  0.00  0.00    +0.000 HD
ATOM     14  H   UNL     1      50.840   7.125  14.846  0.00  0.00    +0.000 HD
ENDBRANCH   2  11
ENDBRANCH   1   6
BRANCH   1  15
ATOM     15  C   UNL     1      44.246   5.050  11.348  0.00  0.00    +0.000 A 
ATOM     16  C   UNL     1      43.382   4.194  12.026  0.00  0.00    +0.000 A 
ATOM     17  C   UNL     1      43.255   2.885  11.585  0.00  0.00    +0.000 A 
ATOM     18  C   UNL     1      43.999   2.464  10.489  0.00  0.00    +0.000 A 
ATOM     19  C   UNL     1      44.859   3.362   9.857  0.00  0.00    +0.000 A 
ATOM     20  N   UNL     1      44.992   4.644  10.287  0.00  0.00    +0.000 NA
BRANCH  19  21
ATOM     21  C   UNL     1      45.667   2.984   8.680  0.00  0.00    +0.000 A 
ATOM     22  C   UNL     1      46.058   1.647   8.455  0.00  0.00    +0.000 A 
ATOM     23  C   UNL     1      46.852   1.296   7.361  0.00  0.00    +0.000 A 
ATOM     24  C   UNL     1      47.258   2.280   6.468  0.00  0.00    +0.000 A 
ATOM     25  F   UNL     1      48.027   1.945   5.427  0.00  0.00    +0.000 F 
ATOM     26  C   UNL     1      46.876   3.602   6.647  0.00  0.00    +0.000 A 
ATOM     27  C   UNL     1      46.082   3.950   7.743  0.00  0.00    +0.000 A 
ENDBRANCH  19  21
ENDBRANCH   1  15
TORSDOF 4
ENDMDL
MODEL 5
REMARK VINA RESULT:    -7.810      4.796      8.057
REMARK INTER + INTRA:         -10.375
REMARK INTER:                  -9.909
REMARK INTRA:                  -0.466
REMARK UNBOUND:                -0.739
REMARK  Name = 
REMARK  4 active torsions:
REMARK  status: ('A' for Active; 'I' for Inactive)
REMARK    1  A    between atoms: C_2  and  C_4
REMARK    2  A    between atoms: N_8  and  C_9
REMARK    3  A    between atoms: C_9  and  C_10
REMARK    4  A    between atoms: C_14  and  C_15
REMARK                            x       y       z     vdW  Elec       q    Type
REMARK                         _______ _______ _______ _____ _____    ______ ____
ROOT
ATOM      1  C   UNL     1      46.144   5.434  13.698  0.00  0.00    +0.000 C 
ENDROOT
BRANCH   1   6
ATOM      2  C   UNL     1      49.369   4.182  17.427  0.00  0.00    +0.000 A 
ATOM      3  C   UNL     1      49.088   5.419  16.859  0.00  0.00    +0.000 A 
ATOM      4  C   UNL     1      48.041   5.527  15.945  0.00  0.00    +0.000 A 
ATOM      5  C   UNL     1      47.301   4.399  15.593  0.00  0.00    +0.000 A 
ATOM      6  N   UNL     1      46.184   4.462  14.777  0.00  0.00    +0.000 N 
ATOM      7  N   UNL     1      47.588   3.190  16.113  0.00  0.00    +0.000 NA
ATOM      8  C   UNL     1      48.612   3.098  17.008  0.00  0.00    +0.000 A 
ATOM      9  H   UNL     1      45.928   3.514  14.507  0.00  0.00    +0.000 HD
BRANCH   2  11
ATOM     10  N   UNL     1      50.117   4.341  19.728  0.00  0.00    +0.000 N 
ATOM     11  C   UNL     1      50.428   3.997  18.439  0.00  0.00    +0.000 C 
ATOM     12  O   UNL     1      51.515   3.528  18.151  0.00  0.00    +0.000 OA
ATOM     13  H   UNL     1      50.811   4.122  20.434  0.00  0.00    +0.000 HD
ATOM     14  H   UNL     1      49.166   4.481  20.043  0.00  0.00    +0.000 HD
ENDBRANCH   2  11
ENDBRANCH   1   6
BRANCH   1  15
ATOM     15  C   UNL     1      45.153   5.040  12.619  0.00  0.00    +0.000 A 
ATOM     16  C   UNL     1      43.802   5.344  12.773  0.00  0.00    +0.000 A 
ATOM     17  C   UNL     1      42.926   5.040  11.741  0.00  0.00    +0.000 A 
ATOM     18  C   UNL     1      43.418   4.433  10.591  0.00  0.00    +0.000 A 
ATOM     19  C   UNL     1      44.778   4.140  10.498  0.00  0.00    +0.000 A 
ATOM     20  N   UNL     1      45.641   4.429  11.507  0.00  0.00    +0.000 NA
BRANCH  19  21
ATOM     21  C   UNL     1      45.367   3.507   9.300  0.00  0.00    +0.000 A 
ATOM     22  C   UNL     1      45.469   2.105   9.182  0.00  0.00    +0.000 A 
ATOM     23  C   UNL     1      46.058   1.511   8.064  0.00  0.00    +0.000 A 
ATOM     24  C   UNL     1      46.545   2.313   7.040  0.00  0.00    +0.000 A 
ATOM     25  F   UNL     1      47.117   1.743   5.975  0.00  0.00    +0.000 F 
ATOM     26  C   UNL     1      46.444   3.695   7.112  0.00  0.00    +0.000 A 
ATOM     27  C   UNL     1      45.854   4.287   8.233  0.00  0.00    +0.000 A 
ENDBRANCH  19  21
ENDBRANCH   1  15
TORSDOF 4
ENDMDL
MODEL 6
REMARK VINA RESULT:    -7.639      3.945      7.614
REMARK INTER + INTRA:         -10.165
REMARK INTER:                  -9.587
REMARK INTRA:                  -0.578
REMARK UNBOUND:                -0.739
REMARK  Name = 
REMARK  4 active torsions:
REMARK  status: ('A' for Active; 'I' for Inactive)
REMARK    1  A    between atoms: C_2  and  C_4
REMARK    2  A    between atoms: N_8  and  C_9
REMARK    3  A    between atoms: C_9  and  C_10
REMARK    4  A    between atoms: C_14  and  C_15
REMARK                            x       y       z     vdW  Elec       q    Type
REMARK                         _______ _______ _______ _____ _____    ______ ____
ROOT
ATOM      1  C   UNL     1      43.755   6.367  11.412  0.00  0.00    +0.000 C 
ENDROOT
BRANCH   1   6
ATOM      2  C   UNL     1      47.244   9.839  12.693  0.00  0.00    +0.000 A 
ATOM      3  C   UNL     1      46.195   9.912  11.785  0.00  0.00    +0.000 A 
ATOM      4  C   UNL     1      45.274   8.867  11.723  0.00  0.00    +0.000 A 
ATOM      5  C   UNL     1      45.420   7.756  12.552  0.00  0.00    +0.000 A 
ATOM      6  N   UNL     1      44.481   6.740  12.615  0.00  0.00    +0.000 N 
ATOM      7  N   UNL     1      46.453   7.662  13.412  0.00  0.00    +0.000 NA
ATOM      8  C   UNL     1      47.345   8.691  13.465  0.00  0.00    +0.000 A 
ATOM      9  H   UNL     1      44.884   5.960  13.130  0.00  0.00    +0.000 HD
BRANCH   2  11
ATOM     10  N   UNL     1      48.586  11.255  14.135  0.00  0.00    +0.000 N 
ATOM     11  C   UNL     1      48.230  10.926  12.853  0.00  0.00    +0.000 C 
ATOM     12  O   UNL     1      48.733  11.482  11.892  0.00  0.00    +0.000 OA
ATOM     13  H   UNL     1      49.334  11.933  14.237  0.00  0.00    +0.000 HD
ATOM     14  H   UNL     1      48.395  10.655  14.926  0.00  0.00    +0.000 HD
ENDBRANCH   2  11
ENDBRANCH   1   6
BRANCH   1  15
ATOM     15  C   UNL     1      43.889   4.886  11.111  0.00  0.00    +0.000 A 
ATOM     16  C   UNL     1      43.166   3.958  11.857  0.00  0.00    +0.000 A 
ATOM     17  C   UNL     1      43.246   2.616  11.515  0.00  0.00    +0.000 A 
ATOM     18  C   UNL     1      44.051   2.236  10.447  0.00  0.00    +0.000 A 
ATOM     19  C   UNL     1      44.763   3.207   9.744  0.00  0.00    +0.000 A 
ATOM     20  N   UNL     1      44.693   4.522  10.077  0.00  0.00    +0.000 NA
BRANCH  19  21
ATOM     21  C   UNL     1      45.625   2.873   8.592  0.00  0.00    +0.000 A 
ATOM     22  C   UNL     1      45.993   3.847   7.641  0.00  0.00    +0.000 A 
ATOM     23  C   UNL     1      46.780   3.521   6.534  0.00  0.00    +0.000 A 
ATOM     24  C   UNL     1      47.219   2.213   6.369  0.00  0.00    +0.000 A 
ATOM     25  F   UNL     1      47.964   1.900   5.304  0.00  0.00    +0.000 F 
ATOM     26  C   UNL     1      46.894   1.233   7.296  0.00  0.00    +0.000 A 
ATOM     27  C   UNL     1      46.106   1.563   8.403  0.00  0.00    +0.000 A 
ENDBRANCH  19  21
ENDBRANCH   1  15
TORSDOF 4
ENDMDL
MODEL 7
REMARK VINA RESULT:    -7.428      3.925      7.216
REMARK INTER + INTRA:          -9.904
REMARK INTER:                  -9.933
REMARK INTRA:                   0.029
REMARK UNBOUND:                -0.739
REMARK  Name = 
REMARK  4 active torsions:
REMARK  status: ('A' for Active; 'I' for Inactive)
REMARK    1  A    between atoms: C_2  and  C_4
REMARK    2  A    between atoms: N_8  and  C_9
REMARK    3  A    between atoms: C_9  and  C_10
REMARK    4  A    between atoms: C_14  and  C_15
REMARK                            x       y       z     vdW  Elec       q    Type
REMARK                         _______ _______ _______ _____ _____    ______ ____
ROOT
ATOM      1  C   UNL     1      45.986   7.411  11.723  0.00  0.00    +0.000 C 
ENDROOT
BRANCH   1   6
ATOM      2  C   UNL     1      47.384   4.451  15.616  0.00  0.00    +0.000 A 
ATOM      3  C   UNL     1      46.270   4.380  14.789  0.00  0.00    +0.000 A 
ATOM      4  C   UNL     1      46.188   5.226  13.683  0.00  0.00    +0.000 A 
ATOM      5  C   UNL     1      47.206   6.143  13.427  0.00  0.00    +0.000 A 
ATOM      6  N   UNL     1      47.236   6.930  12.289  0.00  0.00    +0.000 N 
ATOM      7  N   UNL     1      48.274   6.240  14.243  0.00  0.00    +0.000 NA
ATOM      8  C   UNL     1      48.343   5.406  15.319  0.00  0.00    +0.000 A 
ATOM      9  H   UNL     1      47.952   7.643  12.408  0.00  0.00    +0.000 HD
BRANCH   2  11
ATOM     10  N   UNL     1      48.854   3.323  17.181  0.00  0.00    +0.000 N 
ATOM     11  C   UNL     1      47.566   3.556  16.776  0.00  0.00    +0.000 C 
ATOM     12  O   UNL     1      46.617   3.074  17.370  0.00  0.00    +0.000 OA
ATOM     13  H   UNL     1      48.970   2.788  18.035  0.00  0.00    +0.000 HD
ATOM     14  H   UNL     1      49.632   3.898  16.886  0.00  0.00    +0.000 HD
ENDBRANCH   2  11
ENDBRANCH   1   6
BRANCH   1  15
ATOM     15  C   UNL     1      45.137   6.274  11.185  0.00  0.00    +0.000 A 
ATOM     16  C   UNL     1      43.802   6.165  11.565  0.00  0.00    +0.000 A 
ATOM     17  C   UNL     1      43.025   5.163  11.003  0.00  0.00    +0.000 A 
ATOM     18  C   UNL     1      43.604   4.291  10.087  0.00  0.00    +0.000 A 
ATOM     19  C   UNL     1      44.950   4.440   9.753  0.00  0.00    +0.000 A 
ATOM     20  N   UNL     1      45.717   5.416  10.304  0.00  0.00    +0.000 NA
BRANCH  19  21
ATOM     21  C   UNL     1      45.622   3.557   8.778  0.00  0.00    +0.000 A 
ATOM     22  C   UNL     1      45.601   2.154   8.920  0.00  0.00    +0.000 A 
ATOM     23  C   UNL     1      46.267   1.322   8.016  0.00  0.00    +0.000 A 
ATOM     24  C   UNL     1      46.955   1.885   6.949  0.00  0.00    +0.000 A 
ATOM     25  F   UNL     1      47.600   1.089   6.090  0.00  0.00    +0.000 F 
ATOM     26  C   UNL     1      46.980   3.261   6.766  0.00  0.00    +0.000 A 
ATOM     27  C   UNL     1      46.313   4.090   7.673  0.00  0.00    +0.000 A 
ENDBRANCH  19  21
ENDBRANCH   1  15
TORSDOF 4
ENDMDL
MODEL 8
REMARK VINA RESULT:    -7.282      1.962      2.676
REMARK INTER + INTRA:          -9.723
REMARK INTER:                  -9.647
REMARK INTRA:                  -0.076
REMARK UNBOUND:                -0.739
REMARK  Name = 
REMARK  4 active torsions:
REMARK  status: ('A' for Active; 'I' for Inactive)
REMARK    1  A    between atoms: C_2  and  C_4
REMARK    2  A    between atoms: N_8  and  C_9
REMARK    3  A    between atoms: C_9  and  C_10
REMARK    4  A    between atoms: C_14  and  C_15
REMARK                            x       y       z     vdW  Elec       q    Type
REMARK                         _______ _______ _______ _____ _____    ______ ____
ROOT
ATOM      1  C   UNL     1      43.419   3.627  11.177  0.00  0.00    +0.000 C 
ENDROOT
BRANCH   1   6
ATOM      2  C   UNL     1      46.501   2.750   7.226  0.00  0.00    +0.000 A 
ATOM      3  C   UNL     1      45.920   3.932   7.667  0.00  0.00    +0.000 A 
ATOM      4  C   UNL     1      45.229   3.942   8.878  0.00  0.00    +0.000 A 
ATOM      5  C   UNL     1      45.109   2.770   9.624  0.00  0.00    +0.000 A 
ATOM      6  N   UNL     1      44.531   2.739  10.882  0.00  0.00    +0.000 N 
ATOM      7  N   UNL     1      45.640   1.611   9.187  0.00  0.00    +0.000 NA
ATOM      8  C   UNL     1      46.315   1.616   8.003  0.00  0.00    +0.000 A 
ATOM      9  H   UNL     1      44.382   1.767  11.145  0.00  0.00    +0.000 HD
BRANCH   2  11
ATOM     10  N   UNL     1      48.636   2.453   6.114  0.00  0.00    +0.000 N 
ATOM     11  C   UNL     1      47.289   2.672   5.981  0.00  0.00    +0.000 C 
ATOM     12  O   UNL     1      46.767   2.761   4.884  0.00  0.00    +0.000 OA
ATOM     13  H   UNL     1      49.157   2.304   5.257  0.00  0.00    +0.000 HD
ATOM     14  H   UNL     1      49.052   2.120   6.973  0.00  0.00    +0.000 HD
ENDBRANCH   2  11
ENDBRANCH   1   6
BRANCH   1  15
ATOM     15  C   UNL     1      43.872   5.068  11.323  0.00  0.00    +0.000 A 
ATOM     16  C   UNL     1      43.006   6.105  10.986  0.00  0.00    +0.000 A 
ATOM     17  C   UNL     1      43.415   7.414  11.198  0.00  0.00    +0.000 A 
ATOM     18  C   UNL     1      44.677   7.652  11.729  0.00  0.00    +0.000 A 
ATOM     19  C   UNL     1      45.507   6.574  12.036  0.00  0.00    +0.000 A 
ATOM     20  N   UNL     1      45.116   5.290  11.826  0.00  0.00    +0.000 NA
BRANCH  19  21
ATOM     21  C   UNL     1      46.854   6.757  12.615  0.00  0.00    +0.000 A 
ATOM     22  C   UNL     1      47.198   6.205  13.867  0.00  0.00    +0.000 A 
ATOM     23  C   UNL     1      48.460   6.409  14.429  0.00  0.00    +0.000 A 
ATOM     24  C   UNL     1      49.403   7.161  13.738  0.00  0.00    +0.000 A 
ATOM     25  F   UNL     1      50.607   7.363  14.281  0.00  0.00    +0.000 F 
ATOM     26  C   UNL     1      49.106   7.701  12.495  0.00  0.00    +0.000 A 
ATOM     27  C   UNL     1      47.841   7.496  11.936  0.00  0.00    +0.000 A 
ENDBRANCH  19  21
ENDBRANCH   1  15
TORSDOF 4
ENDMDL
MODEL 9
REMARK VINA RESULT:    -7.051      3.889      7.149
REMARK INTER + INTRA:          -9.438
REMARK INTER:                  -8.782
REMARK INTRA:                  -0.656
REMARK UNBOUND:                -0.739
REMARK  Name = 
REMARK  4 active torsions:
REMARK  status: ('A' for Active; 'I' for Inactive)
REMARK    1  A    between atoms: C_2  and  C_4
REMARK    2  A    between atoms: N_8  and  C_9
REMARK    3  A    between atoms: C_9  and  C_10
REMARK    4  A    between atoms: C_14  and  C_15
REMARK                            x       y       z     vdW  Elec       q    Type
REMARK                         _______ _______ _______ _____ _____    ______ ____
ROOT
ATOM      1  C   UNL     1      45.987   6.900  13.015  0.00  0.00    +0.000 C 
ENDROOT
BRANCH   1   6
ATOM      2  C   UNL     1      50.303   9.081  11.438  0.00  0.00    +0.000 A 
ATOM      3  C   UNL     1      50.001   7.743  11.660  0.00  0.00    +0.000 A 
ATOM      4  C   UNL     1      48.686   7.379  11.947  0.00  0.00    +0.000 A 
ATOM      5  C   UNL     1      47.693   8.355  12.029  0.00  0.00    +0.000 A 
ATOM      6  N   UNL     1      46.354   8.048  12.202  0.00  0.00    +0.000 N 
ATOM      7  N   UNL     1      47.983   9.658  11.848  0.00  0.00    +0.000 NA
ATOM      8  C   UNL     1      49.272   9.999  11.565  0.00  0.00    +0.000 A 
ATOM      9  H   UNL     1      45.852   8.905  12.422  0.00  0.00    +0.000 HD
BRANCH   2  11
ATOM     10  N   UNL     1      52.506   9.834  12.116  0.00  0.00    +0.000 N 
ATOM     11  C   UNL     1      51.660   9.537  11.080  0.00  0.00    +0.000 C 
ATOM     12  O   UNL     1      52.026   9.614   9.920  0.00  0.00    +0.000 OA
ATOM     13  H   UNL     1      53.465  10.053  11.869  0.00  0.00    +0.000 HD
ATOM     14  H   UNL     1      52.330   9.539  13.067  0.00  0.00    +0.000 HD
ENDBRANCH   2  11
ENDBRANCH   1   6
BRANCH   1  15
ATOM     15  C   UNL     1      45.034   5.973  12.284  0.00  0.00    +0.000 A 
ATOM     16  C   UNL     1      43.692   5.923  12.655  0.00  0.00    +0.000 A 
ATOM     17  C   UNL     1      42.825   5.125  11.924  0.00  0.00    +0.000 A 
ATOM     18  C   UNL     1      43.320   4.390  10.853  0.00  0.00    +0.000 A 
ATOM     19  C   UNL     1      44.676   4.468  10.536  0.00  0.00    +0.000 A 
ATOM     20  N   UNL     1      45.532   5.244  11.250  0.00  0.00    +0.000 NA
BRANCH  19  21
ATOM     21  C   UNL     1      45.264   3.724   9.403  0.00  0.00    +0.000 A 
ATOM     22  C   UNL     1      45.287   2.314   9.382  0.00  0.00    +0.000 A 
ATOM     23  C   UNL     1      45.875   1.612   8.327  0.00  0.00    +0.000 A 
ATOM     24  C   UNL     1      46.440   2.315   7.270  0.00  0.00    +0.000 A 
ATOM     25  F   UNL     1      47.011   1.643   6.265  0.00  0.00    +0.000 F 
ATOM     26  C   UNL     1      46.418   3.702   7.247  0.00  0.00    +0.000 A 
ATOM     27  C   UNL     1      45.829   4.401   8.305  0.00  0.00    +0.000 A 
ENDBRANCH  19  21
ENDBRANCH   1  15
TORSDOF 4
ENDMDL
