MODEL 1
REMARK VINA RESULT:    -9.795      0.000      0.000
REMARK INTER + INTRA:         -12.853
REMARK INTER:                 -12.086
REMARK INTRA:                  -0.767
REMARK UNBOUND:                -0.767
REMARK  Name = 
REMARK  4 active torsions:
REMARK  status: ('A' for Active; 'I' for Inactive)
REMARK    1  A    between atoms: C_2  and  C_4
REMARK    2  A    between atoms: N_8  and  C_9
REMARK    3  A    between atoms: C_9  and  C_10
REMARK    4  A    between atoms: C_14  and  C_15
REMARK                            x       y       z     vdW  Elec       q    Type
REMARK                         _______ _______ _______ _____ _____    ______ ____
ROOT
ATOM      1  C   UNL     1      43.945   4.864  11.469  0.00  0.00    +0.000 C 
ATOM      2  C   UNL     1      42.695   5.000  12.324  0.00  0.00    +0.000 C 
ATOM      3  C   UNL     1      42.985   6.025  11.280  0.00  0.00    +0.000 C 
ENDROOT
BRANCH   1   8
ATOM      4  C   UNL     1      46.545   2.745   7.488  0.00  0.00    +0.000 A 
ATOM      5  C   UNL     1      46.187   4.078   7.673  0.00  0.00    +0.000 A 
ATOM      6  C   UNL     1      45.355   4.422   8.739  0.00  0.00    +0.000 A 
ATOM      7  C   UNL     1      44.889   3.430   9.592  0.00  0.00    +0.000 A 
ATOM      8  N   UNL     1      43.947   3.671  10.598  0.00  0.00    +0.000 N 
ATOM      9  N   UNL     1      45.229   2.133   9.424  0.00  0.00    +0.000 NA
ATOM     10  C   UNL     1      46.043   1.815   8.383  0.00  0.00    +0.000 A 
ATOM     11  H   UNL     1      43.868   2.780  11.087  0.00  0.00    +0.000 HD
BRANCH   4  13
ATOM     12  N   UNL     1      47.268   2.964   5.178  0.00  0.00    +0.000 N 
ATOM     13  C   UNL     1      47.391   2.290   6.361  0.00  0.00    +0.000 C 
ATOM     14  O   UNL     1      48.189   1.373   6.489  0.00  0.00    +0.000 OA
ATOM     15  H   UNL     1      47.908   2.701   4.439  0.00  0.00    +0.000 HD
ATOM     16  H   UNL     1      46.820   3.860   5.105  0.00  0.00    +0.000 HD
ENDBRANCH   4  13
ENDBRANCH   1   8
BRANCH   1  17
ATOM     17  C   UNL     1      45.310   5.136  12.092  0.00  0.00    +0.000 A 
ATOM     18  C   UNL     1      46.095   6.223  11.677  0.00  0.00    +0.000 A 
ATOM     19  C   UNL     1      47.234   6.608  12.386  0.00  0.00    +0.000 A 
ATOM     20  C   UNL     1      47.613   5.903  13.528  0.00  0.00    +0.000 A 
ATOM     21  C   UNL     1      46.889   4.782  13.966  0.00  0.00    +0.000 A 
ATOM     22  C   UNL     1      45.762   4.404  13.206  0.00  0.00    +0.000 A 
BRANCH  21  23
ATOM     23  C   UNL     1      47.224   4.077  15.218  0.00  0.00    +0.000 A 
ATOM     24  N   UNL     1      47.918   2.923  15.126  0.00  0.00    +0.000 NA
ATOM     25  C   UNL     1      48.317   2.367  16.284  0.00  0.00    +0.000 A 
ATOM     26  C   UNL     1      48.048   2.907  17.518  0.00  0.00    +0.000 A 
ATOM     27  C   UNL     1      47.321   4.072  17.510  0.00  0.00    +0.000 A 
ATOM     28  N   UNL     1      46.904   4.675  16.385  0.00  0.00    +0.000 NA
ENDBRANCH  21  23
ENDBRANCH   1  17
TORSDOF 4
ENDMDL
MODEL 2
REMARK VINA RESULT:    -8.995      2.095      3.506
REMARK INTER + INTRA:         -11.865
REMARK INTER:                 -10.765
REMARK INTRA:                  -1.101
REMARK UNBOUND:                -0.767
REMARK  Name = 
REMARK  4 active torsions:
REMARK  status: ('A' for Active; 'I' for Inactive)
REMARK    1  A    between atoms: C_2  and  C_4
REMARK    2  A    between atoms: N_8  and  C_9
REMARK    3  A    between atoms: C_9  and  C_10
REMARK    4  A    between atoms: C_14  and  C_15
REMARK                            x       y       z     vdW  Elec       q    Type
REMARK                         _______ _______ _______ _____ _____    ______ ____
ROOT
ATOM      1  C   UNL     1      43.795   4.888  11.360  0.00  0.00    +0.000 C 
ATOM      2  C   UNL     1      42.435   5.145  11.989  0.00  0.00    +0.000 C 
ATOM      3  C   UNL     1      42.991   6.129  11.016  0.00  0.00    +0.000 C 
ENDROOT
BRANCH   1   8
ATOM      4  C   UNL     1      46.571   2.753   7.509  0.00  0.00    +0.000 A 
ATOM      5  C   UNL     1      46.203   4.086   7.670  0.00  0.00    +0.000 A 
ATOM      6  C   UNL     1      45.324   4.435   8.698  0.00  0.00    +0.000 A 
ATOM      7  C   UNL     1      44.823   3.446   9.534  0.00  0.00    +0.000 A 
ATOM      8  N   UNL     1      43.838   3.690  10.497  0.00  0.00    +0.000 N 
ATOM      9  N   UNL     1      45.173   2.148   9.389  0.00  0.00    +0.000 NA
ATOM     10  C   UNL     1      46.033   1.827   8.386  0.00  0.00    +0.000 A 
ATOM     11  H   UNL     1      43.739   2.802  10.987  0.00  0.00    +0.000 HD
BRANCH   4  13
ATOM     12  N   UNL     1      47.386   2.953   5.228  0.00  0.00    +0.000 N 
ATOM     13  C   UNL     1      47.467   2.293   6.422  0.00  0.00    +0.000 C 
ATOM     14  O   UNL     1      48.268   1.387   6.594  0.00  0.00    +0.000 OA
ATOM     15  H   UNL     1      48.058   2.688   4.519  0.00  0.00    +0.000 HD
ATOM     16  H   UNL     1      46.932   3.843   5.126  0.00  0.00    +0.000 HD
ENDBRANCH   4  13
ENDBRANCH   1   8
BRANCH   1  17
ATOM     17  C   UNL     1      45.053   5.042  12.209  0.00  0.00    +0.000 A 
ATOM     18  C   UNL     1      45.522   3.989  13.010  0.00  0.00    +0.000 A 
ATOM     19  C   UNL     1      46.780   4.040  13.611  0.00  0.00    +0.000 A 
ATOM     20  C   UNL     1      47.596   5.156  13.424  0.00  0.00    +0.000 A 
ATOM     21  C   UNL     1      47.162   6.256  12.667  0.00  0.00    +0.000 A 
ATOM     22  C   UNL     1      45.872   6.181  12.101  0.00  0.00    +0.000 A 
BRANCH  21  23
ATOM     23  C   UNL     1      48.042   7.407  12.387  0.00  0.00    +0.000 A 
ATOM     24  N   UNL     1      49.353   7.162  12.182  0.00  0.00    +0.000 NA
ATOM     25  C   UNL     1      50.108   8.209  11.806  0.00  0.00    +0.000 A 
ATOM     26  C   UNL     1      49.614   9.479  11.634  0.00  0.00    +0.000 A 
ATOM     27  C   UNL     1      48.273   9.632  11.883  0.00  0.00    +0.000 A 
ATOM     28  N   UNL     1      47.470   8.622  12.253  0.00  0.00    +0.000 NA
ENDBRANCH  21  23
ENDBRANCH   1  17
TORSDOF 4
ENDMDL
MODEL 3
REMARK VINA RESULT:    -7.367      1.812      2.583
REMARK INTER + INTRA:          -9.857
REMARK INTER:                  -9.082
REMARK INTRA:                  -0.775
REMARK UNBOUND:                -0.767
REMARK  Name = 
REMARK  4 active torsions:
REMARK  status: ('A' for Active; 'I' for Inactive)
REMARK    1  A    between atoms: C_2  and  C_4
REMARK    2  A    between atoms: N_8  and  C_9
REMARK    3  A    between atoms: C_9  and  C_10
REMARK    4  A    between atoms: C_14  and  C_15
REMARK                            x       y       z     vdW  Elec       q    Type
REMARK                         _______ _______ _______ _____ _____    ______ ____
ROOT
ATOM      1  C   UNL     1      44.265   5.693  11.222  0.00  0.00    +0.000 C 
ATOM      2  C   UNL     1      43.067   6.531  11.638  0.00  0.00    +0.000 C 
ATOM      3  C   UNL     1      44.259   7.200  11.041  0.00  0.00    +0.000 C 
ENDROOT
BRANCH   1   8
ATOM      4  C   UNL     1      46.599   3.240   7.267  0.00  0.00    +0.000 A 
ATOM      5  C   UNL     1      46.768   4.558   7.685  0.00  0.00    +0.000 A 
ATOM      6  C   UNL     1      45.933   5.074   8.678  0.00  0.00    +0.000 A 
ATOM      7  C   UNL     1      44.942   4.270   9.224  0.00  0.00    +0.000 A 
ATOM      8  N   UNL     1      43.981   4.748  10.122  0.00  0.00    +0.000 N 
ATOM      9  N   UNL     1      44.767   2.989   8.828  0.00  0.00    +0.000 NA
ATOM     10  C   UNL     1      45.591   2.502   7.863  0.00  0.00    +0.000 A 
ATOM     11  H   UNL     1      43.453   3.919  10.391  0.00  0.00    +0.000 HD
BRANCH   4  13
ATOM     12  N   UNL     1      48.494   1.883   6.579  0.00  0.00    +0.000 N 
ATOM     13  C   UNL     1      47.415   2.629   6.193  0.00  0.00    +0.000 C 
ATOM     14  O   UNL     1      47.120   2.756   5.015  0.00  0.00    +0.000 OA
ATOM     15  H   UNL     1      48.996   1.401   5.844  0.00  0.00    +0.000 HD
ATOM     16  H   UNL     1      48.622   1.553   7.519  0.00  0.00    +0.000 HD
ENDBRANCH   4  13
ENDBRANCH   1   8
BRANCH   1  17
ATOM     17  C   UNL     1      45.163   5.087  12.295  0.00  0.00    +0.000 A 
ATOM     18  C   UNL     1      45.264   3.696  12.458  0.00  0.00    +0.000 A 
ATOM     19  C   UNL     1      46.241   3.131  13.278  0.00  0.00    +0.000 A 
ATOM     20  C   UNL     1      47.139   3.953  13.959  0.00  0.00    +0.000 A 
ATOM     21  C   UNL     1      47.059   5.352  13.866  0.00  0.00    +0.000 A 
ATOM     22  C   UNL     1      46.039   5.888  13.052  0.00  0.00    +0.000 A 
BRANCH  21  23
ATOM     23  C   UNL     1      48.052   6.235  14.508  0.00  0.00    +0.000 A 
ATOM     24  N   UNL     1      48.147   7.506  14.062  0.00  0.00    +0.000 NA
ATOM     25  C   UNL     1      48.968   8.323  14.746  0.00  0.00    +0.000 A 
ATOM     26  C   UNL     1      49.696   7.925  15.840  0.00  0.00    +0.000 A 
ATOM     27  C   UNL     1      49.546   6.610  16.206  0.00  0.00    +0.000 A 
ATOM     28  N   UNL     1      48.735   5.753  15.567  0.00  0.00    +0.000 NA
ENDBRANCH  21  23
ENDBRANCH   1  17
TORSDOF 4
ENDMDL
MODEL 4
REMARK VINA RESULT:    -6.911      3.826      8.327
REMARK INTER + INTRA:          -9.294
REMARK INTER:                  -8.369
REMARK INTRA:                  -0.925
REMARK UNBOUND:                -0.767
REMARK  Name = 
REMARK  4 active torsions:
REMARK  status: ('A' for Active; 'I' for Inactive)
REMARK    1  A    between atoms: C_2  and  C_4
REMARK    2  A    between atoms: N_8  and  C_9
REMARK    3  A    between atoms: C_9  and  C_10
REMARK    4  A    between atoms: C_14  and  C_15
REMARK                            x       y       z     vdW  Elec       q    Type
REMARK                         _______ _______ _______ _____ _____    ______ ____
ROOT
ATOM      1  C   UNL     1      48.933   7.903  12.679  0.00  0.00    +0.000 C 
ATOM      2  C   UNL     1      49.892   8.150  11.526  0.00  0.00    +0.000 C 
ATOM      3  C   UNL     1      49.537   9.274  12.438  0.00  0.00    +0.000 C 
ENDROOT
BRANCH   1   8
ATOM      4  C   UNL     1      48.477   6.728  17.730  0.00  0.00    +0.000 A 
ATOM      5  C   UNL     1      48.540   7.987  17.140  0.00  0.00    +0.000 A 
ATOM      6  C   UNL     1      48.816   8.092  15.775  0.00  0.00    +0.000 A 
ATOM      7  C   UNL     1      49.034   6.940  15.032  0.00  0.00    +0.000 A 
ATOM      8  N   UNL     1      49.448   6.962  13.695  0.00  0.00    +0.000 N 
ATOM      9  N   UNL     1      48.976   5.711  15.592  0.00  0.00    +0.000 NA
ATOM     10  C   UNL     1      48.702   5.627  16.921  0.00  0.00    +0.000 A 
ATOM     11  H   UNL     1      49.448   5.983  13.415  0.00  0.00    +0.000 HD
BRANCH   4  13
ATOM     12  N   UNL     1      47.192   5.711  19.525  0.00  0.00    +0.000 N 
ATOM     13  C   UNL     1      48.229   6.532  19.177  0.00  0.00    +0.000 C 
ATOM     14  O   UNL     1      48.939   7.052  20.024  0.00  0.00    +0.000 OA
ATOM     15  H   UNL     1      47.082   5.518  20.513  0.00  0.00    +0.000 HD
ATOM     16  H   UNL     1      46.754   5.081  18.878  0.00  0.00    +0.000 HD
ENDBRANCH   4  13
ENDBRANCH   1   8
BRANCH   1  17
ATOM     17  C   UNL     1      47.451   7.693  12.388  0.00  0.00    +0.000 A 
ATOM     18  C   UNL     1      46.512   8.709  12.626  0.00  0.00    +0.000 A 
ATOM     19  C   UNL     1      45.201   8.610  12.160  0.00  0.00    +0.000 A 
ATOM     20  C   UNL     1      44.801   7.480  11.445  0.00  0.00    +0.000 A 
ATOM     21  C   UNL     1      45.685   6.414  11.213  0.00  0.00    +0.000 A 
ATOM     22  C   UNL     1      46.993   6.538  11.726  0.00  0.00    +0.000 A 
BRANCH  21  23
ATOM     23  C   UNL     1      45.307   5.252  10.387  0.00  0.00    +0.000 A 
ATOM     24  N   UNL     1      45.739   5.220   9.109  0.00  0.00    +0.000 NA
ATOM     25  C   UNL     1      45.487   4.094   8.417  0.00  0.00    +0.000 A 
ATOM     26  C   UNL     1      44.822   3.013   8.942  0.00  0.00    +0.000 A 
ATOM     27  C   UNL     1      44.407   3.147  10.244  0.00  0.00    +0.000 A 
ATOM     28  N   UNL     1      44.638   4.243  10.984  0.00  0.00    +0.000 NA
ENDBRANCH  21  23
ENDBRANCH   1  17
TORSDOF 4
ENDMDL
MODEL 5
REMARK VINA RESULT:    -6.867      2.898      4.621
REMARK INTER + INTRA:          -9.240
REMARK INTER:                  -8.826
REMARK INTRA:                  -0.414
REMARK UNBOUND:                -0.767
REMARK  Name = 
REMARK  4 active torsions:
REMARK  status: ('A' for Active; 'I' for Inactive)
REMARK    1  A    between atoms: C_2  and  C_4
REMARK    2  A    between atoms: N_8  and  C_9
REMARK    3  A    between atoms: C_9  and  C_10
REMARK    4  A    between atoms: C_14  and  C_15
REMARK                            x       y       z     vdW  Elec       q    Type
REMARK                         _______ _______ _______ _____ _____    ______ ____
ROOT
ATOM      1  C   UNL     1      47.352   8.309  13.198  0.00  0.00    +0.000 C 
ATOM      2  C   UNL     1      47.490   9.665  12.525  0.00  0.00    +0.000 C 
ATOM      3  C   UNL     1      48.169   8.479  11.930  0.00  0.00    +0.000 C 
ENDROOT
BRANCH   1   8
ATOM      4  C   UNL     1      44.560   4.220  11.592  0.00  0.00    +0.000 A 
ATOM      5  C   UNL     1      45.569   4.896  10.911  0.00  0.00    +0.000 A 
ATOM      6  C   UNL     1      46.095   6.069  11.455  0.00  0.00    +0.000 A 
ATOM      7  C   UNL     1      45.596   6.548  12.660  0.00  0.00    +0.000 A 
ATOM      8  N   UNL     1      45.972   7.782  13.203  0.00  0.00    +0.000 N 
ATOM      9  N   UNL     1      44.618   5.901  13.331  0.00  0.00    +0.000 NA
ATOM     10  C   UNL     1      44.119   4.758  12.789  0.00  0.00    +0.000 A 
ATOM     11  H   UNL     1      45.502   7.812  14.107  0.00  0.00    +0.000 HD
BRANCH   4  13
ATOM     12  N   UNL     1      44.568   2.337  10.055  0.00  0.00    +0.000 N 
ATOM     13  C   UNL     1      43.921   2.991  11.066  0.00  0.00    +0.000 C 
ATOM     14  O   UNL     1      42.878   2.561  11.535  0.00  0.00    +0.000 OA
ATOM     15  H   UNL     1      44.168   1.455   9.759  0.00  0.00    +0.000 HD
ATOM     16  H   UNL     1      45.528   2.511   9.818  0.00  0.00    +0.000 HD
ENDBRANCH   4  13
ENDBRANCH   1   8
BRANCH   1  17
ATOM     17  C   UNL     1      48.082   8.047  14.511  0.00  0.00    +0.000 A 
ATOM     18  C   UNL     1      48.291   9.075  15.444  0.00  0.00    +0.000 A 
ATOM     19  C   UNL     1      48.754   8.803  16.732  0.00  0.00    +0.000 A 
ATOM     20  C   UNL     1      49.023   7.488  17.110  0.00  0.00    +0.000 A 
ATOM     21  C   UNL     1      48.872   6.424  16.206  0.00  0.00    +0.000 A 
ATOM     22  C   UNL     1      48.432   6.741  14.904  0.00  0.00    +0.000 A 
BRANCH  21  23
ATOM     23  C   UNL     1      49.068   5.019  16.613  0.00  0.00    +0.000 A 
ATOM     24  N   UNL     1      48.084   4.139  16.335  0.00  0.00    +0.000 NA
ATOM     25  C   UNL     1      48.340   2.846  16.602  0.00  0.00    +0.000 A 
ATOM     26  C   UNL     1      49.524   2.401  17.137  0.00  0.00    +0.000 A 
ATOM     27  C   UNL     1      50.457   3.374  17.402  0.00  0.00    +0.000 A 
ATOM     28  N   UNL     1      50.259   4.677  17.147  0.00  0.00    +0.000 NA
ENDBRANCH  21  23
ENDBRANCH   1  17
TORSDOF 4
ENDMDL
MODEL 6
REMARK VINA RESULT:    -6.829      3.500      7.144
REMARK INTER + INTRA:          -9.192
REMARK INTER:                  -8.262
REMARK INTRA:                  -0.930
REMARK UNBOUND:                -0.767
REMARK  Name = 
REMARK  4 active torsions:
REMARK  status: ('A' for Active; 'I' for Inactive)
REMARK    1  A    between atoms: C_2  and  C_4
REMARK    2  A    between atoms: N_8  and  C_9
REMARK    3  A    between atoms: C_9  and  C_10
REMARK    4  A    between atoms: C_14  and  C_15
REMARK                            x       y       z     vdW  Elec       q    Type
REMARK                         _______ _______ _______ _____ _____    ______ ____
ROOT
ATOM      1  C   UNL     1      46.150   5.127  13.365  0.00  0.00    +0.000 C 
ATOM      2  C   UNL     1      46.157   4.262  14.615  0.00  0.00    +0.000 C 
ATOM      3  C   UNL     1      47.312   4.202  13.675  0.00  0.00    +0.000 C 
ENDROOT
BRANCH   1   8
ATOM      4  C   UNL     1      48.266   9.554  11.626  0.00  0.00    +0.000 A 
ATOM      5  C   UNL     1      48.869   8.307  11.768  0.00  0.00    +0.000 A 
ATOM      6  C   UNL     1      48.171   7.276  12.398  0.00  0.00    +0.000 A 
ATOM      7  C   UNL     1      46.891   7.513  12.883  0.00  0.00    +0.000 A 
ATOM      8  N   UNL     1      46.179   6.578  13.643  0.00  0.00    +0.000 N 
ATOM      9  N   UNL     1      46.294   8.718  12.751  0.00  0.00    +0.000 NA
ATOM     10  C   UNL     1      46.987   9.710  12.132  0.00  0.00    +0.000 A 
ATOM     11  H   UNL     1      45.266   7.009  13.780  0.00  0.00    +0.000 HD
BRANCH   4  13
ATOM     12  N   UNL     1      50.299  10.820  11.212  0.00  0.00    +0.000 N 
ATOM     13  C   UNL     1      48.952  10.711  11.006  0.00  0.00    +0.000 C 
ATOM     14  O   UNL     1      48.348  11.516  10.313  0.00  0.00    +0.000 OA
ATOM     15  H   UNL     1      50.772  11.566  10.717  0.00  0.00    +0.000 HD
ATOM     16  H   UNL     1      50.861  10.064  11.556  0.00  0.00    +0.000 HD
ENDBRANCH   4  13
ENDBRANCH   1   8
BRANCH   1  17
ATOM     17  C   UNL     1      45.215   4.771  12.214  0.00  0.00    +0.000 A 
ATOM     18  C   UNL     1      43.916   5.298  12.143  0.00  0.00    +0.000 A 
ATOM     19  C   UNL     1      43.139   5.159  10.992  0.00  0.00    +0.000 A 
ATOM     20  C   UNL     1      43.650   4.481   9.886  0.00  0.00    +0.000 A 
ATOM     21  C   UNL     1      44.927   3.897   9.915  0.00  0.00    +0.000 A 
ATOM     22  C   UNL     1      45.671   4.032  11.106  0.00  0.00    +0.000 A 
BRANCH  21  23
ATOM     23  C   UNL     1      45.518   3.252   8.727  0.00  0.00    +0.000 A 
ATOM     24  N   UNL     1      45.822   4.034   7.670  0.00  0.00    +0.000 NA
ATOM     25  C   UNL     1      46.473   3.443   6.653  0.00  0.00    +0.000 A 
ATOM     26  C   UNL     1      46.822   2.114   6.644  0.00  0.00    +0.000 A 
ATOM     27  C   UNL     1      46.454   1.397   7.756  0.00  0.00    +0.000 A 
ATOM     28  N   UNL     1      45.811   1.937   8.803  0.00  0.00    +0.000 NA
ENDBRANCH  21  23
ENDBRANCH   1  17
TORSDOF 4
ENDMDL
