MODEL 1
REMARK VINA RESULT:    -9.514      0.000      0.000
REMARK INTER + INTRA:         -14.584
REMARK INTER:                 -13.407
REMARK INTRA:                  -1.177
REMARK UNBOUND:                -1.177
REMARK  Name = 
REMARK  7 active torsions:
REMARK  status: ('A' for Active; 'I' for Inactive)
REMARK    1  A    between atoms: C_2  and  C_4
REMARK    2  A    between atoms: C_7  and  O_8
REMARK    3  A    between atoms: O_8  and  C_9
REMARK    4  A    between atoms: C_9  and  C_10
REMARK    5  A    between atoms: C_10  and  C_13
REMARK    6  A    between atoms: C_17  and  C_18
REMARK    7  A    between atoms: C_21  and  C_22
REMARK                            x       y       z     vdW  Elec       q    Type
REMARK                         _______ _______ _______ _____ _____    ______ ____
ROOT
ATOM      1  C   UNL     1      43.346   5.486  11.900  0.00  0.00    +0.000 C 
ATOM      2  F   UNL     1      42.652   6.566  11.424  0.00  0.00    +0.000 F 
ATOM      3  F   UNL     1      42.674   5.096  13.026  0.00  0.00    +0.000 F 
ENDROOT
BRANCH   1   4
ATOM      4  C   UNL     1      44.786   5.867  12.242  0.00  0.00    +0.000 A 
ATOM      5  C   UNL     1      45.391   6.910  11.526  0.00  0.00    +0.000 A 
ATOM      6  C   UNL     1      46.685   7.327  11.835  0.00  0.00    +0.000 A 
ATOM      7  C   UNL     1      47.384   6.726  12.884  0.00  0.00    +0.000 A 
ATOM      8  C   UNL     1      46.812   5.694  13.644  0.00  0.00    +0.000 A 
ATOM      9  C   UNL     1      45.525   5.257  13.278  0.00  0.00    +0.000 A 
BRANCH   8  10
ATOM     10  C   UNL     1      47.494   5.117  14.822  0.00  0.00    +0.000 A 
ATOM     11  C   UNL     1      48.286   5.891  15.668  0.00  0.00    +0.000 A 
ATOM     12  C   UNL     1      48.880   5.303  16.782  0.00  0.00    +0.000 A 
ATOM     13  C   UNL     1      48.674   3.949  17.043  0.00  0.00    +0.000 A 
ATOM     14  C   UNL     1      47.856   3.252  16.167  0.00  0.00    +0.000 A 
ATOM     15  N   UNL     1      47.266   3.803  15.076  0.00  0.00    +0.000 NA
BRANCH  13  16
ATOM     16  C   UNL     1      49.300   3.252  18.210  0.00  0.00    +0.000 C 
ATOM     17  F   UNL     1      50.186   4.031  18.891  0.00  0.00    +0.000 F 
ATOM     18  F   UNL     1      48.386   2.839  19.129  0.00  0.00    +0.000 F 
ATOM     19  F   UNL     1      49.992   2.139  17.842  0.00  0.00    +0.000 F 
ENDBRANCH  13  16
ENDBRANCH   8  10
ENDBRANCH   1   4
BRANCH   1  20
ATOM     20  C   UNL     1      43.248   4.356  10.869  0.00  0.00    +0.000 C 
BRANCH  20  21
ATOM     21  O   UNL     1      43.547   4.773   9.526  0.00  0.00    +0.000 OA
BRANCH  21  25
ATOM     22  C   UNL     1      46.364   2.269   7.851  0.00  0.00    +0.000 A 
ATOM     23  C   UNL     1      45.439   1.755   8.766  0.00  0.00    +0.000 A 
ATOM     24  C   UNL     1      44.496   2.611   9.340  0.00  0.00    +0.000 A 
ATOM     25  C   UNL     1      44.513   3.948   8.974  0.00  0.00    +0.000 A 
ATOM     26  N   UNL     1      45.410   4.471   8.108  0.00  0.00    +0.000 NA
ATOM     27  C   UNL     1      46.319   3.626   7.572  0.00  0.00    +0.000 A 
BRANCH  22  29
ATOM     28  N   UNL     1      48.420   2.109   6.575  0.00  0.00    +0.000 N 
ATOM     29  C   UNL     1      47.378   1.449   7.161  0.00  0.00    +0.000 C 
ATOM     30  O   UNL     1      47.313   0.227   7.152  0.00  0.00    +0.000 OA
ATOM     31  H   UNL     1      49.172   1.528   6.224  0.00  0.00    +0.000 HD
ATOM     32  H   UNL     1      48.640   3.071   6.789  0.00  0.00    +0.000 HD
ENDBRANCH  22  29
ENDBRANCH  21  25
ENDBRANCH  20  21
ENDBRANCH   1  20
TORSDOF 7
ENDMDL
MODEL 2
REMARK VINA RESULT:    -9.299      1.313      1.676
REMARK INTER + INTRA:         -14.281
REMARK INTER:                 -12.980
REMARK INTRA:                  -1.301
REMARK UNBOUND:                -1.177
REMARK  Name = 
REMARK  7 active torsions:
REMARK  status: ('A' for Active; 'I' for Inactive)
REMARK    1  A    between atoms: C_2  and  C_4
REMARK    2  A    between atoms: C_7  and  O_8
REMARK    3  A    between atoms: O_8  and  C_9
REMARK    4  A    between atoms: C_9  and  C_10
REMARK    5  A    between atoms: C_10  and  C_13
REMARK    6  A    between atoms: C_17  and  C_18
REMARK    7  A    between atoms: C_21  and  C_22
REMARK                            x       y       z     vdW  Elec       q    Type
REMARK                         _______ _______ _______ _____ _____    ______ ____
ROOT
ATOM      1  C   UNL     1      43.645   4.619  12.169  0.00  0.00    +0.000 C 
ATOM      2  F   UNL     1      42.687   5.522  12.545  0.00  0.00    +0.000 F 
ATOM      3  F   UNL     1      43.411   3.509  12.936  0.00  0.00    +0.000 F 
ENDROOT
BRANCH   1   4
ATOM      4  C   UNL     1      45.047   5.165  12.435  0.00  0.00    +0.000 A 
ATOM      5  C   UNL     1      45.608   6.051  11.503  0.00  0.00    +0.000 A 
ATOM      6  C   UNL     1      46.864   6.613  11.726  0.00  0.00    +0.000 A 
ATOM      7  C   UNL     1      47.567   6.321  12.897  0.00  0.00    +0.000 A 
ATOM      8  C   UNL     1      47.037   5.459  13.868  0.00  0.00    +0.000 A 
ATOM      9  C   UNL     1      45.791   4.864  13.596  0.00  0.00    +0.000 A 
BRANCH   8  10
ATOM     10  C   UNL     1      47.717   5.220  15.158  0.00  0.00    +0.000 A 
ATOM     11  C   UNL     1      47.371   4.155  15.989  0.00  0.00    +0.000 A 
ATOM     12  C   UNL     1      48.066   3.958  17.180  0.00  0.00    +0.000 A 
ATOM     13  C   UNL     1      49.103   4.823  17.527  0.00  0.00    +0.000 A 
ATOM     14  C   UNL     1      49.403   5.844  16.639  0.00  0.00    +0.000 A 
ATOM     15  N   UNL     1      48.740   6.055  15.473  0.00  0.00    +0.000 NA
BRANCH  13  16
ATOM     16  C   UNL     1      49.875   4.679  18.802  0.00  0.00    +0.000 C 
ATOM     17  F   UNL     1      50.395   5.855  19.252  0.00  0.00    +0.000 F 
ATOM     18  F   UNL     1      49.119   4.191  19.823  0.00  0.00    +0.000 F 
ATOM     19  F   UNL     1      50.932   3.830  18.678  0.00  0.00    +0.000 F 
ENDBRANCH  13  16
ENDBRANCH   8  10
ENDBRANCH   1   4
BRANCH   1  20
ATOM     20  C   UNL     1      43.408   4.246  10.702  0.00  0.00    +0.000 C 
BRANCH  20  21
ATOM     21  O   UNL     1      43.651   2.858  10.414  0.00  0.00    +0.000 OA
BRANCH  21  25
ATOM     22  C   UNL     1      46.473   2.559   7.422  0.00  0.00    +0.000 A 
ATOM     23  C   UNL     1      45.819   3.777   7.636  0.00  0.00    +0.000 A 
ATOM     24  C   UNL     1      44.854   3.868   8.642  0.00  0.00    +0.000 A 
ATOM     25  C   UNL     1      44.583   2.737   9.398  0.00  0.00    +0.000 A 
ATOM     26  N   UNL     1      45.188   1.544   9.195  0.00  0.00    +0.000 NA
ATOM     27  C   UNL     1      46.111   1.477   8.210  0.00  0.00    +0.000 A 
BRANCH  22  29
ATOM     28  N   UNL     1      47.533   3.204   5.338  0.00  0.00    +0.000 N 
ATOM     29  C   UNL     1      47.531   2.361   6.412  0.00  0.00    +0.000 C 
ATOM     30  O   UNL     1      48.397   1.508   6.554  0.00  0.00    +0.000 OA
ATOM     31  H   UNL     1      48.339   3.142   4.727  0.00  0.00    +0.000 HD
ATOM     32  H   UNL     1      47.008   4.067   5.326  0.00  0.00    +0.000 HD
ENDBRANCH  22  29
ENDBRANCH  21  25
ENDBRANCH  20  21
ENDBRANCH   1  20
TORSDOF 7
ENDMDL
MODEL 3
REMARK VINA RESULT:    -8.156      4.068      8.182
REMARK INTER + INTRA:         -12.670
REMARK INTER:                 -11.326
REMARK INTRA:                  -1.344
REMARK UNBOUND:                -1.177
REMARK  Name = 
REMARK  7 active torsions:
REMARK  status: ('A' for Active; 'I' for Inactive)
REMARK    1  A    between atoms: C_2  and  C_4
REMARK    2  A    between atoms: C_7  and  O_8
REMARK    3  A    between atoms: O_8  and  C_9
REMARK    4  A    between atoms: C_9  and  C_10
REMARK    5  A    between atoms: C_10  and  C_13
REMARK    6  A    between atoms: C_17  and  C_18
REMARK    7  A    between atoms: C_21  and  C_22
REMARK                            x       y       z     vdW  Elec       q    Type
REMARK                         _______ _______ _______ _____ _____    ______ ____
ROOT
ATOM      1  C   UNL     1      45.835   8.338  12.424  0.00  0.00    +0.000 C 
ATOM      2  F   UNL     1      44.936   9.314  12.759  0.00  0.00    +0.000 F 
ATOM      3  F   UNL     1      46.569   8.865  11.396  0.00  0.00    +0.000 F 
ENDROOT
BRANCH   1   4
ATOM      4  C   UNL     1      45.120   7.066  11.972  0.00  0.00    +0.000 A 
ATOM      5  C   UNL     1      43.849   6.790  12.496  0.00  0.00    +0.000 A 
ATOM      6  C   UNL     1      43.136   5.667  12.077  0.00  0.00    +0.000 A 
ATOM      7  C   UNL     1      43.672   4.818  11.106  0.00  0.00    +0.000 A 
ATOM      8  C   UNL     1      44.930   5.065  10.536  0.00  0.00    +0.000 A 
ATOM      9  C   UNL     1      45.651   6.175  11.014  0.00  0.00    +0.000 A 
BRANCH   8  10
ATOM     10  C   UNL     1      45.468   4.239   9.435  0.00  0.00    +0.000 A 
ATOM     11  C   UNL     1      45.303   2.855   9.402  0.00  0.00    +0.000 A 
ATOM     12  C   UNL     1      45.803   2.129   8.325  0.00  0.00    +0.000 A 
ATOM     13  C   UNL     1      46.459   2.791   7.287  0.00  0.00    +0.000 A 
ATOM     14  C   UNL     1      46.564   4.170   7.382  0.00  0.00    +0.000 A 
ATOM     15  N   UNL     1      46.084   4.899   8.421  0.00  0.00    +0.000 NA
BRANCH  13  16
ATOM     16  C   UNL     1      47.038   2.068   6.112  0.00  0.00    +0.000 C 
ATOM     17  F   UNL     1      48.386   2.226   5.992  0.00  0.00    +0.000 F 
ATOM     18  F   UNL     1      46.825   0.724   6.164  0.00  0.00    +0.000 F 
ATOM     19  F   UNL     1      46.510   2.486   4.930  0.00  0.00    +0.000 F 
ENDBRANCH  13  16
ENDBRANCH   8  10
ENDBRANCH   1   4
BRANCH   1  20
ATOM     20  C   UNL     1      46.772   8.115  13.616  0.00  0.00    +0.000 C 
BRANCH  20  21
ATOM     21  O   UNL     1      47.805   7.147  13.364  0.00  0.00    +0.000 OA
BRANCH  21  25
ATOM     22  C   UNL     1      47.875   4.252  16.301  0.00  0.00    +0.000 A 
ATOM     23  C   UNL     1      47.037   4.092  15.192  0.00  0.00    +0.000 A 
ATOM     24  C   UNL     1      47.007   5.083  14.208  0.00  0.00    +0.000 A 
ATOM     25  C   UNL     1      47.821   6.194  14.369  0.00  0.00    +0.000 A 
ATOM     26  N   UNL     1      48.624   6.379  15.441  0.00  0.00    +0.000 NA
ATOM     27  C   UNL     1      48.629   5.412  16.385  0.00  0.00    +0.000 A 
BRANCH  22  29
ATOM     28  N   UNL     1      46.867   2.648  17.815  0.00  0.00    +0.000 N 
ATOM     29  C   UNL     1      48.010   3.253  17.379  0.00  0.00    +0.000 C 
ATOM     30  O   UNL     1      49.106   2.947  17.831  0.00  0.00    +0.000 OA
ATOM     31  H   UNL     1      46.992   1.874  18.456  0.00  0.00    +0.000 HD
ATOM     32  H   UNL     1      46.004   2.680  17.292  0.00  0.00    +0.000 HD
ENDBRANCH  22  29
ENDBRANCH  21  25
ENDBRANCH  20  21
ENDBRANCH   1  20
TORSDOF 7
ENDMDL
MODEL 4
REMARK VINA RESULT:    -8.103      3.265      4.042
REMARK INTER + INTRA:         -12.596
REMARK INTER:                 -11.797
REMARK INTRA:                  -0.800
REMARK UNBOUND:                -1.177
REMARK  Name = 
REMARK  7 active torsions:
REMARK  status: ('A' for Active; 'I' for Inactive)
REMARK    1  A    between atoms: C_2  and  C_4
REMARK    2  A    between atoms: C_7  and  O_8
REMARK    3  A    between atoms: O_8  and  C_9
REMARK    4  A    between atoms: C_9  and  C_10
REMARK    5  A    between atoms: C_10  and  C_13
REMARK    6  A    between atoms: C_17  and  C_18
REMARK    7  A    between atoms: C_21  and  C_22
REMARK                            x       y       z     vdW  Elec       q    Type
REMARK                         _______ _______ _______ _____ _____    ______ ____
ROOT
ATOM      1  C   UNL     1      44.543   4.058  12.204  0.00  0.00    +0.000 C 
ATOM      2  F   UNL     1      43.857   3.922  13.381  0.00  0.00    +0.000 F 
ATOM      3  F   UNL     1      45.591   3.182  12.297  0.00  0.00    +0.000 F 
ENDROOT
BRANCH   1   4
ATOM      4  C   UNL     1      45.055   5.487  12.031  0.00  0.00    +0.000 A 
ATOM      5  C   UNL     1      44.127   6.503  11.761  0.00  0.00    +0.000 A 
ATOM      6  C   UNL     1      44.541   7.829  11.643  0.00  0.00    +0.000 A 
ATOM      7  C   UNL     1      45.885   8.164  11.821  0.00  0.00    +0.000 A 
ATOM      8  C   UNL     1      46.847   7.186  12.114  0.00  0.00    +0.000 A 
ATOM      9  C   UNL     1      46.412   5.849  12.177  0.00  0.00    +0.000 A 
BRANCH   8  10
ATOM     10  C   UNL     1      48.253   7.532  12.408  0.00  0.00    +0.000 A 
ATOM     11  C   UNL     1      49.157   7.868  11.401  0.00  0.00    +0.000 A 
ATOM     12  C   UNL     1      50.462   8.216  11.737  0.00  0.00    +0.000 A 
ATOM     13  C   UNL     1      50.852   8.232  13.076  0.00  0.00    +0.000 A 
ATOM     14  C   UNL     1      49.890   7.908  14.021  0.00  0.00    +0.000 A 
ATOM     15  N   UNL     1      48.612   7.566  13.717  0.00  0.00    +0.000 NA
BRANCH  13  16
ATOM     16  C   UNL     1      52.245   8.577  13.503  0.00  0.00    +0.000 C 
ATOM     17  F   UNL     1      52.517   8.222  14.790  0.00  0.00    +0.000 F 
ATOM     18  F   UNL     1      53.195   7.968  12.741  0.00  0.00    +0.000 F 
ATOM     19  F   UNL     1      52.499   9.911  13.425  0.00  0.00    +0.000 F 
ENDBRANCH  13  16
ENDBRANCH   8  10
ENDBRANCH   1   4
BRANCH   1  20
ATOM     20  C   UNL     1      43.634   3.598  11.059  0.00  0.00    +0.000 C 
BRANCH  20  21
ATOM     21  O   UNL     1      43.786   4.370   9.856  0.00  0.00    +0.000 OA
BRANCH  21  25
ATOM     22  C   UNL     1      46.674   2.688   7.439  0.00  0.00    +0.000 A 
ATOM     23  C   UNL     1      45.882   1.864   8.246  0.00  0.00    +0.000 A 
ATOM     24  C   UNL     1      44.915   2.441   9.073  0.00  0.00    +0.000 A 
ATOM     25  C   UNL     1      44.775   3.821   9.057  0.00  0.00    +0.000 A 
ATOM     26  N   UNL     1      45.542   4.638   8.301  0.00  0.00    +0.000 NA
ATOM     27  C   UNL     1      46.478   4.058   7.517  0.00  0.00    +0.000 A 
BRANCH  22  29
ATOM     28  N   UNL     1      47.944   2.927   5.387  0.00  0.00    +0.000 N 
ATOM     29  C   UNL     1      47.698   2.183   6.505  0.00  0.00    +0.000 C 
ATOM     30  O   UNL     1      48.332   1.164   6.744  0.00  0.00    +0.000 OA
ATOM     31  H   UNL     1      48.739   2.639   4.829  0.00  0.00    +0.000 HD
ATOM     32  H   UNL     1      47.639   3.886   5.297  0.00  0.00    +0.000 HD
ENDBRANCH  22  29
ENDBRANCH  21  25
ENDBRANCH  20  21
ENDBRANCH   1  20
TORSDOF 7
ENDMDL
MODEL 5
REMARK VINA RESULT:    -7.206      4.267      8.068
REMARK INTER + INTRA:         -11.331
REMARK INTER:                  -9.743
REMARK INTRA:                  -1.588
REMARK UNBOUND:                -1.177
REMARK  Name = 
REMARK  7 active torsions:
REMARK  status: ('A' for Active; 'I' for Inactive)
REMARK    1  A    between atoms: C_2  and  C_4
REMARK    2  A    between atoms: C_7  and  O_8
REMARK    3  A    between atoms: O_8  and  C_9
REMARK    4  A    between atoms: C_9  and  C_10
REMARK    5  A    between atoms: C_10  and  C_13
REMARK    6  A    between atoms: C_17  and  C_18
REMARK    7  A    between atoms: C_21  and  C_22
REMARK                            x       y       z     vdW  Elec       q    Type
REMARK                         _______ _______ _______ _____ _____    ______ ____
ROOT
ATOM      1  C   UNL     1      48.975   9.124  16.198  0.00  0.00    +0.000 C 
ATOM      2  F   UNL     1      47.696   9.232  16.675  0.00  0.00    +0.000 F 
ATOM      3  F   UNL     1      49.444  10.409  16.138  0.00  0.00    +0.000 F 
ENDROOT
BRANCH   1   4
ATOM      4  C   UNL     1      48.991   8.484  14.811  0.00  0.00    +0.000 A 
ATOM      5  C   UNL     1      50.142   8.623  14.023  0.00  0.00    +0.000 A 
ATOM      6  C   UNL     1      50.223   8.016  12.771  0.00  0.00    +0.000 A 
ATOM      7  C   UNL     1      49.165   7.237  12.298  0.00  0.00    +0.000 A 
ATOM      8  C   UNL     1      48.002   7.049  13.060  0.00  0.00    +0.000 A 
ATOM      9  C   UNL     1      47.924   7.715  14.298  0.00  0.00    +0.000 A 
BRANCH   8  10
ATOM     10  C   UNL     1      46.917   6.146  12.625  0.00  0.00    +0.000 A 
ATOM     11  C   UNL     1      46.339   6.241  11.360  0.00  0.00    +0.000 A 
ATOM     12  C   UNL     1      45.341   5.344  10.990  0.00  0.00    +0.000 A 
ATOM     13  C   UNL     1      44.932   4.355  11.885  0.00  0.00    +0.000 A 
ATOM     14  C   UNL     1      45.570   4.310  13.115  0.00  0.00    +0.000 A 
ATOM     15  N   UNL     1      46.545   5.174  13.497  0.00  0.00    +0.000 NA
BRANCH  13  16
ATOM     16  C   UNL     1      43.851   3.373  11.558  0.00  0.00    +0.000 C 
ATOM     17  F   UNL     1      44.132   2.606  10.468  0.00  0.00    +0.000 F 
ATOM     18  F   UNL     1      43.607   2.501  12.573  0.00  0.00    +0.000 F 
ATOM     19  F   UNL     1      42.662   3.978  11.288  0.00  0.00    +0.000 F 
ENDBRANCH  13  16
ENDBRANCH   8  10
ENDBRANCH   1   4
BRANCH   1  20
ATOM     20  C   UNL     1      49.812   8.358  17.228  0.00  0.00    +0.000 C 
BRANCH  20  21
ATOM     21  O   UNL     1      49.028   7.540  18.115  0.00  0.00    +0.000 OA
BRANCH  21  25
ATOM     22  C   UNL     1      49.709   3.560  17.274  0.00  0.00    +0.000 A 
ATOM     23  C   UNL     1      48.460   4.123  16.991  0.00  0.00    +0.000 A 
ATOM     24  C   UNL     1      48.231   5.467  17.291  0.00  0.00    +0.000 A 
ATOM     25  C   UNL     1      49.263   6.199  17.859  0.00  0.00    +0.000 A 
ATOM     26  N   UNL     1      50.471   5.671  18.160  0.00  0.00    +0.000 NA
ATOM     27  C   UNL     1      50.666   4.366  17.870  0.00  0.00    +0.000 A 
BRANCH  22  29
ATOM     28  N   UNL     1      50.983   1.560  17.782  0.00  0.00    +0.000 N 
ATOM     29  C   UNL     1      50.068   2.162  16.967  0.00  0.00    +0.000 C 
ATOM     30  O   UNL     1      49.535   1.553  16.049  0.00  0.00    +0.000 OA
ATOM     31  H   UNL     1      51.117   0.566  17.640  0.00  0.00    +0.000 HD
ATOM     32  H   UNL     1      51.234   1.936  18.685  0.00  0.00    +0.000 HD
ENDBRANCH  22  29
ENDBRANCH  21  25
ENDBRANCH  20  21
ENDBRANCH   1  20
TORSDOF 7
ENDMDL
MODEL 6
REMARK VINA RESULT:    -7.042      4.449      9.113
REMARK INTER + INTRA:         -11.101
REMARK INTER:                  -9.897
REMARK INTRA:                  -1.204
REMARK UNBOUND:                -1.177
REMARK  Name = 
REMARK  7 active torsions:
REMARK  status: ('A' for Active; 'I' for Inactive)
REMARK    1  A    between atoms: C_2  and  C_4
REMARK    2  A    between atoms: C_7  and  O_8
REMARK    3  A    between atoms: O_8  and  C_9
REMARK    4  A    between atoms: C_9  and  C_10
REMARK    5  A    between atoms: C_10  and  C_13
REMARK    6  A    between atoms: C_17  and  C_18
REMARK    7  A    between atoms: C_21  and  C_22
REMARK                            x       y       z     vdW  Elec       q    Type
REMARK                         _______ _______ _______ _____ _____    ______ ____
ROOT
ATOM      1  C   UNL     1      48.285   4.387  18.001  0.00  0.00    +0.000 C 
ATOM      2  F   UNL     1      47.031   4.395  18.549  0.00  0.00    +0.000 F 
ATOM      3  F   UNL     1      49.092   4.959  18.948  0.00  0.00    +0.000 F 
ENDROOT
BRANCH   1   4
ATOM      4  C   UNL     1      48.323   5.199  16.707  0.00  0.00    +0.000 A 
ATOM      5  C   UNL     1      49.315   6.179  16.561  0.00  0.00    +0.000 A 
ATOM      6  C   UNL     1      49.421   6.911  15.380  0.00  0.00    +0.000 A 
ATOM      7  C   UNL     1      48.555   6.655  14.314  0.00  0.00    +0.000 A 
ATOM      8  C   UNL     1      47.561   5.668  14.405  0.00  0.00    +0.000 A 
ATOM      9  C   UNL     1      47.442   4.980  15.627  0.00  0.00    +0.000 A 
BRANCH   8  10
ATOM     10  C   UNL     1      46.705   5.311  13.255  0.00  0.00    +0.000 A 
ATOM     11  C   UNL     1      46.575   6.143  12.144  0.00  0.00    +0.000 A 
ATOM     12  C   UNL     1      45.778   5.743  11.075  0.00  0.00    +0.000 A 
ATOM     13  C   UNL     1      45.123   4.513  11.122  0.00  0.00    +0.000 A 
ATOM     14  C   UNL     1      45.319   3.732  12.250  0.00  0.00    +0.000 A 
ATOM     15  N   UNL     1      46.091   4.101  13.304  0.00  0.00    +0.000 NA
BRANCH  13  16
ATOM     16  C   UNL     1      44.236   4.033  10.016  0.00  0.00    +0.000 C 
ATOM     17  F   UNL     1      43.834   2.741  10.169  0.00  0.00    +0.000 F 
ATOM     18  F   UNL     1      43.095   4.766   9.900  0.00  0.00    +0.000 F 
ATOM     19  F   UNL     1      44.843   4.089   8.799  0.00  0.00    +0.000 F 
ENDBRANCH  13  16
ENDBRANCH   8  10
ENDBRANCH   1   4
BRANCH   1  20
ATOM     20  C   UNL     1      48.723   2.931  17.816  0.00  0.00    +0.000 C 
BRANCH  20  21
ATOM     21  O   UNL     1      49.659   2.742  16.740  0.00  0.00    +0.000 OA
BRANCH  21  25
ATOM     22  C   UNL     1      53.344   1.763  18.310  0.00  0.00    +0.000 A 
ATOM     23  C   UNL     1      52.938   3.101  18.282  0.00  0.00    +0.000 A 
ATOM     24  C   UNL     1      51.695   3.428  17.736  0.00  0.00    +0.000 A 
ATOM     25  C   UNL     1      50.903   2.402  17.243  0.00  0.00    +0.000 A 
ATOM     26  N   UNL     1      51.283   1.104  17.242  0.00  0.00    +0.000 NA
ATOM     27  C   UNL     1      52.494   0.813  17.766  0.00  0.00    +0.000 A 
BRANCH  22  29
ATOM     28  N   UNL     1      55.652   1.071  18.032  0.00  0.00    +0.000 N 
ATOM     29  C   UNL     1      54.619   1.304  18.894  0.00  0.00    +0.000 C 
ATOM     30  O   UNL     1      54.759   1.181  20.104  0.00  0.00    +0.000 OA
ATOM     31  H   UNL     1      56.552   0.888  18.459  0.00  0.00    +0.000 HD
ATOM     32  H   UNL     1      55.651   1.412  17.082  0.00  0.00    +0.000 HD
ENDBRANCH  22  29
ENDBRANCH  21  25
ENDBRANCH  20  21
ENDBRANCH   1  20
TORSDOF 7
ENDMDL
MODEL 7
REMARK VINA RESULT:    -6.859      4.244      8.874
REMARK INTER + INTRA:         -10.843
REMARK INTER:                  -9.805
REMARK INTRA:                  -1.038
REMARK UNBOUND:                -1.177
REMARK  Name = 
REMARK  7 active torsions:
REMARK  status: ('A' for Active; 'I' for Inactive)
REMARK    1  A    between atoms: C_2  and  C_4
REMARK    2  A    between atoms: C_7  and  O_8
REMARK    3  A    between atoms: O_8  and  C_9
REMARK    4  A    between atoms: C_9  and  C_10
REMARK    5  A    between atoms: C_10  and  C_13
REMARK    6  A    between atoms: C_17  and  C_18
REMARK    7  A    between atoms: C_21  and  C_22
REMARK                            x       y       z     vdW  Elec       q    Type
REMARK                         _______ _______ _______ _____ _____    ______ ____
ROOT
ATOM      1  C   UNL     1      49.383   6.710  17.143  0.00  0.00    +0.000 C 
ATOM      2  F   UNL     1      48.161   6.472  17.711  0.00  0.00    +0.000 F 
ATOM      3  F   UNL     1      49.835   7.859  17.735  0.00  0.00    +0.000 F 
ENDROOT
BRANCH   1   4
ATOM      4  C   UNL     1      49.258   6.901  15.632  0.00  0.00    +0.000 A 
ATOM      5  C   UNL     1      50.316   7.514  14.946  0.00  0.00    +0.000 A 
ATOM      6  C   UNL     1      50.270   7.667  13.561  0.00  0.00    +0.000 A 
ATOM      7  C   UNL     1      49.178   7.182  12.837  0.00  0.00    +0.000 A 
ATOM      8  C   UNL     1      48.106   6.541  13.477  0.00  0.00    +0.000 A 
ATOM      9  C   UNL     1      48.154   6.446  14.880  0.00  0.00    +0.000 A 
BRANCH   8  10
ATOM     10  C   UNL     1      46.994   5.930  12.721  0.00  0.00    +0.000 A 
ATOM     11  C   UNL     1      46.540   6.463  11.516  0.00  0.00    +0.000 A 
ATOM     12  C   UNL     1      45.508   5.829  10.829  0.00  0.00    +0.000 A 
ATOM     13  C   UNL     1      44.943   4.665  11.348  0.00  0.00    +0.000 A 
ATOM     14  C   UNL     1      45.463   4.184  12.540  0.00  0.00    +0.000 A 
ATOM     15  N   UNL     1      46.468   4.784  13.226  0.00  0.00    +0.000 NA
BRANCH  13  16
ATOM     16  C   UNL     1      43.818   3.947  10.670  0.00  0.00    +0.000 C 
ATOM     17  F   UNL     1      42.591   4.284  11.158  0.00  0.00    +0.000 F 
ATOM     18  F   UNL     1      43.766   4.193   9.333  0.00  0.00    +0.000 F 
ATOM     19  F   UNL     1      43.908   2.595  10.800  0.00  0.00    +0.000 F 
ENDBRANCH  13  16
ENDBRANCH   8  10
ENDBRANCH   1   4
BRANCH   1  20
ATOM     20  C   UNL     1      50.328   5.568  17.533  0.00  0.00    +0.000 C 
BRANCH  20  21
ATOM     21  O   UNL     1      49.878   4.273  17.100  0.00  0.00    +0.000 OA
BRANCH  21  25
ATOM     22  C   UNL     1      52.766   1.453  17.945  0.00  0.00    +0.000 A 
ATOM     23  C   UNL     1      52.993   2.794  18.272  0.00  0.00    +0.000 A 
ATOM     24  C   UNL     1      52.017   3.747  17.970  0.00  0.00    +0.000 A 
ATOM     25  C   UNL     1      50.849   3.320  17.357  0.00  0.00    +0.000 A 
ATOM     26  N   UNL     1      50.617   2.032  17.014  0.00  0.00    +0.000 NA
ATOM     27  C   UNL     1      51.579   1.130  17.306  0.00  0.00    +0.000 A 
BRANCH  22  29
ATOM     28  N   UNL     1      53.181  -0.852  18.575  0.00  0.00    +0.000 N 
ATOM     29  C   UNL     1      53.713   0.363  18.249  0.00  0.00    +0.000 C 
ATOM     30  O   UNL     1      54.923   0.527  18.168  0.00  0.00    +0.000 OA
ATOM     31  H   UNL     1      53.839  -1.619  18.649  0.00  0.00    +0.000 HD
ATOM     32  H   UNL     1      52.216  -1.087  18.393  0.00  0.00    +0.000 HD
ENDBRANCH  22  29
ENDBRANCH  21  25
ENDBRANCH  20  21
ENDBRANCH   1  20
TORSDOF 7
ENDMDL
MODEL 8
REMARK VINA RESULT:    -6.814      4.830      8.214
REMARK INTER + INTRA:         -10.779
REMARK INTER:                  -9.646
REMARK INTRA:                  -1.133
REMARK UNBOUND:                -1.177
REMARK  Name = 
REMARK  7 active torsions:
REMARK  status: ('A' for Active; 'I' for Inactive)
REMARK    1  A    between atoms: C_2  and  C_4
REMARK    2  A    between atoms: C_7  and  O_8
REMARK    3  A    between atoms: O_8  and  C_9
REMARK    4  A    between atoms: C_9  and  C_10
REMARK    5  A    between atoms: C_10  and  C_13
REMARK    6  A    between atoms: C_17  and  C_18
REMARK    7  A    between atoms: C_21  and  C_22
REMARK                            x       y       z     vdW  Elec       q    Type
REMARK                         _______ _______ _______ _____ _____    ______ ____
ROOT
ATOM      1  C   UNL     1      45.896   7.930  12.845  0.00  0.00    +0.000 C 
ATOM      2  F   UNL     1      46.579   7.561  13.972  0.00  0.00    +0.000 F 
ATOM      3  F   UNL     1      45.029   8.906  13.255  0.00  0.00    +0.000 F 
ENDROOT
BRANCH   1   4
ATOM      4  C   UNL     1      45.128   6.746  12.258  0.00  0.00    +0.000 A 
ATOM      5  C   UNL     1      43.816   6.516  12.697  0.00  0.00    +0.000 A 
ATOM      6  C   UNL     1      43.058   5.479  12.155  0.00  0.00    +0.000 A 
ATOM      7  C   UNL     1      43.591   4.673  11.145  0.00  0.00    +0.000 A 
ATOM      8  C   UNL     1      44.890   4.880  10.658  0.00  0.00    +0.000 A 
ATOM      9  C   UNL     1      45.652   5.899  11.258  0.00  0.00    +0.000 A 
BRANCH   8  10
ATOM     10  C   UNL     1      45.433   4.107   9.521  0.00  0.00    +0.000 A 
ATOM     11  C   UNL     1      45.323   2.719   9.452  0.00  0.00    +0.000 A 
ATOM     12  C   UNL     1      45.825   2.044   8.343  0.00  0.00    +0.000 A 
ATOM     13  C   UNL     1      46.426   2.761   7.310  0.00  0.00    +0.000 A 
ATOM     14  C   UNL     1      46.478   4.140   7.441  0.00  0.00    +0.000 A 
ATOM     15  N   UNL     1      45.995   4.820   8.512  0.00  0.00    +0.000 NA
BRANCH  13  16
ATOM     16  C   UNL     1      47.004   2.095   6.100  0.00  0.00    +0.000 C 
ATOM     17  F   UNL     1      46.463   2.537   4.931  0.00  0.00    +0.000 F 
ATOM     18  F   UNL     1      48.347   2.287   5.984  0.00  0.00    +0.000 F 
ATOM     19  F   UNL     1      46.816   0.747   6.108  0.00  0.00    +0.000 F 
ENDBRANCH  13  16
ENDBRANCH   8  10
ENDBRANCH   1   4
BRANCH   1  20
ATOM     20  C   UNL     1      46.889   8.555  11.860  0.00  0.00    +0.000 C 
BRANCH  20  21
ATOM     21  O   UNL     1      47.771   9.518  12.463  0.00  0.00    +0.000 OA
BRANCH  21  25
ATOM     22  C   UNL     1      51.690   8.413  11.808  0.00  0.00    +0.000 A 
ATOM     23  C   UNL     1      50.658   7.696  11.194  0.00  0.00    +0.000 A 
ATOM     24  C   UNL     1      49.332   8.066  11.431  0.00  0.00    +0.000 A 
ATOM     25  C   UNL     1      49.090   9.143  12.271  0.00  0.00    +0.000 A 
ATOM     26  N   UNL     1      50.071   9.838  12.891  0.00  0.00    +0.000 NA
ATOM     27  C   UNL     1      51.345   9.455  12.655  0.00  0.00    +0.000 A 
BRANCH  22  29
ATOM     28  N   UNL     1      53.576   8.119  10.312  0.00  0.00    +0.000 N 
ATOM     29  C   UNL     1      53.124   8.130  11.600  0.00  0.00    +0.000 C 
ATOM     30  O   UNL     1      53.884   7.959  12.544  0.00  0.00    +0.000 OA
ATOM     31  H   UNL     1      54.581   8.057  10.196  0.00  0.00    +0.000 HD
ATOM     32  H   UNL     1      53.045   8.512   9.548  0.00  0.00    +0.000 HD
ENDBRANCH  22  29
ENDBRANCH  21  25
ENDBRANCH  20  21
ENDBRANCH   1  20
TORSDOF 7
ENDMDL
MODEL 9
REMARK VINA RESULT:    -6.811      4.462      8.635
REMARK INTER + INTRA:         -10.775
REMARK INTER:                  -9.659
REMARK INTRA:                  -1.117
REMARK UNBOUND:                -1.177
REMARK  Name = 
REMARK  7 active torsions:
REMARK  status: ('A' for Active; 'I' for Inactive)
REMARK    1  A    between atoms: C_2  and  C_4
REMARK    2  A    between atoms: C_7  and  O_8
REMARK    3  A    between atoms: O_8  and  C_9
REMARK    4  A    between atoms: C_9  and  C_10
REMARK    5  A    between atoms: C_10  and  C_13
REMARK    6  A    between atoms: C_17  and  C_18
REMARK    7  A    between atoms: C_21  and  C_22
REMARK                            x       y       z     vdW  Elec       q    Type
REMARK                         _______ _______ _______ _____ _____    ______ ____
ROOT
ATOM      1  C   UNL     1      50.621   7.640  15.562  0.00  0.00    +0.000 C 
ATOM      2  F   UNL     1      50.736   8.899  16.086  0.00  0.00    +0.000 F 
ATOM      3  F   UNL     1      51.908   7.218  15.362  0.00  0.00    +0.000 F 
ENDROOT
BRANCH   1   4
ATOM      4  C   UNL     1      49.855   7.664  14.240  0.00  0.00    +0.000 A 
ATOM      5  C   UNL     1      50.322   8.494  13.211  0.00  0.00    +0.000 A 
ATOM      6  C   UNL     1      49.686   8.513  11.970  0.00  0.00    +0.000 A 
ATOM      7  C   UNL     1      48.590   7.681  11.730  0.00  0.00    +0.000 A 
ATOM      8  C   UNL     1      48.100   6.817  12.722  0.00  0.00    +0.000 A 
ATOM      9  C   UNL     1      48.728   6.855  13.981  0.00  0.00    +0.000 A 
BRANCH   8  10
ATOM     10  C   UNL     1      47.010   5.857  12.455  0.00  0.00    +0.000 A 
ATOM     11  C   UNL     1      46.761   4.771  13.293  0.00  0.00    +0.000 A 
ATOM     12  C   UNL     1      45.700   3.914  13.011  0.00  0.00    +0.000 A 
ATOM     13  C   UNL     1      44.894   4.152  11.898  0.00  0.00    +0.000 A 
ATOM     14  C   UNL     1      45.192   5.264  11.126  0.00  0.00    +0.000 A 
ATOM     15  N   UNL     1      46.219   6.113  11.381  0.00  0.00    +0.000 NA
BRANCH  13  16
ATOM     16  C   UNL     1      43.753   3.257  11.528  0.00  0.00    +0.000 C 
ATOM     17  F   UNL     1      42.595   3.934  11.286  0.00  0.00    +0.000 F 
ATOM     18  F   UNL     1      43.998   2.527  10.405  0.00  0.00    +0.000 F 
ATOM     19  F   UNL     1      43.458   2.357  12.505  0.00  0.00    +0.000 F 
ENDBRANCH  13  16
ENDBRANCH   8  10
ENDBRANCH   1   4
BRANCH   1  20
ATOM     20  C   UNL     1      49.979   6.734  16.617  0.00  0.00    +0.000 C 
BRANCH  20  21
ATOM     21  O   UNL     1      50.829   6.471  17.747  0.00  0.00    +0.000 OA
BRANCH  21  25
ATOM     22  C   UNL     1      51.929   2.496  17.707  0.00  0.00    +0.000 A 
ATOM     23  C   UNL     1      50.600   2.848  17.452  0.00  0.00    +0.000 A 
ATOM     24  C   UNL     1      50.230   4.195  17.481  0.00  0.00    +0.000 A 
ATOM     25  C   UNL     1      51.207   5.139  17.759  0.00  0.00    +0.000 A 
ATOM     26  N   UNL     1      52.494   4.820  18.028  0.00  0.00    +0.000 NA
ATOM     27  C   UNL     1      52.826   3.511  18.005  0.00  0.00    +0.000 A 
BRANCH  22  29
ATOM     28  N   UNL     1      51.616   0.134  18.161  0.00  0.00    +0.000 N 
ATOM     29  C   UNL     1      52.434   1.110  17.668  0.00  0.00    +0.000 C 
ATOM     30  O   UNL     1      53.520   0.840  17.172  0.00  0.00    +0.000 OA
ATOM     31  H   UNL     1      51.920  -0.819  18.004  0.00  0.00    +0.000 HD
ATOM     32  H   UNL     1      50.631   0.286  18.326  0.00  0.00    +0.000 HD
ENDBRANCH  22  29
ENDBRANCH  21  25
ENDBRANCH  20  21
ENDBRANCH   1  20
TORSDOF 7
ENDMDL
