MODEL 1
REMARK VINA RESULT:    -9.065      0.000      0.000
REMARK INTER + INTRA:         -12.095
REMARK INTER:                 -11.185
REMARK INTRA:                  -0.911
REMARK UNBOUND:                -0.911
REMARK  Name = 
REMARK  4 active torsions:
REMARK  status: ('A' for Active; 'I' for Inactive)
REMARK    1  A    between atoms: C_2  and  C_4
REMARK    2  A    between atoms: N_8  and  C_9
REMARK    3  A    between atoms: C_9  and  C_10
REMARK    4  A    between atoms: C_14  and  C_15
REMARK                            x       y       z     vdW  Elec       q    Type
REMARK                         _______ _______ _______ _____ _____    ______ ____
ROOT
ATOM      1  C   UNL     1      46.397   2.249   7.637  0.00  0.00    +0.000 A 
ATOM      2  C   UNL     1      45.712   1.810   8.765  0.00  0.00    +0.000 A 
ATOM      3  C   UNL     1      44.887   2.701   9.456  0.00  0.00    +0.000 A 
ATOM      4  C   UNL     1      44.763   4.017   9.016  0.00  0.00    +0.000 A 
ATOM      5  N   UNL     1      43.897   4.928   9.578  0.00  0.00    +0.000 N 
ATOM      6  N   UNL     1      45.442   4.459   7.937  0.00  0.00    +0.000 NA
ATOM      7  C   UNL     1      46.249   3.580   7.280  0.00  0.00    +0.000 A 
ATOM      8  H   UNL     1      44.036   5.832   9.135  0.00  0.00    +0.000 HD
ENDROOT
BRANCH   1  10
ATOM      9  N   UNL     1      48.271   1.940   6.129  0.00  0.00    +0.000 N 
ATOM     10  C   UNL     1      47.236   1.360   6.812  0.00  0.00    +0.000 C 
ATOM     11  O   UNL     1      47.040   0.152   6.767  0.00  0.00    +0.000 OA
ATOM     12  H   UNL     1      48.905   1.310   5.654  0.00  0.00    +0.000 HD
ATOM     13  H   UNL     1      48.614   2.865   6.344  0.00  0.00    +0.000 HD
ENDBRANCH   1  10
BRANCH   5  14
ATOM     14  C   UNL     1      43.617   4.972  11.000  0.00  0.00    +0.000 C 
BRANCH  14  15
ATOM     15  C   UNL     1      44.813   5.228  11.893  0.00  0.00    +0.000 A 
ATOM     16  C   UNL     1      45.108   4.291  12.895  0.00  0.00    +0.000 A 
ATOM     17  C   UNL     1      46.197   4.475  13.745  0.00  0.00    +0.000 A 
ATOM     18  C   UNL     1      47.021   5.593  13.593  0.00  0.00    +0.000 A 
ATOM     19  C   UNL     1      46.789   6.538  12.580  0.00  0.00    +0.000 A 
ATOM     20  C   UNL     1      45.658   6.342  11.759  0.00  0.00    +0.000 A 
BRANCH  19  21
ATOM     21  C   UNL     1      47.735   7.645  12.307  0.00  0.00    +0.000 A 
ATOM     22  C   UNL     1      49.102   7.388  12.090  0.00  0.00    +0.000 A 
ATOM     23  C   UNL     1      49.987   8.401  11.713  0.00  0.00    +0.000 A 
ATOM     24  C   UNL     1      49.524   9.701  11.541  0.00  0.00    +0.000 A 
ATOM     25  C   UNL     1      48.184   9.992  11.773  0.00  0.00    +0.000 A 
ATOM     26  C   UNL     1      47.303   8.977  12.164  0.00  0.00    +0.000 A 
ENDBRANCH  19  21
ENDBRANCH  14  15
ENDBRANCH   5  14
TORSDOF 4
ENDMDL
MODEL 2
REMARK VINA RESULT:    -8.401      1.577      3.191
REMARK INTER + INTRA:         -11.277
REMARK INTER:                 -10.411
REMARK INTRA:                  -0.866
REMARK UNBOUND:                -0.911
REMARK  Name = 
REMARK  4 active torsions:
REMARK  status: ('A' for Active; 'I' for Inactive)
REMARK    1  A    between atoms: C_2  and  C_4
REMARK    2  A    between atoms: N_8  and  C_9
REMARK    3  A    between atoms: C_9  and  C_10
REMARK    4  A    between atoms: C_14  and  C_15
REMARK                            x       y       z     vdW  Elec       q    Type
REMARK                         _______ _______ _______ _____ _____    ______ ____
ROOT
ATOM      1  C   UNL     1      46.401   2.267   7.672  0.00  0.00    +0.000 A 
ATOM      2  C   UNL     1      45.793   1.874   8.859  0.00  0.00    +0.000 A 
ATOM      3  C   UNL     1      44.973   2.776   9.541  0.00  0.00    +0.000 A 
ATOM      4  C   UNL     1      44.776   4.058   9.031  0.00  0.00    +0.000 A 
ATOM      5  N   UNL     1      43.907   4.972   9.586  0.00  0.00    +0.000 N 
ATOM      6  N   UNL     1      45.380   4.457   7.893  0.00  0.00    +0.000 NA
ATOM      7  C   UNL     1      46.184   3.568   7.245  0.00  0.00    +0.000 A 
ATOM      8  H   UNL     1      43.988   5.851   9.084  0.00  0.00    +0.000 HD
ENDROOT
BRANCH   1  10
ATOM      9  N   UNL     1      48.281   1.915   6.181  0.00  0.00    +0.000 N 
ATOM     10  C   UNL     1      47.228   1.359   6.855  0.00  0.00    +0.000 C 
ATOM     11  O   UNL     1      47.005   0.155   6.810  0.00  0.00    +0.000 OA
ATOM     12  H   UNL     1      48.907   1.272   5.713  0.00  0.00    +0.000 HD
ATOM     13  H   UNL     1      48.642   2.834   6.399  0.00  0.00    +0.000 HD
ENDBRANCH   1  10
BRANCH   5  14
ATOM     14  C   UNL     1      43.701   5.092  11.016  0.00  0.00    +0.000 C 
BRANCH  14  15
ATOM     15  C   UNL     1      44.760   5.874  11.765  0.00  0.00    +0.000 A 
ATOM     16  C   UNL     1      44.904   7.240  11.479  0.00  0.00    +0.000 A 
ATOM     17  C   UNL     1      45.861   8.008  12.139  0.00  0.00    +0.000 A 
ATOM     18  C   UNL     1      46.678   7.425  13.110  0.00  0.00    +0.000 A 
ATOM     19  C   UNL     1      46.545   6.071  13.458  0.00  0.00    +0.000 A 
ATOM     20  C   UNL     1      45.592   5.311  12.747  0.00  0.00    +0.000 A 
BRANCH  19  21
ATOM     21  C   UNL     1      47.295   5.473  14.587  0.00  0.00    +0.000 A 
ATOM     22  C   UNL     1      48.305   6.198  15.247  0.00  0.00    +0.000 A 
ATOM     23  C   UNL     1      48.939   5.699  16.387  0.00  0.00    +0.000 A 
ATOM     24  C   UNL     1      48.574   4.458  16.900  0.00  0.00    +0.000 A 
ATOM     25  C   UNL     1      47.597   3.707  16.256  0.00  0.00    +0.000 A 
ATOM     26  C   UNL     1      46.975   4.204  15.106  0.00  0.00    +0.000 A 
ENDBRANCH  19  21
ENDBRANCH  14  15
ENDBRANCH   5  14
TORSDOF 4
ENDMDL
MODEL 3
REMARK VINA RESULT:    -7.977      3.362      6.941
REMARK INTER + INTRA:         -10.753
REMARK INTER:                 -10.282
REMARK INTRA:                  -0.472
REMARK UNBOUND:                -0.911
REMARK  Name = 
REMARK  4 active torsions:
REMARK  status: ('A' for Active; 'I' for Inactive)
REMARK    1  A    between atoms: C_2  and  C_4
REMARK    2  A    between atoms: N_8  and  C_9
REMARK    3  A    between atoms: C_9  and  C_10
REMARK    4  A    between atoms: C_14  and  C_15
REMARK                            x       y       z     vdW  Elec       q    Type
REMARK                         _______ _______ _______ _____ _____    ______ ____
ROOT
ATOM      1  C   UNL     1      47.495   7.263  13.809  0.00  0.00    +0.000 A 
ATOM      2  C   UNL     1      46.932   6.043  13.450  0.00  0.00    +0.000 A 
ATOM      3  C   UNL     1      45.855   6.020  12.560  0.00  0.00    +0.000 A 
ATOM      4  C   UNL     1      45.353   7.215  12.047  0.00  0.00    +0.000 A 
ATOM      5  N   UNL     1      44.364   7.275  11.091  0.00  0.00    +0.000 N 
ATOM      6  N   UNL     1      45.878   8.404  12.408  0.00  0.00    +0.000 NA
ATOM      7  C   UNL     1      46.922   8.409  13.283  0.00  0.00    +0.000 A 
ATOM      8  H   UNL     1      44.120   8.249  10.929  0.00  0.00    +0.000 HD
ENDROOT
BRANCH   1  10
ATOM      9  N   UNL     1      48.467   7.879  15.944  0.00  0.00    +0.000 N 
ATOM     10  C   UNL     1      48.674   7.373  14.689  0.00  0.00    +0.000 C 
ATOM     11  O   UNL     1      49.782   6.996  14.328  0.00  0.00    +0.000 OA
ATOM     12  H   UNL     1      49.256   7.850  16.577  0.00  0.00    +0.000 HD
ATOM     13  H   UNL     1      47.547   7.952  16.356  0.00  0.00    +0.000 HD
ENDBRANCH   1  10
BRANCH   5  14
ATOM     14  C   UNL     1      43.252   6.344  11.051  0.00  0.00    +0.000 C 
BRANCH  14  15
ATOM     15  C   UNL     1      43.622   4.898  10.795  0.00  0.00    +0.000 A 
ATOM     16  C   UNL     1      43.048   3.910  11.609  0.00  0.00    +0.000 A 
ATOM     17  C   UNL     1      43.351   2.563  11.417  0.00  0.00    +0.000 A 
ATOM     18  C   UNL     1      44.221   2.181  10.394  0.00  0.00    +0.000 A 
ATOM     19  C   UNL     1      44.790   3.130   9.529  0.00  0.00    +0.000 A 
ATOM     20  C   UNL     1      44.492   4.488   9.771  0.00  0.00    +0.000 A 
BRANCH  19  21
ATOM     21  C   UNL     1      45.592   2.734   8.347  0.00  0.00    +0.000 A 
ATOM     22  C   UNL     1      45.871   3.658   7.322  0.00  0.00    +0.000 A 
ATOM     23  C   UNL     1      46.723   3.340   6.261  0.00  0.00    +0.000 A 
ATOM     24  C   UNL     1      47.321   2.085   6.202  0.00  0.00    +0.000 A 
ATOM     25  C   UNL     1      47.046   1.143   7.186  0.00  0.00    +0.000 A 
ATOM     26  C   UNL     1      46.181   1.460   8.239  0.00  0.00    +0.000 A 
ENDBRANCH  19  21
ENDBRANCH  14  15
ENDBRANCH   5  14
TORSDOF 4
ENDMDL
MODEL 4
REMARK VINA RESULT:    -7.795      3.476      6.974
REMARK INTER + INTRA:         -10.529
REMARK INTER:                  -9.693
REMARK INTRA:                  -0.836
REMARK UNBOUND:                -0.911
REMARK  Name = 
REMARK  4 active torsions:
REMARK  status: ('A' for Active; 'I' for Inactive)
REMARK    1  A    between atoms: C_2  and  C_4
REMARK    2  A    between atoms: N_8  and  C_9
REMARK    3  A    between atoms: C_9  and  C_10
REMARK    4  A    between atoms: C_14  and  C_15
REMARK                            x       y       z     vdW  Elec       q    Type
REMARK                         _______ _______ _______ _____ _____    ______ ____
ROOT
ATOM      1  C   UNL     1      49.370   7.740  12.852  0.00  0.00    +0.000 A 
ATOM      2  C   UNL     1      48.586   8.191  11.796  0.00  0.00    +0.000 A 
ATOM      3  C   UNL     1      47.222   7.888  11.777  0.00  0.00    +0.000 A 
ATOM      4  C   UNL     1      46.664   7.135  12.808  0.00  0.00    +0.000 A 
ATOM      5  N   UNL     1      45.315   6.879  12.917  0.00  0.00    +0.000 N 
ATOM      6  N   UNL     1      47.421   6.673  13.823  0.00  0.00    +0.000 NA
ATOM      7  C   UNL     1      48.750   6.970  13.823  0.00  0.00    +0.000 A 
ATOM      8  H   UNL     1      45.160   6.256  13.705  0.00  0.00    +0.000 HD
ENDROOT
BRANCH   1  10
ATOM      9  N   UNL     1      51.391   7.806  14.192  0.00  0.00    +0.000 N 
ATOM     10  C   UNL     1      50.802   8.069  12.984  0.00  0.00    +0.000 C 
ATOM     11  O   UNL     1      51.446   8.523  12.046  0.00  0.00    +0.000 OA
ATOM     12  H   UNL     1      52.394   7.932  14.241  0.00  0.00    +0.000 HD
ATOM     13  H   UNL     1      50.966   7.204  14.884  0.00  0.00    +0.000 HD
ENDBRANCH   1  10
BRANCH   5  14
ATOM     14  C   UNL     1      44.464   6.644  11.766  0.00  0.00    +0.000 C 
BRANCH  14  15
ATOM     15  C   UNL     1      44.374   5.205  11.303  0.00  0.00    +0.000 A 
ATOM     16  C   UNL     1      43.486   4.347  11.970  0.00  0.00    +0.000 A 
ATOM     17  C   UNL     1      43.361   3.013  11.586  0.00  0.00    +0.000 A 
ATOM     18  C   UNL     1      44.110   2.520  10.516  0.00  0.00    +0.000 A 
ATOM     19  C   UNL     1      44.983   3.350   9.793  0.00  0.00    +0.000 A 
ATOM     20  C   UNL     1      45.114   4.686  10.228  0.00  0.00    +0.000 A 
BRANCH  19  21
ATOM     21  C   UNL     1      45.670   2.887   8.564  0.00  0.00    +0.000 A 
ATOM     22  C   UNL     1      46.048   3.801   7.562  0.00  0.00    +0.000 A 
ATOM     23  C   UNL     1      46.801   3.402   6.454  0.00  0.00    +0.000 A 
ATOM     24  C   UNL     1      47.198   2.075   6.324  0.00  0.00    +0.000 A 
ATOM     25  C   UNL     1      46.818   1.145   7.285  0.00  0.00    +0.000 A 
ATOM     26  C   UNL     1      46.052   1.545   8.385  0.00  0.00    +0.000 A 
ENDBRANCH  19  21
ENDBRANCH  14  15
ENDBRANCH   5  14
TORSDOF 4
ENDMDL
MODEL 5
REMARK VINA RESULT:    -7.617      2.387      3.195
REMARK INTER + INTRA:         -10.308
REMARK INTER:                  -9.562
REMARK INTRA:                  -0.746
REMARK UNBOUND:                -0.911
REMARK  Name = 
REMARK  4 active torsions:
REMARK  status: ('A' for Active; 'I' for Inactive)
REMARK    1  A    between atoms: C_2  and  C_4
REMARK    2  A    between atoms: N_8  and  C_9
REMARK    3  A    between atoms: C_9  and  C_10
REMARK    4  A    between atoms: C_14  and  C_15
REMARK                            x       y       z     vdW  Elec       q    Type
REMARK                         _______ _______ _______ _____ _____    ______ ____
ROOT
ATOM      1  C   UNL     1      46.669   2.540   7.216  0.00  0.00    +0.000 A 
ATOM      2  C   UNL     1      46.422   3.801   7.746  0.00  0.00    +0.000 A 
ATOM      3  C   UNL     1      45.666   3.918   8.915  0.00  0.00    +0.000 A 
ATOM      4  C   UNL     1      45.163   2.775   9.534  0.00  0.00    +0.000 A 
ATOM      5  N   UNL     1      44.496   2.795  10.739  0.00  0.00    +0.000 N 
ATOM      6  N   UNL     1      45.377   1.549   9.014  0.00  0.00    +0.000 NA
ATOM      7  C   UNL     1      46.109   1.453   7.869  0.00  0.00    +0.000 A 
ATOM      8  H   UNL     1      44.168   1.856  10.949  0.00  0.00    +0.000 HD
ENDROOT
BRANCH   1  10
ATOM      9  N   UNL     1      47.348   3.192   4.981  0.00  0.00    +0.000 N 
ATOM     10  C   UNL     1      47.510   2.321   6.024  0.00  0.00    +0.000 C 
ATOM     11  O   UNL     1      48.344   1.424   5.983  0.00  0.00    +0.000 OA
ATOM     12  H   UNL     1      48.002   3.102   4.214  0.00  0.00    +0.000 HD
ATOM     13  H   UNL     1      46.871   4.077   5.080  0.00  0.00    +0.000 HD
ENDBRANCH   1  10
BRANCH   5  14
ATOM     14  C   UNL     1      43.596   3.866  11.122  0.00  0.00    +0.000 C 
BRANCH  14  15
ATOM     15  C   UNL     1      44.259   5.101  11.695  0.00  0.00    +0.000 A 
ATOM     16  C   UNL     1      45.288   4.929  12.634  0.00  0.00    +0.000 A 
ATOM     17  C   UNL     1      45.933   6.030  13.193  0.00  0.00    +0.000 A 
ATOM     18  C   UNL     1      45.572   7.323  12.807  0.00  0.00    +0.000 A 
ATOM     19  C   UNL     1      44.575   7.544  11.842  0.00  0.00    +0.000 A 
ATOM     20  C   UNL     1      43.916   6.411  11.321  0.00  0.00    +0.000 A 
BRANCH  19  21
ATOM     21  C   UNL     1      44.285   8.896  11.309  0.00  0.00    +0.000 A 
ATOM     22  C   UNL     1      43.096   9.152  10.601  0.00  0.00    +0.000 A 
ATOM     23  C   UNL     1      42.747  10.443  10.196  0.00  0.00    +0.000 A 
ATOM     24  C   UNL     1      43.583  11.515  10.494  0.00  0.00    +0.000 A 
ATOM     25  C   UNL     1      44.776  11.290  11.171  0.00  0.00    +0.000 A 
ATOM     26  C   UNL     1      45.128   9.994  11.562  0.00  0.00    +0.000 A 
ENDBRANCH  19  21
ENDBRANCH  14  15
ENDBRANCH   5  14
TORSDOF 4
ENDMDL
MODEL 6
REMARK VINA RESULT:    -7.596      1.554      2.352
REMARK INTER + INTRA:         -10.283
REMARK INTER:                 -10.047
REMARK INTRA:                  -0.237
REMARK UNBOUND:                -0.911
REMARK  Name = 
REMARK  4 active torsions:
REMARK  status: ('A' for Active; 'I' for Inactive)
REMARK    1  A    between atoms: C_2  and  C_4
REMARK    2  A    between atoms: N_8  and  C_9
REMARK    3  A    between atoms: C_9  and  C_10
REMARK    4  A    between atoms: C_14  and  C_15
REMARK                            x       y       z     vdW  Elec       q    Type
REMARK                         _______ _______ _______ _____ _____    ______ ____
ROOT
ATOM      1  C   UNL     1      46.674   2.493   7.166  0.00  0.00    +0.000 A 
ATOM      2  C   UNL     1      46.287   3.727   7.678  0.00  0.00    +0.000 A 
ATOM      3  C   UNL     1      45.544   3.777   8.860  0.00  0.00    +0.000 A 
ATOM      4  C   UNL     1      45.194   2.595   9.510  0.00  0.00    +0.000 A 
ATOM      5  N   UNL     1      44.552   2.560  10.728  0.00  0.00    +0.000 N 
ATOM      6  N   UNL     1      45.544   1.393   9.010  0.00  0.00    +0.000 NA
ATOM      7  C   UNL     1      46.261   1.361   7.852  0.00  0.00    +0.000 A 
ATOM      8  H   UNL     1      44.343   1.594  10.963  0.00  0.00    +0.000 HD
ENDROOT
BRANCH   1  10
ATOM      9  N   UNL     1      47.344   3.283   4.973  0.00  0.00    +0.000 N 
ATOM     10  C   UNL     1      47.514   2.352   5.962  0.00  0.00    +0.000 C 
ATOM     11  O   UNL     1      48.352   1.463   5.864  0.00  0.00    +0.000 OA
ATOM     12  H   UNL     1      47.997   3.244   4.201  0.00  0.00    +0.000 HD
ATOM     13  H   UNL     1      46.862   4.158   5.127  0.00  0.00    +0.000 HD
ENDBRANCH   1  10
BRANCH   5  14
ATOM     14  C   UNL     1      43.537   3.523  11.110  0.00  0.00    +0.000 C 
BRANCH  14  15
ATOM     15  C   UNL     1      44.031   4.937  11.336  0.00  0.00    +0.000 A 
ATOM     16  C   UNL     1      43.113   5.991  11.211  0.00  0.00    +0.000 A 
ATOM     17  C   UNL     1      43.512   7.311  11.410  0.00  0.00    +0.000 A 
ATOM     18  C   UNL     1      44.835   7.597  11.755  0.00  0.00    +0.000 A 
ATOM     19  C   UNL     1      45.781   6.573  11.930  0.00  0.00    +0.000 A 
ATOM     20  C   UNL     1      45.355   5.250  11.687  0.00  0.00    +0.000 A 
BRANCH  19  21
ATOM     21  C   UNL     1      47.145   6.843  12.443  0.00  0.00    +0.000 A 
ATOM     22  C   UNL     1      48.106   7.480  11.635  0.00  0.00    +0.000 A 
ATOM     23  C   UNL     1      49.356   7.852  12.139  0.00  0.00    +0.000 A 
ATOM     24  C   UNL     1      49.674   7.595  13.468  0.00  0.00    +0.000 A 
ATOM     25  C   UNL     1      48.755   6.945  14.284  0.00  0.00    +0.000 A 
ATOM     26  C   UNL     1      47.510   6.562  13.773  0.00  0.00    +0.000 A 
ENDBRANCH  19  21
ENDBRANCH  14  15
ENDBRANCH   5  14
TORSDOF 4
ENDMDL
MODEL 7
REMARK VINA RESULT:    -7.384      4.777      7.969
REMARK INTER + INTRA:         -10.022
REMARK INTER:                  -9.464
REMARK INTRA:                  -0.558
REMARK UNBOUND:                -0.911
REMARK  Name = 
REMARK  4 active torsions:
REMARK  status: ('A' for Active; 'I' for Inactive)
REMARK    1  A    between atoms: C_2  and  C_4
REMARK    2  A    between atoms: N_8  and  C_9
REMARK    3  A    between atoms: C_9  and  C_10
REMARK    4  A    between atoms: C_14  and  C_15
REMARK                            x       y       z     vdW  Elec       q    Type
REMARK                         _______ _______ _______ _____ _____    ______ ____
ROOT
ATOM      1  C   UNL     1      49.597   4.096  17.425  0.00  0.00    +0.000 A 
ATOM      2  C   UNL     1      49.189   5.369  17.043  0.00  0.00    +0.000 A 
ATOM      3  C   UNL     1      48.104   5.510  16.175  0.00  0.00    +0.000 A 
ATOM      4  C   UNL     1      47.446   4.379  15.696  0.00  0.00    +0.000 A 
ATOM      5  N   UNL     1      46.310   4.432  14.919  0.00  0.00    +0.000 N 
ATOM      6  N   UNL     1      47.849   3.139  16.042  0.00  0.00    +0.000 NA
ATOM      7  C   UNL     1      48.914   3.019  16.883  0.00  0.00    +0.000 A 
ATOM      8  H   UNL     1      46.058   3.488  14.638  0.00  0.00    +0.000 HD
ENDROOT
BRANCH   1  10
ATOM      9  N   UNL     1      50.519   4.353  19.654  0.00  0.00    +0.000 N 
ATOM     10  C   UNL     1      50.689   3.859  18.388  0.00  0.00    +0.000 C 
ATOM     11  O   UNL     1      51.687   3.217  18.082  0.00  0.00    +0.000 OA
ATOM     12  H   UNL     1      51.220   4.093  20.336  0.00  0.00    +0.000 HD
ATOM     13  H   UNL     1      49.620   4.649  20.006  0.00  0.00    +0.000 HD
ENDBRANCH   1  10
BRANCH   5  14
ATOM     14  C   UNL     1      46.092   5.456  13.916  0.00  0.00    +0.000 C 
BRANCH  14  15
ATOM     15  C   UNL     1      45.181   5.064  12.771  0.00  0.00    +0.000 A 
ATOM     16  C   UNL     1      43.826   5.422  12.845  0.00  0.00    +0.000 A 
ATOM     17  C   UNL     1      42.944   5.089  11.820  0.00  0.00    +0.000 A 
ATOM     18  C   UNL     1      43.407   4.406  10.693  0.00  0.00    +0.000 A 
ATOM     19  C   UNL     1      44.761   4.061  10.555  0.00  0.00    +0.000 A 
ATOM     20  C   UNL     1      45.623   4.380  11.626  0.00  0.00    +0.000 A 
BRANCH  19  21
ATOM     21  C   UNL     1      45.299   3.474   9.305  0.00  0.00    +0.000 A 
ATOM     22  C   UNL     1      45.771   4.299   8.266  0.00  0.00    +0.000 A 
ATOM     23  C   UNL     1      46.390   3.767   7.132  0.00  0.00    +0.000 A 
ATOM     24  C   UNL     1      46.556   2.391   7.011  0.00  0.00    +0.000 A 
ATOM     25  C   UNL     1      46.078   1.549   8.009  0.00  0.00    +0.000 A 
ATOM     26  C   UNL     1      45.445   2.085   9.136  0.00  0.00    +0.000 A 
ENDBRANCH  19  21
ENDBRANCH  14  15
ENDBRANCH   5  14
TORSDOF 4
ENDMDL
MODEL 8
REMARK VINA RESULT:    -7.249      3.476      6.833
REMARK INTER + INTRA:          -9.855
REMARK INTER:                  -9.046
REMARK INTRA:                  -0.809
REMARK UNBOUND:                -0.911
REMARK  Name = 
REMARK  4 active torsions:
REMARK  status: ('A' for Active; 'I' for Inactive)
REMARK    1  A    between atoms: C_2  and  C_4
REMARK    2  A    between atoms: N_8  and  C_9
REMARK    3  A    between atoms: C_9  and  C_10
REMARK    4  A    between atoms: C_14  and  C_15
REMARK                            x       y       z     vdW  Elec       q    Type
REMARK                         _______ _______ _______ _____ _____    ______ ____
ROOT
ATOM      1  C   UNL     1      48.456   8.575  12.075  0.00  0.00    +0.000 A 
ATOM      2  C   UNL     1      47.168   8.631  12.597  0.00  0.00    +0.000 A 
ATOM      3  C   UNL     1      46.632   7.503  13.224  0.00  0.00    +0.000 A 
ATOM      4  C   UNL     1      47.388   6.336  13.317  0.00  0.00    +0.000 A 
ATOM      5  N   UNL     1      46.975   5.217  14.006  0.00  0.00    +0.000 N 
ATOM      6  N   UNL     1      48.629   6.265  12.794  0.00  0.00    +0.000 NA
ATOM      7  C   UNL     1      49.133   7.370  12.178  0.00  0.00    +0.000 A 
ATOM      8  H   UNL     1      47.659   4.477  13.872  0.00  0.00    +0.000 HD
ENDROOT
BRANCH   1  10
ATOM      9  N   UNL     1      50.478   9.662  11.295  0.00  0.00    +0.000 N 
ATOM     10  C   UNL     1      49.121   9.737  11.456  0.00  0.00    +0.000 C 
ATOM     11  O   UNL     1      48.485  10.710  11.070  0.00  0.00    +0.000 OA
ATOM     12  H   UNL     1      50.912  10.413  10.772  0.00  0.00    +0.000 HD
ATOM     13  H   UNL     1      50.986   8.791  11.359  0.00  0.00    +0.000 HD
ENDBRANCH   1  10
BRANCH   5  14
ATOM     14  C   UNL     1      45.592   4.782  14.042  0.00  0.00    +0.000 C 
BRANCH  14  15
ATOM     15  C   UNL     1      44.883   4.747  12.704  0.00  0.00    +0.000 A 
ATOM     16  C   UNL     1      43.698   5.483  12.560  0.00  0.00    +0.000 A 
ATOM     17  C   UNL     1      43.005   5.488  11.351  0.00  0.00    +0.000 A 
ATOM     18  C   UNL     1      43.498   4.770  10.259  0.00  0.00    +0.000 A 
ATOM     19  C   UNL     1      44.701   4.049  10.344  0.00  0.00    +0.000 A 
ATOM     20  C   UNL     1      45.360   4.035  11.591  0.00  0.00    +0.000 A 
BRANCH  19  21
ATOM     21  C   UNL     1      45.317   3.408   9.158  0.00  0.00    +0.000 A 
ATOM     22  C   UNL     1      45.801   4.184   8.089  0.00  0.00    +0.000 A 
ATOM     23  C   UNL     1      46.492   3.608   7.019  0.00  0.00    +0.000 A 
ATOM     24  C   UNL     1      46.719   2.236   6.996  0.00  0.00    +0.000 A 
ATOM     25  C   UNL     1      46.231   1.439   8.026  0.00  0.00    +0.000 A 
ATOM     26  C   UNL     1      45.528   2.018   9.088  0.00  0.00    +0.000 A 
ENDBRANCH  19  21
ENDBRANCH  14  15
ENDBRANCH   5  14
TORSDOF 4
ENDMDL
MODEL 9
REMARK VINA RESULT:    -6.537      5.596      8.151
REMARK INTER + INTRA:          -8.976
REMARK INTER:                  -8.217
REMARK INTRA:                  -0.760
REMARK UNBOUND:                -0.911
REMARK  Name = 
REMARK  4 active torsions:
REMARK  status: ('A' for Active; 'I' for Inactive)
REMARK    1  A    between atoms: C_2  and  C_4
REMARK    2  A    between atoms: N_8  and  C_9
REMARK    3  A    between atoms: C_9  and  C_10
REMARK    4  A    between atoms: C_14  and  C_15
REMARK                            x       y       z     vdW  Elec       q    Type
REMARK                         _______ _______ _______ _____ _____    ______ ____
ROOT
ATOM      1  C   UNL     1      51.281   2.495  17.488  0.00  0.00    +0.000 A 
ATOM      2  C   UNL     1      51.627   3.840  17.560  0.00  0.00    +0.000 A 
ATOM      3  C   UNL     1      50.676   4.811  17.237  0.00  0.00    +0.000 A 
ATOM      4  C   UNL     1      49.396   4.425  16.842  0.00  0.00    +0.000 A 
ATOM      5  N   UNL     1      48.373   5.317  16.605  0.00  0.00    +0.000 N 
ATOM      6  N   UNL     1      49.058   3.123  16.747  0.00  0.00    +0.000 NA
ATOM      7  C   UNL     1      50.000   2.189  17.056  0.00  0.00    +0.000 A 
ATOM      8  H   UNL     1      47.563   4.806  16.264  0.00  0.00    +0.000 HD
ENDROOT
BRANCH   1  10
ATOM      9  N   UNL     1      51.641   0.194  18.164  0.00  0.00    +0.000 N 
ATOM     10  C   UNL     1      52.201   1.408  17.874  0.00  0.00    +0.000 C 
ATOM     11  O   UNL     1      53.415   1.573  17.898  0.00  0.00    +0.000 OA
ATOM     12  H   UNL     1      52.283  -0.572  18.321  0.00  0.00    +0.000 HD
ATOM     13  H   UNL     1      50.693  -0.044  17.906  0.00  0.00    +0.000 HD
ENDBRANCH   1  10
BRANCH   5  14
ATOM     14  C   UNL     1      48.588   6.615  15.995  0.00  0.00    +0.000 C 
BRANCH  14  15
ATOM     15  C   UNL     1      48.196   6.724  14.536  0.00  0.00    +0.000 A 
ATOM     16  C   UNL     1      48.915   7.609  13.718  0.00  0.00    +0.000 A 
ATOM     17  C   UNL     1      48.599   7.748  12.368  0.00  0.00    +0.000 A 
ATOM     18  C   UNL     1      47.567   6.990  11.810  0.00  0.00    +0.000 A 
ATOM     19  C   UNL     1      46.845   6.063  12.580  0.00  0.00    +0.000 A 
ATOM     20  C   UNL     1      47.165   5.970  13.950  0.00  0.00    +0.000 A 
BRANCH  19  21
ATOM     21  C   UNL     1      45.854   5.142  11.974  0.00  0.00    +0.000 A 
ATOM     22  C   UNL     1      45.323   4.067  12.711  0.00  0.00    +0.000 A 
ATOM     23  C   UNL     1      44.301   3.262  12.200  0.00  0.00    +0.000 A 
ATOM     24  C   UNL     1      43.781   3.517  10.936  0.00  0.00    +0.000 A 
ATOM     25  C   UNL     1      44.302   4.557  10.173  0.00  0.00    +0.000 A 
ATOM     26  C   UNL     1      45.335   5.351  10.682  0.00  0.00    +0.000 A 
ENDBRANCH  19  21
ENDBRANCH  14  15
ENDBRANCH   5  14
TORSDOF 4
ENDMDL
