MODEL 1
REMARK VINA RESULT:    -9.061      0.000      0.000
REMARK INTER + INTRA:         -13.354
REMARK INTER:                 -12.240
REMARK INTRA:                  -1.114
REMARK UNBOUND:                -1.114
REMARK  Name = 
REMARK  6 active torsions:
REMARK  status: ('A' for Active; 'I' for Inactive)
REMARK    1  A    between atoms: C_2  and  C_4
REMARK    2  A    between atoms: N_8  and  C_9
REMARK    3  A    between atoms: C_9  and  C_10
REMARK    4  A    between atoms: C_10  and  C_13
REMARK    5  A    between atoms: C_15  and  N_16
REMARK    6  A    between atoms: C_23  and  C_24
REMARK                            x       y       z     vdW  Elec       q    Type
REMARK                         _______ _______ _______ _____ _____    ______ ____
ROOT
ATOM      1  C   UNL     1      43.417   5.543  12.228  0.00  0.00    +0.000 C 
ATOM      2  F   UNL     1      42.903   6.739  11.798  0.00  0.00    +0.000 F 
ATOM      3  F   UNL     1      42.606   5.163  13.261  0.00  0.00    +0.000 F 
ENDROOT
BRANCH   1   4
ATOM      4  C   UNL     1      44.865   5.672  12.662  0.00  0.00    +0.000 A 
ATOM      5  C   UNL     1      45.660   6.710  12.145  0.00  0.00    +0.000 A 
ATOM      6  C   UNL     1      46.987   6.917  12.549  0.00  0.00    +0.000 A 
ATOM      7  C   UNL     1      47.504   6.038  13.508  0.00  0.00    +0.000 A 
ATOM      8  C   UNL     1      46.725   5.020  14.083  0.00  0.00    +0.000 A 
ATOM      9  C   UNL     1      45.414   4.820  13.626  0.00  0.00    +0.000 A 
BRANCH   6  10
ATOM     10  N   UNL     1      47.736   7.960  12.059  0.00  0.00    +0.000 N 
ATOM     11  C   UNL     1      49.075   7.777  11.483  0.00  0.00    +0.000 C 
ATOM     12  C   UNL     1      50.080   8.669  12.224  0.00  0.00    +0.000 C 
ATOM     13  O   UNL     1      49.666  10.047  12.212  0.00  0.00    +0.000 OA
ATOM     14  C   UNL     1      48.380  10.191  12.839  0.00  0.00    +0.000 C 
ATOM     15  C   UNL     1      47.296   9.361  12.124  0.00  0.00    +0.000 C 
ENDBRANCH   6  10
BRANCH   8  16
ATOM     16  C   UNL     1      47.254   4.213  15.243  0.00  0.00    +0.000 C 
ATOM     17  F   UNL     1      46.381   4.110  16.283  0.00  0.00    +0.000 F 
ATOM     18  F   UNL     1      47.542   2.932  14.876  0.00  0.00    +0.000 F 
ATOM     19  F   UNL     1      48.403   4.720  15.763  0.00  0.00    +0.000 F 
ENDBRANCH   8  16
ENDBRANCH   1   4
BRANCH   1  20
ATOM     20  C   UNL     1      43.275   4.517  11.069  0.00  0.00    +0.000 C 
BRANCH  20  25
ATOM     21  C   UNL     1      46.335   2.091   7.927  0.00  0.00    +0.000 A 
ATOM     22  C   UNL     1      46.356   3.410   7.489  0.00  0.00    +0.000 A 
ATOM     23  C   UNL     1      45.589   4.359   8.166  0.00  0.00    +0.000 A 
ATOM     24  C   UNL     1      44.822   3.984   9.267  0.00  0.00    +0.000 A 
ATOM     25  N   UNL     1      43.982   4.944   9.846  0.00  0.00    +0.000 N 
ATOM     26  N   UNL     1      44.794   2.701   9.693  0.00  0.00    +0.000 NA
ATOM     27  C   UNL     1      45.540   1.784   9.019  0.00  0.00    +0.000 A 
ATOM     28  H   UNL     1      44.440   5.845   9.947  0.00  0.00    +0.000 HD
BRANCH  21  30
ATOM     29  N   UNL     1      46.794  -0.273   7.625  0.00  0.00    +0.000 N 
ATOM     30  C   UNL     1      47.081   1.009   7.246  0.00  0.00    +0.000 C 
ATOM     31  O   UNL     1      47.896   1.247   6.369  0.00  0.00    +0.000 OA
ATOM     32  H   UNL     1      47.244  -1.012   7.099  0.00  0.00    +0.000 HD
ATOM     33  H   UNL     1      45.971  -0.517   8.162  0.00  0.00    +0.000 HD
ENDBRANCH  21  30
ENDBRANCH  20  25
ENDBRANCH   1  20
TORSDOF 6
ENDMDL
MODEL 2
REMARK VINA RESULT:    -8.921      2.531      3.773
REMARK INTER + INTRA:         -13.164
REMARK INTER:                 -12.153
REMARK INTRA:                  -1.011
REMARK UNBOUND:                -1.114
REMARK  Name = 
REMARK  6 active torsions:
REMARK  status: ('A' for Active; 'I' for Inactive)
REMARK    1  A    between atoms: C_2  and  C_4
REMARK    2  A    between atoms: N_8  and  C_9
REMARK    3  A    between atoms: C_9  and  C_10
REMARK    4  A    between atoms: C_10  and  C_13
REMARK    5  A    between atoms: C_15  and  N_16
REMARK    6  A    between atoms: C_23  and  C_24
REMARK                            x       y       z     vdW  Elec       q    Type
REMARK                         _______ _______ _______ _____ _____    ______ ____
ROOT
ATOM      1  C   UNL     1      42.912   5.173  12.154  0.00  0.00    +0.000 C 
ATOM      2  F   UNL     1      41.777   5.845  11.784  0.00  0.00    +0.000 F 
ATOM      3  F   UNL     1      42.551   4.460  13.265  0.00  0.00    +0.000 F 
ENDROOT
BRANCH   1   4
ATOM      4  C   UNL     1      44.065   6.118  12.438  0.00  0.00    +0.000 A 
ATOM      5  C   UNL     1      45.209   5.644  13.104  0.00  0.00    +0.000 A 
ATOM      6  C   UNL     1      46.329   6.452  13.346  0.00  0.00    +0.000 A 
ATOM      7  C   UNL     1      46.271   7.773  12.889  0.00  0.00    +0.000 A 
ATOM      8  C   UNL     1      45.165   8.268  12.178  0.00  0.00    +0.000 A 
ATOM      9  C   UNL     1      44.047   7.442  11.989  0.00  0.00    +0.000 A 
BRANCH   6  10
ATOM     10  N   UNL     1      47.454   5.959  13.965  0.00  0.00    +0.000 N 
ATOM     11  C   UNL     1      47.460   4.695  14.714  0.00  0.00    +0.000 C 
ATOM     12  C   UNL     1      47.958   4.947  16.144  0.00  0.00    +0.000 C 
ATOM     13  O   UNL     1      49.247   5.588  16.145  0.00  0.00    +0.000 OA
ATOM     14  C   UNL     1      49.182   6.849  15.456  0.00  0.00    +0.000 C 
ATOM     15  C   UNL     1      48.734   6.680  13.992  0.00  0.00    +0.000 C 
ENDBRANCH   6  10
BRANCH   8  16
ATOM     16  C   UNL     1      45.212   9.635  11.541  0.00  0.00    +0.000 C 
ATOM     17  F   UNL     1      44.573   9.704  10.340  0.00  0.00    +0.000 F 
ATOM     18  F   UNL     1      44.620  10.578  12.328  0.00  0.00    +0.000 F 
ATOM     19  F   UNL     1      46.480  10.076  11.320  0.00  0.00    +0.000 F 
ENDBRANCH   8  16
ENDBRANCH   1   4
BRANCH   1  20
ATOM     20  C   UNL     1      43.275   4.182  11.013  0.00  0.00    +0.000 C 
BRANCH  20  25
ATOM     21  C   UNL     1      46.560   2.403   7.672  0.00  0.00    +0.000 A 
ATOM     22  C   UNL     1      46.564   3.778   7.470  0.00  0.00    +0.000 A 
ATOM     23  C   UNL     1      45.736   4.579   8.257  0.00  0.00    +0.000 A 
ATOM     24  C   UNL     1      44.927   4.002   9.233  0.00  0.00    +0.000 A 
ATOM     25  N   UNL     1      44.030   4.830   9.922  0.00  0.00    +0.000 N 
ATOM     26  N   UNL     1      44.915   2.664   9.430  0.00  0.00    +0.000 NA
ATOM     27  C   UNL     1      45.721   1.895   8.649  0.00  0.00    +0.000 A 
ATOM     28  H   UNL     1      44.455   5.709  10.201  0.00  0.00    +0.000 HD
BRANCH  21  30
ATOM     29  N   UNL     1      48.471   1.992   6.232  0.00  0.00    +0.000 N 
ATOM     30  C   UNL     1      47.372   1.471   6.857  0.00  0.00    +0.000 C 
ATOM     31  O   UNL     1      47.089   0.287   6.768  0.00  0.00    +0.000 OA
ATOM     32  H   UNL     1      49.068   1.336   5.746  0.00  0.00    +0.000 HD
ATOM     33  H   UNL     1      48.865   2.893   6.472  0.00  0.00    +0.000 HD
ENDBRANCH  21  30
ENDBRANCH  20  25
ENDBRANCH   1  20
TORSDOF 6
ENDMDL
MODEL 3
REMARK VINA RESULT:    -8.610      2.844      4.186
REMARK INTER + INTRA:         -12.745
REMARK INTER:                 -11.602
REMARK INTRA:                  -1.143
REMARK UNBOUND:                -1.114
REMARK  Name = 
REMARK  6 active torsions:
REMARK  status: ('A' for Active; 'I' for Inactive)
REMARK    1  A    between atoms: C_2  and  C_4
REMARK    2  A    between atoms: N_8  and  C_9
REMARK    3  A    between atoms: C_9  and  C_10
REMARK    4  A    between atoms: C_10  and  C_13
REMARK    5  A    between atoms: C_15  and  N_16
REMARK    6  A    between atoms: C_23  and  C_24
REMARK                            x       y       z     vdW  Elec       q    Type
REMARK                         _______ _______ _______ _____ _____    ______ ____
ROOT
ATOM      1  C   UNL     1      43.857   4.645  12.733  0.00  0.00    +0.000 C 
ATOM      2  F   UNL     1      42.852   5.488  13.133  0.00  0.00    +0.000 F 
ATOM      3  F   UNL     1      43.587   3.458  13.356  0.00  0.00    +0.000 F 
ENDROOT
BRANCH   1   4
ATOM      4  C   UNL     1      45.227   5.181  13.102  0.00  0.00    +0.000 A 
ATOM      5  C   UNL     1      45.877   4.703  14.254  0.00  0.00    +0.000 A 
ATOM      6  C   UNL     1      47.167   5.115  14.618  0.00  0.00    +0.000 A 
ATOM      7  C   UNL     1      47.801   6.037  13.777  0.00  0.00    +0.000 A 
ATOM      8  C   UNL     1      47.203   6.499  12.592  0.00  0.00    +0.000 A 
ATOM      9  C   UNL     1      45.897   6.093  12.281  0.00  0.00    +0.000 A 
BRANCH   6  10
ATOM     10  N   UNL     1      47.800   4.608  15.728  0.00  0.00    +0.000 N 
ATOM     11  C   UNL     1      47.766   3.183  16.081  0.00  0.00    +0.000 C 
ATOM     12  C   UNL     1      47.222   3.019  17.507  0.00  0.00    +0.000 C 
ATOM     13  O   UNL     1      47.982   3.796  18.451  0.00  0.00    +0.000 OA
ATOM     14  C   UNL     1      47.938   5.191  18.103  0.00  0.00    +0.000 C 
ATOM     15  C   UNL     1      48.513   5.451  16.698  0.00  0.00    +0.000 C 
ENDBRANCH   6  10
BRANCH   8  16
ATOM     16  C   UNL     1      47.986   7.343  11.618  0.00  0.00    +0.000 C 
ATOM     17  F   UNL     1      47.635   8.659  11.626  0.00  0.00    +0.000 F 
ATOM     18  F   UNL     1      49.323   7.316  11.889  0.00  0.00    +0.000 F 
ATOM     19  F   UNL     1      47.858   6.926  10.330  0.00  0.00    +0.000 F 
ENDBRANCH   8  16
ENDBRANCH   1   4
BRANCH   1  20
ATOM     20  C   UNL     1      43.733   4.449  11.196  0.00  0.00    +0.000 C 
BRANCH  20  25
ATOM     21  C   UNL     1      46.443   2.826   7.305  0.00  0.00    +0.000 A 
ATOM     22  C   UNL     1      45.975   1.668   7.914  0.00  0.00    +0.000 A 
ATOM     23  C   UNL     1      45.175   1.778   9.052  0.00  0.00    +0.000 A 
ATOM     24  C   UNL     1      44.849   3.035   9.559  0.00  0.00    +0.000 A 
ATOM     25  N   UNL     1      44.138   3.097  10.764  0.00  0.00    +0.000 N 
ATOM     26  N   UNL     1      45.307   4.165   8.973  0.00  0.00    +0.000 NA
ATOM     27  C   UNL     1      46.093   4.041   7.869  0.00  0.00    +0.000 A 
ATOM     28  H   UNL     1      43.376   2.425  10.797  0.00  0.00    +0.000 HD
BRANCH  21  30
ATOM     29  N   UNL     1      48.647   2.500   6.340  0.00  0.00    +0.000 N 
ATOM     30  C   UNL     1      47.332   2.806   6.122  0.00  0.00    +0.000 C 
ATOM     31  O   UNL     1      46.907   3.026   4.999  0.00  0.00    +0.000 OA
ATOM     32  H   UNL     1      49.232   2.405   5.520  0.00  0.00    +0.000 HD
ATOM     33  H   UNL     1      48.979   2.084   7.201  0.00  0.00    +0.000 HD
ENDBRANCH  21  30
ENDBRANCH  20  25
ENDBRANCH   1  20
TORSDOF 6
ENDMDL
MODEL 4
REMARK VINA RESULT:    -8.188      2.777      3.522
REMARK INTER + INTRA:         -12.174
REMARK INTER:                 -11.275
REMARK INTRA:                  -0.899
REMARK UNBOUND:                -1.114
REMARK  Name = 
REMARK  6 active torsions:
REMARK  status: ('A' for Active; 'I' for Inactive)
REMARK    1  A    between atoms: C_2  and  C_4
REMARK    2  A    between atoms: N_8  and  C_9
REMARK    3  A    between atoms: C_9  and  C_10
REMARK    4  A    between atoms: C_10  and  C_13
REMARK    5  A    between atoms: C_15  and  N_16
REMARK    6  A    between atoms: C_23  and  C_24
REMARK                            x       y       z     vdW  Elec       q    Type
REMARK                         _______ _______ _______ _____ _____    ______ ____
ROOT
ATOM      1  C   UNL     1      43.877   5.009  12.312  0.00  0.00    +0.000 C 
ATOM      2  F   UNL     1      42.889   5.073  13.261  0.00  0.00    +0.000 F 
ATOM      3  F   UNL     1      44.660   3.955  12.691  0.00  0.00    +0.000 F 
ENDROOT
BRANCH   1   4
ATOM      4  C   UNL     1      44.668   6.302  12.229  0.00  0.00    +0.000 A 
ATOM      5  C   UNL     1      44.067   7.455  11.693  0.00  0.00    +0.000 A 
ATOM      6  C   UNL     1      44.724   8.692  11.641  0.00  0.00    +0.000 A 
ATOM      7  C   UNL     1      46.026   8.743  12.153  0.00  0.00    +0.000 A 
ATOM      8  C   UNL     1      46.641   7.624  12.739  0.00  0.00    +0.000 A 
ATOM      9  C   UNL     1      45.966   6.394  12.739  0.00  0.00    +0.000 A 
BRANCH   6  10
ATOM     10  N   UNL     1      44.107   9.817  11.148  0.00  0.00    +0.000 N 
ATOM     11  C   UNL     1      42.698  10.134  11.419  0.00  0.00    +0.000 C 
ATOM     12  C   UNL     1      41.947  10.315  10.093  0.00  0.00    +0.000 C 
ATOM     13  O   UNL     1      42.579  11.308   9.264  0.00  0.00    +0.000 OA
ATOM     14  C   UNL     1      43.936  10.929   8.972  0.00  0.00    +0.000 C 
ATOM     15  C   UNL     1      44.776  10.772  10.253  0.00  0.00    +0.000 C 
ENDBRANCH   6  10
BRANCH   8  16
ATOM     16  C   UNL     1      47.967   7.760  13.446  0.00  0.00    +0.000 C 
ATOM     17  F   UNL     1      47.937   8.609  14.511  0.00  0.00    +0.000 F 
ATOM     18  F   UNL     1      48.399   6.565  13.941  0.00  0.00    +0.000 F 
ATOM     19  F   UNL     1      48.960   8.208  12.633  0.00  0.00    +0.000 F 
ENDBRANCH   8  16
ENDBRANCH   1   4
BRANCH   1  20
ATOM     20  C   UNL     1      43.209   4.679  10.948  0.00  0.00    +0.000 C 
BRANCH  20  25
ATOM     21  C   UNL     1      46.332   2.156   7.948  0.00  0.00    +0.000 A 
ATOM     22  C   UNL     1      46.475   3.484   7.565  0.00  0.00    +0.000 A 
ATOM     23  C   UNL     1      45.723   4.461   8.220  0.00  0.00    +0.000 A 
ATOM     24  C   UNL     1      44.851   4.102   9.245  0.00  0.00    +0.000 A 
ATOM     25  N   UNL     1      44.035   5.097   9.798  0.00  0.00    +0.000 N 
ATOM     26  N   UNL     1      44.704   2.810   9.617  0.00  0.00    +0.000 NA
ATOM     27  C   UNL     1      45.437   1.868   8.965  0.00  0.00    +0.000 A 
ATOM     28  H   UNL     1      44.543   5.961   9.968  0.00  0.00    +0.000 HD
BRANCH  21  30
ATOM     29  N   UNL     1      46.738  -0.222   7.677  0.00  0.00    +0.000 N 
ATOM     30  C   UNL     1      47.054   1.048   7.282  0.00  0.00    +0.000 C 
ATOM     31  O   UNL     1      47.876   1.257   6.403  0.00  0.00    +0.000 OA
ATOM     32  H   UNL     1      47.171  -0.977   7.162  0.00  0.00    +0.000 HD
ATOM     33  H   UNL     1      45.909  -0.440   8.216  0.00  0.00    +0.000 HD
ENDBRANCH  21  30
ENDBRANCH  20  25
ENDBRANCH   1  20
TORSDOF 6
ENDMDL
MODEL 5
REMARK VINA RESULT:    -7.810      2.150      4.055
REMARK INTER + INTRA:         -11.663
REMARK INTER:                 -10.633
REMARK INTRA:                  -1.031
REMARK UNBOUND:                -1.114
REMARK  Name = 
REMARK  6 active torsions:
REMARK  status: ('A' for Active; 'I' for Inactive)
REMARK    1  A    between atoms: C_2  and  C_4
REMARK    2  A    between atoms: N_8  and  C_9
REMARK    3  A    between atoms: C_9  and  C_10
REMARK    4  A    between atoms: C_10  and  C_13
REMARK    5  A    between atoms: C_15  and  N_16
REMARK    6  A    between atoms: C_23  and  C_24
REMARK                            x       y       z     vdW  Elec       q    Type
REMARK                         _______ _______ _______ _____ _____    ______ ____
ROOT
ATOM      1  C   UNL     1      43.551   5.438  11.990  0.00  0.00    +0.000 C 
ATOM      2  F   UNL     1      42.285   5.529  12.506  0.00  0.00    +0.000 F 
ATOM      3  F   UNL     1      44.179   4.500  12.763  0.00  0.00    +0.000 F 
ENDROOT
BRANCH   1   4
ATOM      4  C   UNL     1      44.273   6.772  12.019  0.00  0.00    +0.000 A 
ATOM      5  C   UNL     1      45.565   6.856  12.569  0.00  0.00    +0.000 A 
ATOM      6  C   UNL     1      46.306   8.046  12.576  0.00  0.00    +0.000 A 
ATOM      7  C   UNL     1      45.705   9.172  12.001  0.00  0.00    +0.000 A 
ATOM      8  C   UNL     1      44.438   9.115  11.399  0.00  0.00    +0.000 A 
ATOM      9  C   UNL     1      43.710   7.917  11.446  0.00  0.00    +0.000 A 
BRANCH   6  10
ATOM     10  N   UNL     1      47.582   8.098  13.085  0.00  0.00    +0.000 N 
ATOM     11  C   UNL     1      48.244   9.360  13.443  0.00  0.00    +0.000 C 
ATOM     12  C   UNL     1      49.575   9.475  12.689  0.00  0.00    +0.000 C 
ATOM     13  O   UNL     1      50.415   8.332  12.930  0.00  0.00    +0.000 OA
ATOM     14  C   UNL     1      49.755   7.125  12.508  0.00  0.00    +0.000 C 
ATOM     15  C   UNL     1      48.425   6.907  13.255  0.00  0.00    +0.000 C 
ENDBRANCH   6  10
BRANCH   8  16
ATOM     16  C   UNL     1      43.902  10.296  10.627  0.00  0.00    +0.000 C 
ATOM     17  F   UNL     1      43.638  10.023   9.319  0.00  0.00    +0.000 F 
ATOM     18  F   UNL     1      42.728  10.750  11.152  0.00  0.00    +0.000 F 
ATOM     19  F   UNL     1      44.748  11.360  10.628  0.00  0.00    +0.000 F 
ENDBRANCH   8  16
ENDBRANCH   1   4
BRANCH   1  20
ATOM     20  C   UNL     1      43.438   4.901  10.536  0.00  0.00    +0.000 C 
BRANCH  20  25
ATOM     21  C   UNL     1      46.598   2.593   7.404  0.00  0.00    +0.000 A 
ATOM     22  C   UNL     1      46.028   1.566   8.148  0.00  0.00    +0.000 A 
ATOM     23  C   UNL     1      45.089   1.883   9.130  0.00  0.00    +0.000 A 
ATOM     24  C   UNL     1      44.727   3.211   9.349  0.00  0.00    +0.000 A 
ATOM     25  N   UNL     1      43.866   3.494  10.418  0.00  0.00    +0.000 N 
ATOM     26  N   UNL     1      45.282   4.214   8.632  0.00  0.00    +0.000 NA
ATOM     27  C   UNL     1      46.203   3.891   7.684  0.00  0.00    +0.000 A 
ATOM     28  H   UNL     1      43.092   2.838  10.472  0.00  0.00    +0.000 HD
BRANCH  21  30
ATOM     29  N   UNL     1      47.439   2.946   5.155  0.00  0.00    +0.000 N 
ATOM     30  C   UNL     1      47.633   2.356   6.373  0.00  0.00    +0.000 C 
ATOM     31  O   UNL     1      48.628   1.688   6.607  0.00  0.00    +0.000 OA
ATOM     32  H   UNL     1      48.188   2.852   4.482  0.00  0.00    +0.000 HD
ATOM     33  H   UNL     1      46.766   3.687   5.003  0.00  0.00    +0.000 HD
ENDBRANCH  21  30
ENDBRANCH  20  25
ENDBRANCH   1  20
TORSDOF 6
ENDMDL
MODEL 6
REMARK VINA RESULT:    -7.200      3.903      7.759
REMARK INTER + INTRA:         -10.840
REMARK INTER:                  -9.598
REMARK INTRA:                  -1.242
REMARK UNBOUND:                -1.114
REMARK  Name = 
REMARK  6 active torsions:
REMARK  status: ('A' for Active; 'I' for Inactive)
REMARK    1  A    between atoms: C_2  and  C_4
REMARK    2  A    between atoms: N_8  and  C_9
REMARK    3  A    between atoms: C_9  and  C_10
REMARK    4  A    between atoms: C_10  and  C_13
REMARK    5  A    between atoms: C_15  and  N_16
REMARK    6  A    between atoms: C_23  and  C_24
REMARK                            x       y       z     vdW  Elec       q    Type
REMARK                         _______ _______ _______ _____ _____    ______ ____
ROOT
ATOM      1  C   UNL     1      48.204   8.995  13.109  0.00  0.00    +0.000 C 
ATOM      2  F   UNL     1      47.962   9.579  14.325  0.00  0.00    +0.000 F 
ATOM      3  F   UNL     1      48.832   9.963  12.374  0.00  0.00    +0.000 F 
ENDROOT
BRANCH   1   4
ATOM      4  C   UNL     1      46.926   8.519  12.444  0.00  0.00    +0.000 A 
ATOM      5  C   UNL     1      46.629   7.145  12.406  0.00  0.00    +0.000 A 
ATOM      6  C   UNL     1      45.440   6.645  11.857  0.00  0.00    +0.000 A 
ATOM      7  C   UNL     1      44.536   7.581  11.339  0.00  0.00    +0.000 A 
ATOM      8  C   UNL     1      44.776   8.964  11.404  0.00  0.00    +0.000 A 
ATOM      9  C   UNL     1      45.994   9.424  11.925  0.00  0.00    +0.000 A 
BRANCH   6  10
ATOM     10  N   UNL     1      45.151   5.301  11.863  0.00  0.00    +0.000 N 
ATOM     11  C   UNL     1      45.039   4.506  10.632  0.00  0.00    +0.000 C 
ATOM     12  C   UNL     1      43.668   3.818  10.587  0.00  0.00    +0.000 C 
ATOM     13  O   UNL     1      43.439   3.029  11.768  0.00  0.00    +0.000 OA
ATOM     14  C   UNL     1      43.495   3.856  12.944  0.00  0.00    +0.000 C 
ATOM     15  C   UNL     1      44.862   4.550  13.092  0.00  0.00    +0.000 C 
ENDBRANCH   6  10
BRANCH   8  16
ATOM     16  C   UNL     1      43.703   9.947  11.008  0.00  0.00    +0.000 C 
ATOM     17  F   UNL     1      43.382  10.835  11.990  0.00  0.00    +0.000 F 
ATOM     18  F   UNL     1      44.083  10.704   9.938  0.00  0.00    +0.000 F 
ATOM     19  F   UNL     1      42.539   9.347  10.645  0.00  0.00    +0.000 F 
ENDBRANCH   8  16
ENDBRANCH   1   4
BRANCH   1  20
ATOM     20  C   UNL     1      49.187   7.813  13.333  0.00  0.00    +0.000 C 
BRANCH  20  25
ATOM     21  C   UNL     1      48.090   4.658  17.070  0.00  0.00    +0.000 A 
ATOM     22  C   UNL     1      48.904   5.622  17.652  0.00  0.00    +0.000 A 
ATOM     23  C   UNL     1      49.392   6.663  16.860  0.00  0.00    +0.000 A 
ATOM     24  C   UNL     1      49.057   6.731  15.510  0.00  0.00    +0.000 A 
ATOM     25  N   UNL     1      49.659   7.726  14.729  0.00  0.00    +0.000 N 
ATOM     26  N   UNL     1      48.270   5.792  14.937  0.00  0.00    +0.000 NA
ATOM     27  C   UNL     1      47.808   4.779  15.719  0.00  0.00    +0.000 A 
ATOM     28  H   UNL     1      49.674   8.627  15.199  0.00  0.00    +0.000 HD
BRANCH  21  30
ATOM     29  N   UNL     1      48.240   3.128  18.948  0.00  0.00    +0.000 N 
ATOM     30  C   UNL     1      47.562   3.496  17.820  0.00  0.00    +0.000 C 
ATOM     31  O   UNL     1      46.551   2.911  17.463  0.00  0.00    +0.000 OA
ATOM     32  H   UNL     1      47.829   2.388  19.502  0.00  0.00    +0.000 HD
ATOM     33  H   UNL     1      48.923   3.724  19.398  0.00  0.00    +0.000 HD
ENDBRANCH  21  30
ENDBRANCH  20  25
ENDBRANCH   1  20
TORSDOF 6
ENDMDL
MODEL 7
REMARK VINA RESULT:    -7.001      3.554      6.808
REMARK INTER + INTRA:         -10.571
REMARK INTER:                  -9.357
REMARK INTRA:                  -1.213
REMARK UNBOUND:                -1.114
REMARK  Name = 
REMARK  6 active torsions:
REMARK  status: ('A' for Active; 'I' for Inactive)
REMARK    1  A    between atoms: C_2  and  C_4
REMARK    2  A    between atoms: N_8  and  C_9
REMARK    3  A    between atoms: C_9  and  C_10
REMARK    4  A    between atoms: C_10  and  C_13
REMARK    5  A    between atoms: C_15  and  N_16
REMARK    6  A    between atoms: C_23  and  C_24
REMARK                            x       y       z     vdW  Elec       q    Type
REMARK                         _______ _______ _______ _____ _____    ______ ____
ROOT
ATOM      1  C   UNL     1      48.797   7.970  13.173  0.00  0.00    +0.000 C 
ATOM      2  F   UNL     1      48.898   8.112  11.813  0.00  0.00    +0.000 F 
ATOM      3  F   UNL     1      50.086   7.823  13.607  0.00  0.00    +0.000 F 
ENDROOT
BRANCH   1   4
ATOM      4  C   UNL     1      47.932   6.784  13.558  0.00  0.00    +0.000 A 
ATOM      5  C   UNL     1      46.943   6.324  12.669  0.00  0.00    +0.000 A 
ATOM      6  C   UNL     1      46.150   5.200  12.941  0.00  0.00    +0.000 A 
ATOM      7  C   UNL     1      46.382   4.536  14.151  0.00  0.00    +0.000 A 
ATOM      8  C   UNL     1      47.392   4.937  15.040  0.00  0.00    +0.000 A 
ATOM      9  C   UNL     1      48.140   6.088  14.753  0.00  0.00    +0.000 A 
BRANCH   6  10
ATOM     10  N   UNL     1      45.215   4.743  12.043  0.00  0.00    +0.000 N 
ATOM     11  C   UNL     1      44.283   5.636  11.341  0.00  0.00    +0.000 C 
ATOM     12  C   UNL     1      42.840   5.182  11.603  0.00  0.00    +0.000 C 
ATOM     13  O   UNL     1      42.651   3.803  11.240  0.00  0.00    +0.000 OA
ATOM     14  C   UNL     1      43.538   2.958  11.993  0.00  0.00    +0.000 C 
ATOM     15  C   UNL     1      45.017   3.317  11.749  0.00  0.00    +0.000 C 
ENDBRANCH   6  10
BRANCH   8  16
ATOM     16  C   UNL     1      47.737   4.091  16.241  0.00  0.00    +0.000 C 
ATOM     17  F   UNL     1      48.031   2.797  15.935  0.00  0.00    +0.000 F 
ATOM     18  F   UNL     1      48.831   4.572  16.899  0.00  0.00    +0.000 F 
ATOM     19  F   UNL     1      46.738   4.044  17.163  0.00  0.00    +0.000 F 
ENDBRANCH   8  16
ENDBRANCH   1   4
BRANCH   1  20
ATOM     20  C   UNL     1      48.216   9.291  13.750  0.00  0.00    +0.000 C 
BRANCH  20  25
ATOM     21  C   UNL     1      44.138  10.380  11.048  0.00  0.00    +0.000 A 
ATOM     22  C   UNL     1      45.138  11.182  10.513  0.00  0.00    +0.000 A 
ATOM     23  C   UNL     1      46.422  11.117  11.057  0.00  0.00    +0.000 A 
ATOM     24  C   UNL     1      46.689  10.252  12.116  0.00  0.00    +0.000 A 
ATOM     25  N   UNL     1      47.960  10.300  12.704  0.00  0.00    +0.000 N 
ATOM     26  N   UNL     1      45.718   9.473  12.645  0.00  0.00    +0.000 NA
ATOM     27  C   UNL     1      44.469   9.554  12.109  0.00  0.00    +0.000 A 
ATOM     28  H   UNL     1      48.702  10.352  12.012  0.00  0.00    +0.000 HD
BRANCH  21  30
ATOM     29  N   UNL     1      41.927   9.383  10.951  0.00  0.00    +0.000 N 
ATOM     30  C   UNL     1      42.739  10.413  10.565  0.00  0.00    +0.000 C 
ATOM     31  O   UNL     1      42.322  11.331   9.876  0.00  0.00    +0.000 OA
ATOM     32  H   UNL     1      40.952   9.453  10.688  0.00  0.00    +0.000 HD
ATOM     33  H   UNL     1      42.164   8.747  11.701  0.00  0.00    +0.000 HD
ENDBRANCH  21  30
ENDBRANCH  20  25
ENDBRANCH   1  20
TORSDOF 6
ENDMDL
MODEL 8
REMARK VINA RESULT:    -6.910      4.948      6.718
REMARK INTER + INTRA:         -10.448
REMARK INTER:                  -9.567
REMARK INTRA:                  -0.881
REMARK UNBOUND:                -1.114
REMARK  Name = 
REMARK  6 active torsions:
REMARK  status: ('A' for Active; 'I' for Inactive)
REMARK    1  A    between atoms: C_2  and  C_4
REMARK    2  A    between atoms: N_8  and  C_9
REMARK    3  A    between atoms: C_9  and  C_10
REMARK    4  A    between atoms: C_10  and  C_13
REMARK    5  A    between atoms: C_15  and  N_16
REMARK    6  A    between atoms: C_23  and  C_24
REMARK                            x       y       z     vdW  Elec       q    Type
REMARK                         _______ _______ _______ _____ _____    ______ ____
ROOT
ATOM      1  C   UNL     1      47.773   3.552  17.167  0.00  0.00    +0.000 C 
ATOM      2  F   UNL     1      47.186   4.675  17.690  0.00  0.00    +0.000 F 
ATOM      3  F   UNL     1      47.170   2.508  17.812  0.00  0.00    +0.000 F 
ENDROOT
BRANCH   1   4
ATOM      4  C   UNL     1      49.277   3.551  17.371  0.00  0.00    +0.000 A 
ATOM      5  C   UNL     1      49.940   4.749  17.689  0.00  0.00    +0.000 A 
ATOM      6  C   UNL     1      51.318   4.804  17.944  0.00  0.00    +0.000 A 
ATOM      7  C   UNL     1      52.026   3.599  17.873  0.00  0.00    +0.000 A 
ATOM      8  C   UNL     1      51.390   2.375  17.607  0.00  0.00    +0.000 A 
ATOM      9  C   UNL     1      50.017   2.365  17.319  0.00  0.00    +0.000 A 
BRANCH   6  10
ATOM     10  N   UNL     1      51.941   5.979  18.290  0.00  0.00    +0.000 N 
ATOM     11  C   UNL     1      53.403   6.118  18.346  0.00  0.00    +0.000 C 
ATOM     12  C   UNL     1      53.820   6.611  19.738  0.00  0.00    +0.000 C 
ATOM     13  O   UNL     1      53.143   7.832  20.087  0.00  0.00    +0.000 OA
ATOM     14  C   UNL     1      51.718   7.636  20.080  0.00  0.00    +0.000 C 
ATOM     15  C   UNL     1      51.207   7.185  18.699  0.00  0.00    +0.000 C 
ENDBRANCH   6  10
BRANCH   8  16
ATOM     16  C   UNL     1      52.148   1.076  17.722  0.00  0.00    +0.000 C 
ATOM     17  F   UNL     1      52.616   0.605  16.533  0.00  0.00    +0.000 F 
ATOM     18  F   UNL     1      53.244   1.202  18.525  0.00  0.00    +0.000 F 
ATOM     19  F   UNL     1      51.405   0.072  18.260  0.00  0.00    +0.000 F 
ENDBRANCH   8  16
ENDBRANCH   1   4
BRANCH   1  20
ATOM     20  C   UNL     1      47.418   3.487  15.656  0.00  0.00    +0.000 C 
BRANCH  20  25
ATOM     21  C   UNL     1      45.001   4.930  11.509  0.00  0.00    +0.000 A 
ATOM     22  C   UNL     1      45.537   6.102  12.029  0.00  0.00    +0.000 A 
ATOM     23  C   UNL     1      46.281   6.041  13.208  0.00  0.00    +0.000 A 
ATOM     24  C   UNL     1      46.485   4.818  13.844  0.00  0.00    +0.000 A 
ATOM     25  N   UNL     1      47.141   4.818  15.082  0.00  0.00    +0.000 N 
ATOM     26  N   UNL     1      45.960   3.675  13.345  0.00  0.00    +0.000 NA
ATOM     27  C   UNL     1      45.230   3.752  12.200  0.00  0.00    +0.000 A 
ATOM     28  H   UNL     1      47.952   5.429  15.087  0.00  0.00    +0.000 HD
BRANCH  21  30
ATOM     29  N   UNL     1      44.803   4.661   9.105  0.00  0.00    +0.000 N 
ATOM     30  C   UNL     1      44.163   4.904  10.289  0.00  0.00    +0.000 C 
ATOM     31  O   UNL     1      42.954   5.066  10.339  0.00  0.00    +0.000 OA
ATOM     32  H   UNL     1      44.216   4.560   8.287  0.00  0.00    +0.000 HD
ATOM     33  H   UNL     1      45.743   4.290   9.054  0.00  0.00    +0.000 HD
ENDBRANCH  21  30
ENDBRANCH  20  25
ENDBRANCH   1  20
TORSDOF 6
ENDMDL
MODEL 9
REMARK VINA RESULT:    -6.861      4.039      8.178
REMARK INTER + INTRA:         -10.381
REMARK INTER:                  -9.361
REMARK INTRA:                  -1.020
REMARK UNBOUND:                -1.114
REMARK  Name = 
REMARK  6 active torsions:
REMARK  status: ('A' for Active; 'I' for Inactive)
REMARK    1  A    between atoms: C_2  and  C_4
REMARK    2  A    between atoms: N_8  and  C_9
REMARK    3  A    between atoms: C_9  and  C_10
REMARK    4  A    between atoms: C_10  and  C_13
REMARK    5  A    between atoms: C_15  and  N_16
REMARK    6  A    between atoms: C_23  and  C_24
REMARK                            x       y       z     vdW  Elec       q    Type
REMARK                         _______ _______ _______ _____ _____    ______ ____
ROOT
ATOM      1  C   UNL     1      48.358   7.119  12.953  0.00  0.00    +0.000 C 
ATOM      2  F   UNL     1      49.345   7.808  12.298  0.00  0.00    +0.000 F 
ATOM      3  F   UNL     1      48.717   5.804  12.844  0.00  0.00    +0.000 F 
ENDROOT
BRANCH   1   4
ATOM      4  C   UNL     1      46.988   7.384  12.356  0.00  0.00    +0.000 A 
ATOM      5  C   UNL     1      46.115   6.311  12.106  0.00  0.00    +0.000 A 
ATOM      6  C   UNL     1      44.817   6.494  11.609  0.00  0.00    +0.000 A 
ATOM      7  C   UNL     1      44.409   7.811  11.368  0.00  0.00    +0.000 A 
ATOM      8  C   UNL     1      45.236   8.912  11.651  0.00  0.00    +0.000 A 
ATOM      9  C   UNL     1      46.541   8.687  12.111  0.00  0.00    +0.000 A 
BRANCH   6  10
ATOM     10  N   UNL     1      43.966   5.434  11.407  0.00  0.00    +0.000 N 
ATOM     11  C   UNL     1      43.135   4.866  12.477  0.00  0.00    +0.000 C 
ATOM     12  C   UNL     1      43.422   3.364  12.608  0.00  0.00    +0.000 C 
ATOM     13  O   UNL     1      43.236   2.683  11.355  0.00  0.00    +0.000 OA
ATOM     14  C   UNL     1      44.111   3.229  10.352  0.00  0.00    +0.000 C 
ATOM     15  C   UNL     1      43.855   4.730  10.122  0.00  0.00    +0.000 C 
ENDBRANCH   6  10
BRANCH   8  16
ATOM     16  C   UNL     1      44.699  10.318  11.555  0.00  0.00    +0.000 C 
ATOM     17  F   UNL     1      45.501  11.253  12.136  0.00  0.00    +0.000 F 
ATOM     18  F   UNL     1      44.551  10.713  10.258  0.00  0.00    +0.000 F 
ATOM     19  F   UNL     1      43.475  10.461  12.130  0.00  0.00    +0.000 F 
ENDBRANCH   8  16
ENDBRANCH   1   4
BRANCH   1  20
ATOM     20  C   UNL     1      48.399   7.532  14.451  0.00  0.00    +0.000 C 
BRANCH  20  25
ATOM     21  C   UNL     1      50.664   4.526  17.761  0.00  0.00    +0.000 A 
ATOM     22  C   UNL     1      49.350   4.074  17.718  0.00  0.00    +0.000 A 
ATOM     23  C   UNL     1      48.441   4.717  16.876  0.00  0.00    +0.000 A 
ATOM     24  C   UNL     1      48.855   5.789  16.088  0.00  0.00    +0.000 A 
ATOM     25  N   UNL     1      47.886   6.474  15.344  0.00  0.00    +0.000 N 
ATOM     26  N   UNL     1      50.131   6.236  16.130  0.00  0.00    +0.000 NA
ATOM     27  C   UNL     1      51.004   5.605  16.962  0.00  0.00    +0.000 A 
ATOM     28  H   UNL     1      47.239   5.843  14.880  0.00  0.00    +0.000 HD
BRANCH  21  30
ATOM     29  N   UNL     1      51.669   4.334  19.962  0.00  0.00    +0.000 N 
ATOM     30  C   UNL     1      51.686   3.935  18.654  0.00  0.00    +0.000 C 
ATOM     31  O   UNL     1      52.489   3.109  18.250  0.00  0.00    +0.000 OA
ATOM     32  H   UNL     1      52.314   3.866  20.586  0.00  0.00    +0.000 HD
ATOM     33  H   UNL     1      50.886   4.820  20.379  0.00  0.00    +0.000 HD
ENDBRANCH  21  30
ENDBRANCH  20  25
ENDBRANCH   1  20
TORSDOF 6
ENDMDL
