MODEL 1
REMARK VINA RESULT:    -9.407      0.000      0.000
REMARK INTER + INTRA:         -12.530
REMARK INTER:                 -11.606
REMARK INTRA:                  -0.924
REMARK UNBOUND:                -0.924
REMARK  Name = 
REMARK  4 active torsions:
REMARK  status: ('A' for Active; 'I' for Inactive)
REMARK    1  A    between atoms: C_2  and  C_4
REMARK    2  A    between atoms: N_8  and  C_9
REMARK    3  A    between atoms: C_9  and  C_10
REMARK    4  A    between atoms: C_14  and  C_15
REMARK                            x       y       z     vdW  Elec       q    Type
REMARK                         _______ _______ _______ _____ _____    ______ ____
ROOT
ATOM      1  C   UNL     1      43.549   4.707  11.140  0.00  0.00    +0.000 C 
ENDROOT
BRANCH   1   6
ATOM      2  C   UNL     1      46.401   2.330   7.693  0.00  0.00    +0.000 A 
ATOM      3  C   UNL     1      45.582   1.793   8.681  0.00  0.00    +0.000 A 
ATOM      4  C   UNL     1      44.727   2.640   9.392  0.00  0.00    +0.000 A 
ATOM      5  C   UNL     1      44.719   4.007   9.126  0.00  0.00    +0.000 A 
ATOM      6  N   UNL     1      43.842   4.893   9.734  0.00  0.00    +0.000 N 
ATOM      7  N   UNL     1      45.531   4.541   8.192  0.00  0.00    +0.000 NA
ATOM      8  C   UNL     1      46.353   3.703   7.502  0.00  0.00    +0.000 A 
ATOM      9  H   UNL     1      44.130   5.835   9.475  0.00  0.00    +0.000 HD
BRANCH   2  11
ATOM     10  N   UNL     1      48.411   2.136   6.342  0.00  0.00    +0.000 N 
ATOM     11  C   UNL     1      47.311   1.516   6.864  0.00  0.00    +0.000 C 
ATOM     12  O   UNL     1      47.110   0.323   6.683  0.00  0.00    +0.000 OA
ATOM     13  H   UNL     1      49.079   1.536   5.871  0.00  0.00    +0.000 HD
ATOM     14  H   UNL     1      48.742   3.031   6.673  0.00  0.00    +0.000 HD
ENDBRANCH   2  11
ENDBRANCH   1   6
BRANCH   1  15
ATOM     15  C   UNL     1      44.776   4.953  11.986  0.00  0.00    +0.000 A 
ATOM     16  C   UNL     1      45.248   3.975  12.868  0.00  0.00    +0.000 A 
ATOM     17  C   UNL     1      46.421   4.188  13.589  0.00  0.00    +0.000 A 
ATOM     18  C   UNL     1      47.139   5.377  13.428  0.00  0.00    +0.000 A 
ATOM     19  C   UNL     1      46.708   6.377  12.538  0.00  0.00    +0.000 A 
ATOM     20  C   UNL     1      45.498   6.151  11.852  0.00  0.00    +0.000 A 
BRANCH  19  21
ATOM     21  C   UNL     1      47.534   7.576  12.250  0.00  0.00    +0.000 A 
ATOM     22  C   UNL     1      48.888   7.449  11.885  0.00  0.00    +0.000 A 
ATOM     23  C   UNL     1      49.652   8.558  11.503  0.00  0.00    +0.000 A 
ATOM     24  C   UNL     1      49.070   9.819  11.474  0.00  0.00    +0.000 A 
ATOM     25 CL   UNL     1      49.990  11.174  10.952  0.00  0.00    +0.000 Cl
ATOM     26  C   UNL     1      47.742   9.984  11.851  0.00  0.00    +0.000 A 
ATOM     27  C   UNL     1      46.986   8.873  12.247  0.00  0.00    +0.000 A 
ENDBRANCH  19  21
ENDBRANCH   1  15
TORSDOF 4
ENDMDL
MODEL 2
REMARK VINA RESULT:    -8.872      2.651      3.903
REMARK INTER + INTRA:         -11.871
REMARK INTER:                 -10.971
REMARK INTRA:                  -0.899
REMARK UNBOUND:                -0.924
REMARK  Name = 
REMARK  4 active torsions:
REMARK  status: ('A' for Active; 'I' for Inactive)
REMARK    1  A    between atoms: C_2  and  C_4
REMARK    2  A    between atoms: N_8  and  C_9
REMARK    3  A    between atoms: C_9  and  C_10
REMARK    4  A    between atoms: C_14  and  C_15
REMARK                            x       y       z     vdW  Elec       q    Type
REMARK                         _______ _______ _______ _____ _____    ______ ____
ROOT
ATOM      1  C   UNL     1      43.741   4.798  11.152  0.00  0.00    +0.000 C 
ENDROOT
BRANCH   1   6
ATOM      2  C   UNL     1      46.368   2.228   7.664  0.00  0.00    +0.000 A 
ATOM      3  C   UNL     1      45.716   1.758   8.800  0.00  0.00    +0.000 A 
ATOM      4  C   UNL     1      44.880   2.622   9.513  0.00  0.00    +0.000 A 
ATOM      5  C   UNL     1      44.727   3.943   9.099  0.00  0.00    +0.000 A 
ATOM      6  N   UNL     1      43.854   4.833   9.709  0.00  0.00    +0.000 N 
ATOM      7  N   UNL     1      45.378   4.416   8.018  0.00  0.00    +0.000 NA
ATOM      8  C   UNL     1      46.182   3.560   7.328  0.00  0.00    +0.000 A 
ATOM      9  H   UNL     1      44.030   5.753   9.312  0.00  0.00    +0.000 HD
BRANCH   2  11
ATOM     10  N   UNL     1      48.271   2.001   6.172  0.00  0.00    +0.000 N 
ATOM     11  C   UNL     1      47.242   1.385   6.825  0.00  0.00    +0.000 C 
ATOM     12  O   UNL     1      47.075   0.175   6.747  0.00  0.00    +0.000 OA
ATOM     13  H   UNL     1      48.923   1.390   5.693  0.00  0.00    +0.000 HD
ATOM     14  H   UNL     1      48.591   2.929   6.409  0.00  0.00    +0.000 HD
ENDBRANCH   2  11
ENDBRANCH   1   6
BRANCH   1  15
ATOM     15  C   UNL     1      44.827   5.625  11.799  0.00  0.00    +0.000 A 
ATOM     16  C   UNL     1      44.999   6.973  11.463  0.00  0.00    +0.000 A 
ATOM     17  C   UNL     1      45.958   7.741  12.119  0.00  0.00    +0.000 A 
ATOM     18  C   UNL     1      46.747   7.174  13.124  0.00  0.00    +0.000 A 
ATOM     19  C   UNL     1      46.592   5.828  13.503  0.00  0.00    +0.000 A 
ATOM     20  C   UNL     1      45.643   5.065  12.796  0.00  0.00    +0.000 A 
BRANCH  19  21
ATOM     21  C   UNL     1      47.320   5.255  14.662  0.00  0.00    +0.000 A 
ATOM     22  C   UNL     1      48.197   6.047  15.428  0.00  0.00    +0.000 A 
ATOM     23  C   UNL     1      48.806   5.555  16.588  0.00  0.00    +0.000 A 
ATOM     24  C   UNL     1      48.542   4.258  17.009  0.00  0.00    +0.000 A 
ATOM     25 CL   UNL     1      49.245   3.670  18.464  0.00  0.00    +0.000 Cl
ATOM     26  C   UNL     1      47.699   3.440  16.264  0.00  0.00    +0.000 A 
ATOM     27  C   UNL     1      47.104   3.932  15.095  0.00  0.00    +0.000 A 
ENDBRANCH  19  21
ENDBRANCH   1  15
TORSDOF 4
ENDMDL
MODEL 3
REMARK VINA RESULT:    -7.728      2.789      3.651
REMARK INTER + INTRA:         -10.459
REMARK INTER:                  -9.870
REMARK INTRA:                  -0.590
REMARK UNBOUND:                -0.924
REMARK  Name = 
REMARK  4 active torsions:
REMARK  status: ('A' for Active; 'I' for Inactive)
REMARK    1  A    between atoms: C_2  and  C_4
REMARK    2  A    between atoms: N_8  and  C_9
REMARK    3  A    between atoms: C_9  and  C_10
REMARK    4  A    between atoms: C_14  and  C_15
REMARK                            x       y       z     vdW  Elec       q    Type
REMARK                         _______ _______ _______ _____ _____    ______ ____
ROOT
ATOM      1  C   UNL     1      43.614   3.657  11.055  0.00  0.00    +0.000 C 
ENDROOT
BRANCH   1   6
ATOM      2  C   UNL     1      46.678   2.493   7.192  0.00  0.00    +0.000 A 
ATOM      3  C   UNL     1      46.433   3.729   7.781  0.00  0.00    +0.000 A 
ATOM      4  C   UNL     1      45.700   3.784   8.970  0.00  0.00    +0.000 A 
ATOM      5  C   UNL     1      45.204   2.614   9.538  0.00  0.00    +0.000 A 
ATOM      6  N   UNL     1      44.540   2.584  10.756  0.00  0.00    +0.000 N 
ATOM      7  N   UNL     1      45.410   1.415   8.959  0.00  0.00    +0.000 NA
ATOM      8  C   UNL     1      46.133   1.375   7.805  0.00  0.00    +0.000 A 
ATOM      9  H   UNL     1      44.165   1.645  10.877  0.00  0.00    +0.000 HD
BRANCH   2  11
ATOM     10  N   UNL     1      47.228   3.197   4.933  0.00  0.00    +0.000 N 
ATOM     11  C   UNL     1      47.470   2.326   5.957  0.00  0.00    +0.000 C 
ATOM     12  O   UNL     1      48.335   1.467   5.868  0.00  0.00    +0.000 OA
ATOM     13  H   UNL     1      47.857   3.136   4.140  0.00  0.00    +0.000 HD
ATOM     14  H   UNL     1      46.718   4.059   5.057  0.00  0.00    +0.000 HD
ENDBRANCH   2  11
ENDBRANCH   1   6
BRANCH   1  15
ATOM     15  C   UNL     1      44.343   4.867  11.587  0.00  0.00    +0.000 A 
ATOM     16  C   UNL     1      43.955   6.160  11.215  0.00  0.00    +0.000 A 
ATOM     17  C   UNL     1      44.592   7.269  11.769  0.00  0.00    +0.000 A 
ATOM     18  C   UNL     1      45.615   7.097  12.706  0.00  0.00    +0.000 A 
ATOM     19  C   UNL     1      46.021   5.816  13.119  0.00  0.00    +0.000 A 
ATOM     20  C   UNL     1      45.388   4.713  12.514  0.00  0.00    +0.000 A 
BRANCH  19  21
ATOM     21  C   UNL     1      47.002   5.622  14.216  0.00  0.00    +0.000 A 
ATOM     22  C   UNL     1      47.990   6.592  14.480  0.00  0.00    +0.000 A 
ATOM     23  C   UNL     1      48.852   6.480  15.576  0.00  0.00    +0.000 A 
ATOM     24  C   UNL     1      48.737   5.396  16.436  0.00  0.00    +0.000 A 
ATOM     25 CL   UNL     1      49.758   5.285  17.816  0.00  0.00    +0.000 Cl
ATOM     26  C   UNL     1      47.789   4.408  16.192  0.00  0.00    +0.000 A 
ATOM     27  C   UNL     1      46.939   4.517  15.085  0.00  0.00    +0.000 A 
ENDBRANCH  19  21
ENDBRANCH   1  15
TORSDOF 4
ENDMDL
MODEL 4
REMARK VINA RESULT:    -7.684      3.995      6.947
REMARK INTER + INTRA:         -10.404
REMARK INTER:                  -9.533
REMARK INTRA:                  -0.871
REMARK UNBOUND:                -0.924
REMARK  Name = 
REMARK  4 active torsions:
REMARK  status: ('A' for Active; 'I' for Inactive)
REMARK    1  A    between atoms: C_2  and  C_4
REMARK    2  A    between atoms: N_8  and  C_9
REMARK    3  A    between atoms: C_9  and  C_10
REMARK    4  A    between atoms: C_14  and  C_15
REMARK                            x       y       z     vdW  Elec       q    Type
REMARK                         _______ _______ _______ _____ _____    ______ ____
ROOT
ATOM      1  C   UNL     1      44.477   6.508  12.291  0.00  0.00    +0.000 C 
ENDROOT
BRANCH   1   6
ATOM      2  C   UNL     1      49.352   7.870  12.527  0.00  0.00    +0.000 A 
ATOM      3  C   UNL     1      48.303   8.465  11.833  0.00  0.00    +0.000 A 
ATOM      4  C   UNL     1      46.995   8.036  12.075  0.00  0.00    +0.000 A 
ATOM      5  C   UNL     1      46.755   7.007  12.983  0.00  0.00    +0.000 A 
ATOM      6  N   UNL     1      45.481   6.586  13.333  0.00  0.00    +0.000 N 
ATOM      7  N   UNL     1      47.767   6.404  13.638  0.00  0.00    +0.000 NA
ATOM      8  C   UNL     1      49.035   6.838  13.398  0.00  0.00    +0.000 A 
ATOM      9  H   UNL     1      45.581   5.745  13.897  0.00  0.00    +0.000 HD
BRANCH   2  11
ATOM     10  N   UNL     1      51.610   8.027  13.411  0.00  0.00    +0.000 N 
ATOM     11  C   UNL     1      50.762   8.276  12.369  0.00  0.00    +0.000 C 
ATOM     12  O   UNL     1      51.166   8.780  11.330  0.00  0.00    +0.000 OA
ATOM     13  H   UNL     1      52.592   8.210  13.240  0.00  0.00    +0.000 HD
ATOM     14  H   UNL     1      51.379   7.395  14.164  0.00  0.00    +0.000 HD
ENDBRANCH   2  11
ENDBRANCH   1   6
BRANCH   1  15
ATOM     15  C   UNL     1      44.345   5.096  11.772  0.00  0.00    +0.000 A 
ATOM     16  C   UNL     1      43.446   4.197  12.359  0.00  0.00    +0.000 A 
ATOM     17  C   UNL     1      43.284   2.921  11.825  0.00  0.00    +0.000 A 
ATOM     18  C   UNL     1      44.009   2.534  10.695  0.00  0.00    +0.000 A 
ATOM     19  C   UNL     1      44.908   3.413  10.065  0.00  0.00    +0.000 A 
ATOM     20  C   UNL     1      45.082   4.683  10.649  0.00  0.00    +0.000 A 
BRANCH  19  21
ATOM     21  C   UNL     1      45.573   3.067   8.785  0.00  0.00    +0.000 A 
ATOM     22  C   UNL     1      45.892   4.066   7.844  0.00  0.00    +0.000 A 
ATOM     23  C   UNL     1      46.617   3.775   6.683  0.00  0.00    +0.000 A 
ATOM     24  C   UNL     1      47.043   2.475   6.444  0.00  0.00    +0.000 A 
ATOM     25 CL   UNL     1      47.982   2.125   5.046  0.00  0.00    +0.000 Cl
ATOM     26  C   UNL     1      46.725   1.460   7.340  0.00  0.00    +0.000 A 
ATOM     27  C   UNL     1      45.987   1.754   8.493  0.00  0.00    +0.000 A 
ENDBRANCH  19  21
ENDBRANCH   1  15
TORSDOF 4
ENDMDL
MODEL 5
REMARK VINA RESULT:    -7.634      5.141      7.973
REMARK INTER + INTRA:         -10.343
REMARK INTER:                  -9.772
REMARK INTRA:                  -0.572
REMARK UNBOUND:                -0.924
REMARK  Name = 
REMARK  4 active torsions:
REMARK  status: ('A' for Active; 'I' for Inactive)
REMARK    1  A    between atoms: C_2  and  C_4
REMARK    2  A    between atoms: N_8  and  C_9
REMARK    3  A    between atoms: C_9  and  C_10
REMARK    4  A    between atoms: C_14  and  C_15
REMARK                            x       y       z     vdW  Elec       q    Type
REMARK                         _______ _______ _______ _____ _____    ______ ____
ROOT
ATOM      1  C   UNL     1      46.149   5.411  13.938  0.00  0.00    +0.000 C 
ENDROOT
BRANCH   1   6
ATOM      2  C   UNL     1      49.591   4.011  17.382  0.00  0.00    +0.000 A 
ATOM      3  C   UNL     1      49.176   5.288  17.019  0.00  0.00    +0.000 A 
ATOM      4  C   UNL     1      48.063   5.433  16.186  0.00  0.00    +0.000 A 
ATOM      5  C   UNL     1      47.399   4.306  15.708  0.00  0.00    +0.000 A 
ATOM      6  N   UNL     1      46.243   4.373  14.944  0.00  0.00    +0.000 N 
ATOM      7  N   UNL     1      47.812   3.064  16.029  0.00  0.00    +0.000 NA
ATOM      8  C   UNL     1      48.892   2.938  16.848  0.00  0.00    +0.000 A 
ATOM      9  H   UNL     1      46.040   3.433  14.613  0.00  0.00    +0.000 HD
BRANCH   2  11
ATOM     10  N   UNL     1      50.662   4.272  19.547  0.00  0.00    +0.000 N 
ATOM     11  C   UNL     1      50.730   3.755  18.285  0.00  0.00    +0.000 C 
ATOM     12  O   UNL     1      51.682   3.073  17.929  0.00  0.00    +0.000 OA
ATOM     13  H   UNL     1      51.400   3.993  20.183  0.00  0.00    +0.000 HD
ATOM     14  H   UNL     1      49.802   4.612  19.952  0.00  0.00    +0.000 HD
ENDBRANCH   2  11
ENDBRANCH   1   6
BRANCH   1  15
ATOM     15  C   UNL     1      45.189   5.014  12.841  0.00  0.00    +0.000 A 
ATOM     16  C   UNL     1      43.830   5.341  12.923  0.00  0.00    +0.000 A 
ATOM     17  C   UNL     1      42.971   5.032  11.872  0.00  0.00    +0.000 A 
ATOM     18  C   UNL     1      43.461   4.401  10.725  0.00  0.00    +0.000 A 
ATOM     19  C   UNL     1      44.823   4.072  10.596  0.00  0.00    +0.000 A 
ATOM     20  C   UNL     1      45.661   4.361  11.690  0.00  0.00    +0.000 A 
BRANCH  19  21
ATOM     21  C   UNL     1      45.381   3.536   9.330  0.00  0.00    +0.000 A 
ATOM     22  C   UNL     1      45.872   4.402   8.334  0.00  0.00    +0.000 A 
ATOM     23  C   UNL     1      46.502   3.915   7.183  0.00  0.00    +0.000 A 
ATOM     24  C   UNL     1      46.660   2.546   7.011  0.00  0.00    +0.000 A 
ATOM     25 CL   UNL     1      47.483   1.946   5.626  0.00  0.00    +0.000 Cl
ATOM     26  C   UNL     1      46.166   1.661   7.964  0.00  0.00    +0.000 A 
ATOM     27  C   UNL     1      45.523   2.153   9.106  0.00  0.00    +0.000 A 
ENDBRANCH  19  21
ENDBRANCH   1  15
TORSDOF 4
ENDMDL
MODEL 6
REMARK VINA RESULT:    -7.432      2.159      2.912
REMARK INTER + INTRA:         -10.093
REMARK INTER:                  -9.416
REMARK INTRA:                  -0.677
REMARK UNBOUND:                -0.924
REMARK  Name = 
REMARK  4 active torsions:
REMARK  status: ('A' for Active; 'I' for Inactive)
REMARK    1  A    between atoms: C_2  and  C_4
REMARK    2  A    between atoms: N_8  and  C_9
REMARK    3  A    between atoms: C_9  and  C_10
REMARK    4  A    between atoms: C_14  and  C_15
REMARK                            x       y       z     vdW  Elec       q    Type
REMARK                         _______ _______ _______ _____ _____    ______ ____
ROOT
ATOM      1  C   UNL     1      44.523   5.604  11.040  0.00  0.00    +0.000 C 
ENDROOT
BRANCH   1   6
ATOM      2  C   UNL     1      46.436   2.098   7.922  0.00  0.00    +0.000 A 
ATOM      3  C   UNL     1      45.650   1.933   9.059  0.00  0.00    +0.000 A 
ATOM      4  C   UNL     1      45.065   3.055   9.652  0.00  0.00    +0.000 A 
ATOM      5  C   UNL     1      45.291   4.322   9.120  0.00  0.00    +0.000 A 
ATOM      6  N   UNL     1      44.680   5.468   9.607  0.00  0.00    +0.000 N 
ATOM      7  N   UNL     1      46.075   4.496   8.038  0.00  0.00    +0.000 NA
ATOM      8  C   UNL     1      46.632   3.393   7.465  0.00  0.00    +0.000 A 
ATOM      9  H   UNL     1      45.111   6.265   9.144  0.00  0.00    +0.000 HD
BRANCH   2  11
ATOM     10  N   UNL     1      46.763  -0.290   7.620  0.00  0.00    +0.000 N 
ATOM     11  C   UNL     1      47.067   0.974   7.203  0.00  0.00    +0.000 C 
ATOM     12  O   UNL     1      47.805   1.166   6.246  0.00  0.00    +0.000 OA
ATOM     13  H   UNL     1      47.117  -1.046   7.045  0.00  0.00    +0.000 HD
ATOM     14  H   UNL     1      45.978  -0.493   8.222  0.00  0.00    +0.000 HD
ENDBRANCH   2  11
ENDBRANCH   1   6
BRANCH   1  15
ATOM     15  C   UNL     1      45.162   6.880  11.536  0.00  0.00    +0.000 A 
ATOM     16  C   UNL     1      44.477   8.099  11.467  0.00  0.00    +0.000 A 
ATOM     17  C   UNL     1      45.051   9.254  11.992  0.00  0.00    +0.000 A 
ATOM     18  C   UNL     1      46.309   9.202  12.599  0.00  0.00    +0.000 A 
ATOM     19  C   UNL     1      47.021   7.994  12.704  0.00  0.00    +0.000 A 
ATOM     20  C   UNL     1      46.435   6.849  12.130  0.00  0.00    +0.000 A 
BRANCH  19  21
ATOM     21  C   UNL     1      48.287   7.897  13.472  0.00  0.00    +0.000 A 
ATOM     22  C   UNL     1      48.324   7.256  14.726  0.00  0.00    +0.000 A 
ATOM     23  C   UNL     1      49.527   7.058  15.413  0.00  0.00    +0.000 A 
ATOM     24  C   UNL     1      50.721   7.493  14.852  0.00  0.00    +0.000 A 
ATOM     25 CL   UNL     1      52.206   7.201  15.668  0.00  0.00    +0.000 Cl
ATOM     26  C   UNL     1      50.718   8.151  13.627  0.00  0.00    +0.000 A 
ATOM     27  C   UNL     1      49.510   8.360  12.951  0.00  0.00    +0.000 A 
ENDBRANCH  19  21
ENDBRANCH   1  15
TORSDOF 4
ENDMDL
MODEL 7
REMARK VINA RESULT:    -7.333      1.871      2.595
REMARK INTER + INTRA:          -9.972
REMARK INTER:                  -9.855
REMARK INTRA:                  -0.117
REMARK UNBOUND:                -0.924
REMARK  Name = 
REMARK  4 active torsions:
REMARK  status: ('A' for Active; 'I' for Inactive)
REMARK    1  A    between atoms: C_2  and  C_4
REMARK    2  A    between atoms: N_8  and  C_9
REMARK    3  A    between atoms: C_9  and  C_10
REMARK    4  A    between atoms: C_14  and  C_15
REMARK                            x       y       z     vdW  Elec       q    Type
REMARK                         _______ _______ _______ _____ _____    ______ ____
ROOT
ATOM      1  C   UNL     1      43.518   3.701  10.907  0.00  0.00    +0.000 C 
ENDROOT
BRANCH   1   6
ATOM      2  C   UNL     1      46.700   2.559   7.133  0.00  0.00    +0.000 A 
ATOM      3  C   UNL     1      46.216   3.801   7.533  0.00  0.00    +0.000 A 
ATOM      4  C   UNL     1      45.505   3.901   8.732  0.00  0.00    +0.000 A 
ATOM      5  C   UNL     1      45.266   2.763   9.499  0.00  0.00    +0.000 A 
ATOM      6  N   UNL     1      44.639   2.800  10.735  0.00  0.00    +0.000 N 
ATOM      7  N   UNL     1      45.703   1.551   9.104  0.00  0.00    +0.000 NA
ATOM      8  C   UNL     1      46.402   1.469   7.938  0.00  0.00    +0.000 A 
ATOM      9  H   UNL     1      44.465   1.837  11.019  0.00  0.00    +0.000 HD
BRANCH   2  11
ATOM     10  N   UNL     1      47.274   3.217   4.866  0.00  0.00    +0.000 N 
ATOM     11  C   UNL     1      47.491   2.355   5.904  0.00  0.00    +0.000 C 
ATOM     12  O   UNL     1      48.335   1.473   5.830  0.00  0.00    +0.000 OA
ATOM     13  H   UNL     1      47.904   3.129   4.076  0.00  0.00    +0.000 HD
ATOM     14  H   UNL     1      46.786   4.093   4.977  0.00  0.00    +0.000 HD
ENDBRANCH   2  11
ENDBRANCH   1   6
BRANCH   1  15
ATOM     15  C   UNL     1      43.994   5.112  11.160  0.00  0.00    +0.000 A 
ATOM     16  C   UNL     1      43.118   6.197  11.038  0.00  0.00    +0.000 A 
ATOM     17  C   UNL     1      43.552   7.485  11.343  0.00  0.00    +0.000 A 
ATOM     18  C   UNL     1      44.862   7.701  11.781  0.00  0.00    +0.000 A 
ATOM     19  C   UNL     1      45.767   6.635  11.933  0.00  0.00    +0.000 A 
ATOM     20  C   UNL     1      45.313   5.349  11.580  0.00  0.00    +0.000 A 
BRANCH  19  21
ATOM     21  C   UNL     1      47.111   6.830  12.533  0.00  0.00    +0.000 A 
ATOM     22  C   UNL     1      48.140   7.461  11.808  0.00  0.00    +0.000 A 
ATOM     23  C   UNL     1      49.377   7.752  12.394  0.00  0.00    +0.000 A 
ATOM     24  C   UNL     1      49.606   7.422  13.723  0.00  0.00    +0.000 A 
ATOM     25 CL   UNL     1      51.104   7.829  14.461  0.00  0.00    +0.000 Cl
ATOM     26  C   UNL     1      48.620   6.776  14.462  0.00  0.00    +0.000 A 
ATOM     27  C   UNL     1      47.389   6.473  13.866  0.00  0.00    +0.000 A 
ENDBRANCH  19  21
ENDBRANCH   1  15
TORSDOF 4
ENDMDL
MODEL 8
REMARK VINA RESULT:    -7.260      4.036      7.117
REMARK INTER + INTRA:          -9.881
REMARK INTER:                  -9.381
REMARK INTRA:                  -0.500
REMARK UNBOUND:                -0.924
REMARK  Name = 
REMARK  4 active torsions:
REMARK  status: ('A' for Active; 'I' for Inactive)
REMARK    1  A    between atoms: C_2  and  C_4
REMARK    2  A    between atoms: N_8  and  C_9
REMARK    3  A    between atoms: C_9  and  C_10
REMARK    4  A    between atoms: C_14  and  C_15
REMARK                            x       y       z     vdW  Elec       q    Type
REMARK                         _______ _______ _______ _____ _____    ______ ____
ROOT
ATOM      1  C   UNL     1      43.002   6.448  11.388  0.00  0.00    +0.000 C 
ENDROOT
BRANCH   1   6
ATOM      2  C   UNL     1      47.226   8.349  13.440  0.00  0.00    +0.000 A 
ATOM      3  C   UNL     1      46.733   7.048  13.483  0.00  0.00    +0.000 A 
ATOM      4  C   UNL     1      45.648   6.704  12.673  0.00  0.00    +0.000 A 
ATOM      5  C   UNL     1      45.058   7.662  11.853  0.00  0.00    +0.000 A 
ATOM      6  N   UNL     1      44.032   7.374  10.964  0.00  0.00    +0.000 N 
ATOM      7  N   UNL     1      45.509   8.932  11.827  0.00  0.00    +0.000 NA
ATOM      8  C   UNL     1      46.572   9.252  12.616  0.00  0.00    +0.000 A 
ATOM      9  H   UNL     1      43.691   8.258  10.593  0.00  0.00    +0.000 HD
BRANCH   2  11
ATOM     10  N   UNL     1      48.222   9.904  15.019  0.00  0.00    +0.000 N 
ATOM     11  C   UNL     1      48.388   8.801  14.230  0.00  0.00    +0.000 C 
ATOM     12  O   UNL     1      49.448   8.190  14.209  0.00  0.00    +0.000 OA
ATOM     13  H   UNL     1      48.994  10.131  15.636  0.00  0.00    +0.000 HD
ATOM     14  H   UNL     1      47.313  10.273  15.257  0.00  0.00    +0.000 HD
ENDBRANCH   2  11
ENDBRANCH   1   6
BRANCH   1  15
ATOM     15  C   UNL     1      43.450   5.018  11.202  0.00  0.00    +0.000 A 
ATOM     16  C   UNL     1      42.974   4.001  12.038  0.00  0.00    +0.000 A 
ATOM     17  C   UNL     1      43.341   2.677  11.810  0.00  0.00    +0.000 A 
ATOM     18  C   UNL     1      44.179   2.354  10.739  0.00  0.00    +0.000 A 
ATOM     19  C   UNL     1      44.664   3.344   9.865  0.00  0.00    +0.000 A 
ATOM     20  C   UNL     1      44.310   4.679  10.143  0.00  0.00    +0.000 A 
BRANCH  19  21
ATOM     21  C   UNL     1      45.434   3.000   8.644  0.00  0.00    +0.000 A 
ATOM     22  C   UNL     1      45.732   3.981   7.678  0.00  0.00    +0.000 A 
ATOM     23  C   UNL     1      46.549   3.701   6.577  0.00  0.00    +0.000 A 
ATOM     24  C   UNL     1      47.091   2.432   6.425  0.00  0.00    +0.000 A 
ATOM     25 CL   UNL     1      48.140   2.101   5.103  0.00  0.00    +0.000 Cl
ATOM     26  C   UNL     1      46.798   1.432   7.347  0.00  0.00    +0.000 A 
ATOM     27  C   UNL     1      45.968   1.713   8.439  0.00  0.00    +0.000 A 
ENDBRANCH  19  21
ENDBRANCH   1  15
TORSDOF 4
ENDMDL
MODEL 9
REMARK VINA RESULT:    -6.808      6.036      8.337
REMARK INTER + INTRA:          -9.324
REMARK INTER:                  -8.455
REMARK INTRA:                  -0.868
REMARK UNBOUND:                -0.924
REMARK  Name = 
REMARK  4 active torsions:
REMARK  status: ('A' for Active; 'I' for Inactive)
REMARK    1  A    between atoms: C_2  and  C_4
REMARK    2  A    between atoms: N_8  and  C_9
REMARK    3  A    between atoms: C_9  and  C_10
REMARK    4  A    between atoms: C_14  and  C_15
REMARK                            x       y       z     vdW  Elec       q    Type
REMARK                         _______ _______ _______ _____ _____    ______ ____
ROOT
ATOM      1  C   UNL     1      49.685   7.182  16.633  0.00  0.00    +0.000 C 
ENDROOT
BRANCH   1   6
ATOM      2  C   UNL     1      51.548   2.564  17.565  0.00  0.00    +0.000 A 
ATOM      3  C   UNL     1      52.133   3.809  17.773  0.00  0.00    +0.000 A 
ATOM      4  C   UNL     1      51.354   4.961  17.631  0.00  0.00    +0.000 A 
ATOM      5  C   UNL     1      50.015   4.856  17.261  0.00  0.00    +0.000 A 
ATOM      6  N   UNL     1      49.163   5.947  17.180  0.00  0.00    +0.000 N 
ATOM      7  N   UNL     1      49.448   3.656  17.028  0.00  0.00    +0.000 NA
ATOM      8  C   UNL     1      50.216   2.542  17.178  0.00  0.00    +0.000 A 
ATOM      9  H   UNL     1      48.293   5.625  16.762  0.00  0.00    +0.000 HD
BRANCH   2  11
ATOM     10  N   UNL     1      51.557   0.201  18.129  0.00  0.00    +0.000 N 
ATOM     11  C   UNL     1      52.276   1.290  17.725  0.00  0.00    +0.000 C 
ATOM     12  O   UNL     1      53.469   1.202  17.469  0.00  0.00    +0.000 OA
ATOM     13  H   UNL     1      52.050  -0.685  18.125  0.00  0.00    +0.000 HD
ATOM     14  H   UNL     1      50.548   0.172  18.101  0.00  0.00    +0.000 HD
ENDBRANCH   2  11
ENDBRANCH   1   6
BRANCH   1  15
ATOM     15  C   UNL     1      49.430   7.265  15.146  0.00  0.00    +0.000 A 
ATOM     16  C   UNL     1      50.351   7.884  14.293  0.00  0.00    +0.000 A 
ATOM     17  C   UNL     1      50.136   7.890  12.916  0.00  0.00    +0.000 A 
ATOM     18  C   UNL     1      49.004   7.271  12.378  0.00  0.00    +0.000 A 
ATOM     19  C   UNL     1      48.064   6.624  13.200  0.00  0.00    +0.000 A 
ATOM     20  C   UNL     1      48.286   6.667  14.591  0.00  0.00    +0.000 A 
BRANCH  19  21
ATOM     21  C   UNL     1      46.938   5.841  12.634  0.00  0.00    +0.000 A 
ATOM     22  C   UNL     1      46.363   6.194  11.397  0.00  0.00    +0.000 A 
ATOM     23  C   UNL     1      45.377   5.405  10.795  0.00  0.00    +0.000 A 
ATOM     24  C   UNL     1      44.950   4.240  11.418  0.00  0.00    +0.000 A 
ATOM     25 CL   UNL     1      43.779   3.240  10.654  0.00  0.00    +0.000 Cl
ATOM     26  C   UNL     1      45.479   3.874  12.651  0.00  0.00    +0.000 A 
ATOM     27  C   UNL     1      46.455   4.674  13.257  0.00  0.00    +0.000 A 
ENDBRANCH  19  21
ENDBRANCH   1  15
TORSDOF 4
ENDMDL
