MODEL 1
REMARK VINA RESULT:    -9.592      0.000      0.000
REMARK INTER + INTRA:         -12.388
REMARK INTER:                 -11.835
REMARK INTRA:                  -0.553
REMARK UNBOUND:                -0.553
REMARK  Name = 
REMARK  4 active torsions:
REMARK  status: ('A' for Active; 'I' for Inactive)
REMARK    1  A    between atoms: C_2  and  C_4
REMARK    2  A    between atoms: N_8  and  C_9
REMARK    3  A    between atoms: C_9  and  C_10
REMARK    4  A    between atoms: C_14  and  C_15
REMARK                            x       y       z     vdW  Elec       q    Type
REMARK                         _______ _______ _______ _____ _____    ______ ____
ROOT
ATOM      1  C   UNL     1      43.933   4.928  11.421  0.00  0.00    +0.000 C 
ATOM      2  C   UNL     1      42.789   4.959  12.426  0.00  0.00    +0.000 C 
ATOM      3  C   UNL     1      42.840   5.974  11.334  0.00  0.00    +0.000 C 
ENDROOT
BRANCH   1   8
ATOM      4  C   UNL     1      46.487   2.724   7.448  0.00  0.00    +0.000 A 
ATOM      5  C   UNL     1      46.049   4.038   7.568  0.00  0.00    +0.000 A 
ATOM      6  C   UNL     1      45.224   4.390   8.643  0.00  0.00    +0.000 A 
ATOM      7  C   UNL     1      44.864   3.430   9.573  0.00  0.00    +0.000 A 
ATOM      8  N   UNL     1      43.976   3.682  10.628  0.00  0.00    +0.000 N 
ATOM      9  N   UNL     1      45.268   2.142   9.457  0.00  0.00    +0.000 NA
ATOM     10  C   UNL     1      46.059   1.812   8.397  0.00  0.00    +0.000 A 
ATOM     11  H   UNL     1      43.969   2.824  11.174  0.00  0.00    +0.000 HD
BRANCH   4  13
ATOM     12  N   UNL     1      47.215   2.958   5.147  0.00  0.00    +0.000 N 
ATOM     13  C   UNL     1      47.344   2.280   6.329  0.00  0.00    +0.000 C 
ATOM     14  O   UNL     1      48.146   1.366   6.457  0.00  0.00    +0.000 OA
ATOM     15  H   UNL     1      47.855   2.707   4.405  0.00  0.00    +0.000 HD
ATOM     16  H   UNL     1      46.756   3.856   5.081  0.00  0.00    +0.000 HD
ENDBRANCH   4  13
ENDBRANCH   1   8
BRANCH   1  17
ATOM     17  C   UNL     1      45.320   5.400  11.838  0.00  0.00    +0.000 A 
ATOM     18  C   UNL     1      46.003   6.408  11.140  0.00  0.00    +0.000 A 
ATOM     19  C   UNL     1      47.183   6.956  11.636  0.00  0.00    +0.000 A 
ATOM     20  C   UNL     1      47.695   6.514  12.854  0.00  0.00    +0.000 A 
ATOM     21  C   UNL     1      47.056   5.502  13.589  0.00  0.00    +0.000 A 
ATOM     22  C   UNL     1      45.897   4.931  13.034  0.00  0.00    +0.000 A 
BRANCH  21  23
ATOM     23  C   UNL     1      47.501   5.147  14.948  0.00  0.00    +0.000 A 
ATOM     24  C   UNL     1      48.451   5.887  15.661  0.00  0.00    +0.000 A 
ATOM     25  N   UNL     1      48.946   5.553  16.882  0.00  0.00    +0.000 NA
ATOM     26  C   UNL     1      48.461   4.418  17.434  0.00  0.00    +0.000 A 
ATOM     27  C   UNL     1      47.515   3.620  16.824  0.00  0.00    +0.000 A 
ATOM     28  F   UNL     1      47.076   2.502  17.413  0.00  0.00    +0.000 F 
ATOM     29  C   UNL     1      47.036   3.980  15.575  0.00  0.00    +0.000 A 
ENDBRANCH  21  23
ENDBRANCH   1  17
TORSDOF 4
ENDMDL
MODEL 2
REMARK VINA RESULT:    -9.536      2.626      3.651
REMARK INTER + INTRA:         -12.319
REMARK INTER:                 -11.148
REMARK INTRA:                  -1.171
REMARK UNBOUND:                -0.553
REMARK  Name = 
REMARK  4 active torsions:
REMARK  status: ('A' for Active; 'I' for Inactive)
REMARK    1  A    between atoms: C_2  and  C_4
REMARK    2  A    between atoms: N_8  and  C_9
REMARK    3  A    between atoms: C_9  and  C_10
REMARK    4  A    between atoms: C_14  and  C_15
REMARK                            x       y       z     vdW  Elec       q    Type
REMARK                         _______ _______ _______ _____ _____    ______ ____
ROOT
ATOM      1  C   UNL     1      43.784   4.905  11.366  0.00  0.00    +0.000 C 
ATOM      2  C   UNL     1      42.414   5.139  11.988  0.00  0.00    +0.000 C 
ATOM      3  C   UNL     1      42.975   6.145  11.040  0.00  0.00    +0.000 C 
ENDROOT
BRANCH   1   8
ATOM      4  C   UNL     1      46.550   2.751   7.510  0.00  0.00    +0.000 A 
ATOM      5  C   UNL     1      46.153   4.076   7.649  0.00  0.00    +0.000 A 
ATOM      6  C   UNL     1      45.262   4.420   8.673  0.00  0.00    +0.000 A 
ATOM      7  C   UNL     1      44.797   3.441   9.534  0.00  0.00    +0.000 A 
ATOM      8  N   UNL     1      43.841   3.689  10.528  0.00  0.00    +0.000 N 
ATOM      9  N   UNL     1      45.160   2.143   9.396  0.00  0.00    +0.000 NA
ATOM     10  C   UNL     1      46.017   1.822   8.386  0.00  0.00    +0.000 A 
ATOM     11  H   UNL     1      43.760   2.811  11.037  0.00  0.00    +0.000 HD
BRANCH   4  13
ATOM     12  N   UNL     1      47.409   2.996   5.255  0.00  0.00    +0.000 N 
ATOM     13  C   UNL     1      47.473   2.315   6.440  0.00  0.00    +0.000 C 
ATOM     14  O   UNL     1      48.272   1.406   6.612  0.00  0.00    +0.000 OA
ATOM     15  H   UNL     1      48.092   2.751   4.551  0.00  0.00    +0.000 HD
ATOM     16  H   UNL     1      46.949   3.891   5.165  0.00  0.00    +0.000 HD
ENDBRANCH   4  13
ENDBRANCH   1   8
BRANCH   1  17
ATOM     17  C   UNL     1      45.040   5.091  12.207  0.00  0.00    +0.000 A 
ATOM     18  C   UNL     1      45.548   4.066  13.019  0.00  0.00    +0.000 A 
ATOM     19  C   UNL     1      46.791   4.183  13.635  0.00  0.00    +0.000 A 
ATOM     20  C   UNL     1      47.559   5.328  13.436  0.00  0.00    +0.000 A 
ATOM     21  C   UNL     1      47.095   6.387  12.639  0.00  0.00    +0.000 A 
ATOM     22  C   UNL     1      45.812   6.261  12.076  0.00  0.00    +0.000 A 
BRANCH  21  23
ATOM     23  C   UNL     1      47.966   7.524  12.294  0.00  0.00    +0.000 A 
ATOM     24  C   UNL     1      47.499   8.838  12.169  0.00  0.00    +0.000 A 
ATOM     25  N   UNL     1      48.250   9.901  11.779  0.00  0.00    +0.000 NA
ATOM     26  C   UNL     1      49.548   9.646  11.502  0.00  0.00    +0.000 A 
ATOM     27  C   UNL     1      50.115   8.392  11.602  0.00  0.00    +0.000 A 
ATOM     28  F   UNL     1      51.406   8.196  11.309  0.00  0.00    +0.000 F 
ATOM     29  C   UNL     1      49.323   7.325  11.994  0.00  0.00    +0.000 A 
ENDBRANCH  21  23
ENDBRANCH   1  17
TORSDOF 4
ENDMDL
MODEL 3
REMARK VINA RESULT:    -7.586      4.104      8.424
REMARK INTER + INTRA:          -9.913
REMARK INTER:                  -8.902
REMARK INTRA:                  -1.010
REMARK UNBOUND:                -0.553
REMARK  Name = 
REMARK  4 active torsions:
REMARK  status: ('A' for Active; 'I' for Inactive)
REMARK    1  A    between atoms: C_2  and  C_4
REMARK    2  A    between atoms: N_8  and  C_9
REMARK    3  A    between atoms: C_9  and  C_10
REMARK    4  A    between atoms: C_14  and  C_15
REMARK                            x       y       z     vdW  Elec       q    Type
REMARK                         _______ _______ _______ _____ _____    ______ ____
ROOT
ATOM      1  C   UNL     1      48.929   7.874  12.604  0.00  0.00    +0.000 C 
ATOM      2  C   UNL     1      49.903   8.042  11.446  0.00  0.00    +0.000 C 
ATOM      3  C   UNL     1      49.558   9.217  12.297  0.00  0.00    +0.000 C 
ENDROOT
BRANCH   1   8
ATOM      4  C   UNL     1      48.435   6.799  17.680  0.00  0.00    +0.000 A 
ATOM      5  C   UNL     1      48.543   8.044  17.069  0.00  0.00    +0.000 A 
ATOM      6  C   UNL     1      48.846   8.112  15.704  0.00  0.00    +0.000 A 
ATOM      7  C   UNL     1      49.024   6.944  14.982  0.00  0.00    +0.000 A 
ATOM      8  N   UNL     1      49.410   6.930  13.635  0.00  0.00    +0.000 N 
ATOM      9  N   UNL     1      48.940   5.726  15.570  0.00  0.00    +0.000 NA
ATOM     10  C   UNL     1      48.659   5.676  16.903  0.00  0.00    +0.000 A 
ATOM     11  H   UNL     1      49.384   5.949  13.366  0.00  0.00    +0.000 HD
BRANCH   4  13
ATOM     12  N   UNL     1      47.226   5.693  19.468  0.00  0.00    +0.000 N 
ATOM     13  C   UNL     1      48.136   6.654  19.121  0.00  0.00    +0.000 C 
ATOM     14  O   UNL     1      48.692   7.342  19.964  0.00  0.00    +0.000 OA
ATOM     15  H   UNL     1      47.078   5.540  20.456  0.00  0.00    +0.000 HD
ATOM     16  H   UNL     1      46.942   4.957  18.836  0.00  0.00    +0.000 HD
ENDBRANCH   4  13
ENDBRANCH   1   8
BRANCH   1  17
ATOM     17  C   UNL     1      47.439   7.719  12.325  0.00  0.00    +0.000 A 
ATOM     18  C   UNL     1      46.544   8.791  12.457  0.00  0.00    +0.000 A 
ATOM     19  C   UNL     1      45.225   8.686  12.024  0.00  0.00    +0.000 A 
ATOM     20  C   UNL     1      44.780   7.505  11.433  0.00  0.00    +0.000 A 
ATOM     21  C   UNL     1      45.633   6.399  11.284  0.00  0.00    +0.000 A 
ATOM     22  C   UNL     1      46.942   6.518  11.782  0.00  0.00    +0.000 A 
BRANCH  21  23
ATOM     23  C   UNL     1      45.218   5.211  10.517  0.00  0.00    +0.000 A 
ATOM     24  C   UNL     1      44.497   4.150  11.078  0.00  0.00    +0.000 A 
ATOM     25  N   UNL     1      44.161   3.004  10.430  0.00  0.00    +0.000 NA
ATOM     26  C   UNL     1      44.558   2.908   9.141  0.00  0.00    +0.000 A 
ATOM     27  C   UNL     1      45.264   3.897   8.487  0.00  0.00    +0.000 A 
ATOM     28  F   UNL     1      45.639   3.745   7.211  0.00  0.00    +0.000 F 
ATOM     29  C   UNL     1      45.600   5.051   9.176  0.00  0.00    +0.000 A 
ENDBRANCH  21  23
ENDBRANCH   1  17
TORSDOF 4
ENDMDL
MODEL 4
REMARK VINA RESULT:    -7.355      3.514      7.704
REMARK INTER + INTRA:          -9.628
REMARK INTER:                  -9.622
REMARK INTRA:                  -0.006
REMARK UNBOUND:                -0.553
REMARK  Name = 
REMARK  4 active torsions:
REMARK  status: ('A' for Active; 'I' for Inactive)
REMARK    1  A    between atoms: C_2  and  C_4
REMARK    2  A    between atoms: N_8  and  C_9
REMARK    3  A    between atoms: C_9  and  C_10
REMARK    4  A    between atoms: C_14  and  C_15
REMARK                            x       y       z     vdW  Elec       q    Type
REMARK                         _______ _______ _______ _____ _____    ______ ____
ROOT
ATOM      1  C   UNL     1      48.330   7.713  12.704  0.00  0.00    +0.000 C 
ATOM      2  C   UNL     1      49.477   7.062  11.943  0.00  0.00    +0.000 C 
ATOM      3  C   UNL     1      49.236   8.528  11.804  0.00  0.00    +0.000 C 
ENDROOT
BRANCH   1   8
ATOM      4  C   UNL     1      47.983   4.242  16.577  0.00  0.00    +0.000 A 
ATOM      5  C   UNL     1      47.149   4.389  15.473  0.00  0.00    +0.000 A 
ATOM      6  C   UNL     1      47.310   5.499  14.636  0.00  0.00    +0.000 A 
ATOM      7  C   UNL     1      48.300   6.427  14.911  0.00  0.00    +0.000 A 
ATOM      8  N   UNL     1      48.470   7.605  14.171  0.00  0.00    +0.000 N 
ATOM      9  N   UNL     1      49.105   6.305  15.994  0.00  0.00    +0.000 NA
ATOM     10  C   UNL     1      48.926   5.227  16.808  0.00  0.00    +0.000 A 
ATOM     11  H   UNL     1      49.308   8.036  14.556  0.00  0.00    +0.000 HD
BRANCH   4  13
ATOM     12  N   UNL     1      48.985   2.734  18.189  0.00  0.00    +0.000 N 
ATOM     13  C   UNL     1      47.855   3.105  17.512  0.00  0.00    +0.000 C 
ATOM     14  O   UNL     1      46.788   2.536  17.691  0.00  0.00    +0.000 OA
ATOM     15  H   UNL     1      48.882   2.008  18.885  0.00  0.00    +0.000 HD
ATOM     16  H   UNL     1      49.803   3.325  18.251  0.00  0.00    +0.000 HD
ENDBRANCH   4  13
ENDBRANCH   1   8
BRANCH   1  17
ATOM     17  C   UNL     1      46.895   7.497  12.240  0.00  0.00    +0.000 A 
ATOM     18  C   UNL     1      45.952   8.536  12.234  0.00  0.00    +0.000 A 
ATOM     19  C   UNL     1      44.704   8.375  11.638  0.00  0.00    +0.000 A 
ATOM     20  C   UNL     1      44.381   7.168  11.020  0.00  0.00    +0.000 A 
ATOM     21  C   UNL     1      45.285   6.093  11.004  0.00  0.00    +0.000 A 
ATOM     22  C   UNL     1      46.515   6.270  11.662  0.00  0.00    +0.000 A 
BRANCH  21  23
ATOM     23  C   UNL     1      45.015   4.879  10.215  0.00  0.00    +0.000 A 
ATOM     24  C   UNL     1      44.282   3.792  10.708  0.00  0.00    +0.000 A 
ATOM     25  N   UNL     1      44.075   2.624  10.045  0.00  0.00    +0.000 NA
ATOM     26  C   UNL     1      44.622   2.531   8.812  0.00  0.00    +0.000 A 
ATOM     27  C   UNL     1      45.353   3.544   8.226  0.00  0.00    +0.000 A 
ATOM     28  F   UNL     1      45.879   3.395   7.004  0.00  0.00    +0.000 F 
ATOM     29  C   UNL     1      45.556   4.721   8.930  0.00  0.00    +0.000 A 
ENDBRANCH  21  23
ENDBRANCH   1  17
TORSDOF 4
ENDMDL
MODEL 5
REMARK VINA RESULT:    -7.196      2.838      4.605
REMARK INTER + INTRA:          -9.431
REMARK INTER:                  -8.902
REMARK INTRA:                  -0.529
REMARK UNBOUND:                -0.553
REMARK  Name = 
REMARK  4 active torsions:
REMARK  status: ('A' for Active; 'I' for Inactive)
REMARK    1  A    between atoms: C_2  and  C_4
REMARK    2  A    between atoms: N_8  and  C_9
REMARK    3  A    between atoms: C_9  and  C_10
REMARK    4  A    between atoms: C_14  and  C_15
REMARK                            x       y       z     vdW  Elec       q    Type
REMARK                         _______ _______ _______ _____ _____    ______ ____
ROOT
ATOM      1  C   UNL     1      47.349   8.548  13.160  0.00  0.00    +0.000 C 
ATOM      2  C   UNL     1      47.457   9.870  12.411  0.00  0.00    +0.000 C 
ATOM      3  C   UNL     1      48.216   8.682  11.924  0.00  0.00    +0.000 C 
ENDROOT
BRANCH   1   8
ATOM      4  C   UNL     1      44.605   4.424  11.541  0.00  0.00    +0.000 A 
ATOM      5  C   UNL     1      45.595   5.122  10.858  0.00  0.00    +0.000 A 
ATOM      6  C   UNL     1      46.090   6.314  11.400  0.00  0.00    +0.000 A 
ATOM      7  C   UNL     1      45.595   6.775  12.608  0.00  0.00    +0.000 A 
ATOM      8  N   UNL     1      45.977   7.999  13.174  0.00  0.00    +0.000 N 
ATOM      9  N   UNL     1      44.617   6.114  13.273  0.00  0.00    +0.000 NA
ATOM     10  C   UNL     1      44.135   4.963  12.726  0.00  0.00    +0.000 A 
ATOM     11  H   UNL     1      45.513   8.024  14.079  0.00  0.00    +0.000 HD
BRANCH   4  13
ATOM     12  N   UNL     1      44.766   2.486  10.093  0.00  0.00    +0.000 N 
ATOM     13  C   UNL     1      44.024   3.169  11.017  0.00  0.00    +0.000 C 
ATOM     14  O   UNL     1      42.944   2.749  11.407  0.00  0.00    +0.000 OA
ATOM     15  H   UNL     1      44.407   1.589   9.792  0.00  0.00    +0.000 HD
ATOM     16  H   UNL     1      45.748   2.668   9.938  0.00  0.00    +0.000 HD
ENDBRANCH   4  13
ENDBRANCH   1   8
BRANCH   1  17
ATOM     17  C   UNL     1      48.059   8.375  14.496  0.00  0.00    +0.000 A 
ATOM     18  C   UNL     1      48.239   9.444  15.386  0.00  0.00    +0.000 A 
ATOM     19  C   UNL     1      48.721   9.236  16.676  0.00  0.00    +0.000 A 
ATOM     20  C   UNL     1      49.017   7.945  17.106  0.00  0.00    +0.000 A 
ATOM     21  C   UNL     1      48.861   6.839  16.254  0.00  0.00    +0.000 A 
ATOM     22  C   UNL     1      48.426   7.089  14.940  0.00  0.00    +0.000 A 
BRANCH  21  23
ATOM     23  C   UNL     1      49.016   5.462  16.752  0.00  0.00    +0.000 A 
ATOM     24  C   UNL     1      50.260   4.875  17.010  0.00  0.00    +0.000 A 
ATOM     25  N   UNL     1      50.452   3.586  17.396  0.00  0.00    +0.000 NA
ATOM     26  C   UNL     1      49.339   2.834  17.543  0.00  0.00    +0.000 A 
ATOM     27  C   UNL     1      48.063   3.314  17.326  0.00  0.00    +0.000 A 
ATOM     28  F   UNL     1      46.995   2.522  17.481  0.00  0.00    +0.000 F 
ATOM     29  C   UNL     1      47.899   4.630  16.925  0.00  0.00    +0.000 A 
ENDBRANCH  21  23
ENDBRANCH   1  17
TORSDOF 4
ENDMDL
MODEL 6
REMARK VINA RESULT:    -7.024      2.831      4.384
REMARK INTER + INTRA:          -9.218
REMARK INTER:                  -8.591
REMARK INTRA:                  -0.628
REMARK UNBOUND:                -0.553
REMARK  Name = 
REMARK  4 active torsions:
REMARK  status: ('A' for Active; 'I' for Inactive)
REMARK    1  A    between atoms: C_2  and  C_4
REMARK    2  A    between atoms: N_8  and  C_9
REMARK    3  A    between atoms: C_9  and  C_10
REMARK    4  A    between atoms: C_14  and  C_15
REMARK                            x       y       z     vdW  Elec       q    Type
REMARK                         _______ _______ _______ _____ _____    ______ ____
ROOT
ATOM      1  C   UNL     1      47.343   8.282  12.998  0.00  0.00    +0.000 C 
ATOM      2  C   UNL     1      47.166   9.784  12.816  0.00  0.00    +0.000 C 
ATOM      3  C   UNL     1      47.660   8.956  11.678  0.00  0.00    +0.000 C 
ENDROOT
BRANCH   1   8
ATOM      4  C   UNL     1      44.547   4.120  11.574  0.00  0.00    +0.000 A 
ATOM      5  C   UNL     1      45.241   5.012  10.763  0.00  0.00    +0.000 A 
ATOM      6  C   UNL     1      45.786   6.170  11.328  0.00  0.00    +0.000 A 
ATOM      7  C   UNL     1      45.635   6.408  12.684  0.00  0.00    +0.000 A 
ATOM      8  N   UNL     1      46.078   7.582  13.307  0.00  0.00    +0.000 N 
ATOM      9  N   UNL     1      44.945   5.557  13.481  0.00  0.00    +0.000 NA
ATOM     10  C   UNL     1      44.408   4.441  12.913  0.00  0.00    +0.000 A 
ATOM     11  H   UNL     1      45.899   7.434  14.298  0.00  0.00    +0.000 HD
BRANCH   4  13
ATOM     12  N   UNL     1      44.548   2.303   9.969  0.00  0.00    +0.000 N 
ATOM     13  C   UNL     1      43.930   2.887  11.041  0.00  0.00    +0.000 C 
ATOM     14  O   UNL     1      42.929   2.400  11.545  0.00  0.00    +0.000 OA
ATOM     15  H   UNL     1      44.173   1.419   9.652  0.00  0.00    +0.000 HD
ATOM     16  H   UNL     1      45.493   2.533   9.692  0.00  0.00    +0.000 HD
ENDBRANCH   4  13
ENDBRANCH   1   8
BRANCH   1  17
ATOM     17  C   UNL     1      48.515   7.750  13.812  0.00  0.00    +0.000 A 
ATOM     18  C   UNL     1      49.790   8.331  13.744  0.00  0.00    +0.000 A 
ATOM     19  C   UNL     1      50.802   7.956  14.625  0.00  0.00    +0.000 A 
ATOM     20  C   UNL     1      50.549   6.999  15.605  0.00  0.00    +0.000 A 
ATOM     21  C   UNL     1      49.292   6.380  15.711  0.00  0.00    +0.000 A 
ATOM     22  C   UNL     1      48.310   6.741  14.772  0.00  0.00    +0.000 A 
BRANCH  21  23
ATOM     23  C   UNL     1      48.971   5.491  16.842  0.00  0.00    +0.000 A 
ATOM     24  C   UNL     1      49.632   5.548  18.074  0.00  0.00    +0.000 A 
ATOM     25  N   UNL     1      49.422   4.700  19.114  0.00  0.00    +0.000 NA
ATOM     26  C   UNL     1      48.490   3.739  18.923  0.00  0.00    +0.000 A 
ATOM     27  C   UNL     1      47.772   3.598  17.753  0.00  0.00    +0.000 A 
ATOM     28  F   UNL     1      46.866   2.623  17.616  0.00  0.00    +0.000 F 
ATOM     29  C   UNL     1      48.015   4.473  16.706  0.00  0.00    +0.000 A 
ENDBRANCH  21  23
ENDBRANCH   1  17
TORSDOF 4
ENDMDL
MODEL 7
REMARK VINA RESULT:    -7.008      3.020      3.646
REMARK INTER + INTRA:          -9.200
REMARK INTER:                  -9.239
REMARK INTRA:                   0.040
REMARK UNBOUND:                -0.553
REMARK  Name = 
REMARK  4 active torsions:
REMARK  status: ('A' for Active; 'I' for Inactive)
REMARK    1  A    between atoms: C_2  and  C_4
REMARK    2  A    between atoms: N_8  and  C_9
REMARK    3  A    between atoms: C_9  and  C_10
REMARK    4  A    between atoms: C_14  and  C_15
REMARK                            x       y       z     vdW  Elec       q    Type
REMARK                         _______ _______ _______ _____ _____    ______ ____
ROOT
ATOM      1  C   UNL     1      44.007   4.137  11.810  0.00  0.00    +0.000 C 
ATOM      2  C   UNL     1      44.835   3.437  12.880  0.00  0.00    +0.000 C 
ATOM      3  C   UNL     1      43.415   3.795  13.162  0.00  0.00    +0.000 C 
ENDROOT
BRANCH   1   8
ATOM      4  C   UNL     1      46.416   2.990   7.333  0.00  0.00    +0.000 A 
ATOM      5  C   UNL     1      46.308   4.226   7.962  0.00  0.00    +0.000 A 
ATOM      6  C   UNL     1      45.466   4.357   9.073  0.00  0.00    +0.000 A 
ATOM      7  C   UNL     1      44.763   3.258   9.533  0.00  0.00    +0.000 A 
ATOM      8  N   UNL     1      43.839   3.328  10.585  0.00  0.00    +0.000 N 
ATOM      9  N   UNL     1      44.844   2.054   8.918  0.00  0.00    +0.000 NA
ATOM     10  C   UNL     1      45.657   1.945   7.828  0.00  0.00    +0.000 A 
ATOM     11  H   UNL     1      43.548   2.365  10.741  0.00  0.00    +0.000 HD
BRANCH   4  13
ATOM     12  N   UNL     1      48.588   2.496   6.375  0.00  0.00    +0.000 N 
ATOM     13  C   UNL     1      47.271   2.784   6.144  0.00  0.00    +0.000 C 
ATOM     14  O   UNL     1      46.820   2.847   5.010  0.00  0.00    +0.000 OA
ATOM     15  H   UNL     1      49.156   2.279   5.567  0.00  0.00    +0.000 HD
ATOM     16  H   UNL     1      48.931   2.197   7.278  0.00  0.00    +0.000 HD
ENDBRANCH   4  13
ENDBRANCH   1   8
BRANCH   1  17
ATOM     17  C   UNL     1      44.251   5.609  11.506  0.00  0.00    +0.000 A 
ATOM     18  C   UNL     1      43.203   6.483  11.181  0.00  0.00    +0.000 A 
ATOM     19  C   UNL     1      43.412   7.857  11.087  0.00  0.00    +0.000 A 
ATOM     20  C   UNL     1      44.678   8.384  11.333  0.00  0.00    +0.000 A 
ATOM     21  C   UNL     1      45.764   7.553  11.654  0.00  0.00    +0.000 A 
ATOM     22  C   UNL     1      45.532   6.166  11.687  0.00  0.00    +0.000 A 
BRANCH  21  23
ATOM     23  C   UNL     1      47.060   8.115  12.072  0.00  0.00    +0.000 A 
ATOM     24  C   UNL     1      47.180   9.301  12.805  0.00  0.00    +0.000 A 
ATOM     25  N   UNL     1      48.354   9.895  13.145  0.00  0.00    +0.000 NA
ATOM     26  C   UNL     1      49.481   9.267  12.739  0.00  0.00    +0.000 A 
ATOM     27  C   UNL     1      49.478   8.088  12.022  0.00  0.00    +0.000 A 
ATOM     28  F   UNL     1      50.625   7.513  11.639  0.00  0.00    +0.000 F 
ATOM     29  C   UNL     1      48.265   7.511  11.682  0.00  0.00    +0.000 A 
ENDBRANCH  21  23
ENDBRANCH   1  17
TORSDOF 4
ENDMDL
MODEL 8
REMARK VINA RESULT:    -7.002      3.797      5.474
REMARK INTER + INTRA:          -9.192
REMARK INTER:                  -8.151
REMARK INTRA:                  -1.040
REMARK UNBOUND:                -0.553
REMARK  Name = 
REMARK  4 active torsions:
REMARK  status: ('A' for Active; 'I' for Inactive)
REMARK    1  A    between atoms: C_2  and  C_4
REMARK    2  A    between atoms: N_8  and  C_9
REMARK    3  A    between atoms: C_9  and  C_10
REMARK    4  A    between atoms: C_14  and  C_15
REMARK                            x       y       z     vdW  Elec       q    Type
REMARK                         _______ _______ _______ _____ _____    ______ ____
ROOT
ATOM      1  C   UNL     1      48.996   8.345  12.693  0.00  0.00    +0.000 C 
ATOM      2  C   UNL     1      49.853   9.388  11.988  0.00  0.00    +0.000 C 
ATOM      3  C   UNL     1      50.281   7.959  11.989  0.00  0.00    +0.000 C 
ENDROOT
BRANCH   1   8
ATOM      4  C   UNL     1      44.812   5.238  12.776  0.00  0.00    +0.000 A 
ATOM      5  C   UNL     1      46.154   4.876  12.745  0.00  0.00    +0.000 A 
ATOM      6  C   UNL     1      47.126   5.864  12.548  0.00  0.00    +0.000 A 
ATOM      7  C   UNL     1      46.739   7.184  12.396  0.00  0.00    +0.000 A 
ATOM      8  N   UNL     1      47.643   8.217  12.111  0.00  0.00    +0.000 N 
ATOM      9  N   UNL     1      45.434   7.547  12.404  0.00  0.00    +0.000 NA
ATOM     10  C   UNL     1      44.499   6.572  12.582  0.00  0.00    +0.000 A 
ATOM     11  H   UNL     1      47.083   9.067  12.133  0.00  0.00    +0.000 HD
BRANCH   4  13
ATOM     12  N   UNL     1      44.029   2.947  12.644  0.00  0.00    +0.000 N 
ATOM     13  C   UNL     1      43.733   4.244  12.962  0.00  0.00    +0.000 C 
ATOM     14  O   UNL     1      42.636   4.560  13.400  0.00  0.00    +0.000 OA
ATOM     15  H   UNL     1      43.319   2.255  12.844  0.00  0.00    +0.000 HD
ATOM     16  H   UNL     1      44.977   2.618  12.521  0.00  0.00    +0.000 HD
ENDBRANCH   4  13
ENDBRANCH   1   8
BRANCH   1  17
ATOM     17  C   UNL     1      48.983   8.276  14.214  0.00  0.00    +0.000 A 
ATOM     18  C   UNL     1      48.545   9.351  15.003  0.00  0.00    +0.000 A 
ATOM     19  C   UNL     1      48.364   9.211  16.376  0.00  0.00    +0.000 A 
ATOM     20  C   UNL     1      48.605   7.982  16.986  0.00  0.00    +0.000 A 
ATOM     21  C   UNL     1      49.052   6.876  16.245  0.00  0.00    +0.000 A 
ATOM     22  C   UNL     1      49.277   7.065  14.870  0.00  0.00    +0.000 A 
BRANCH  21  23
ATOM     23  C   UNL     1      49.151   5.537  16.852  0.00  0.00    +0.000 A 
ATOM     24  C   UNL     1      50.356   4.988  17.304  0.00  0.00    +0.000 A 
ATOM     25  N   UNL     1      50.506   3.731  17.799  0.00  0.00    +0.000 NA
ATOM     26  C   UNL     1      49.387   2.974  17.857  0.00  0.00    +0.000 A 
ATOM     27  C   UNL     1      48.146   3.419  17.448  0.00  0.00    +0.000 A 
ATOM     28  F   UNL     1      47.072   2.624  17.522  0.00  0.00    +0.000 F 
ATOM     29  C   UNL     1      48.026   4.702  16.940  0.00  0.00    +0.000 A 
ENDBRANCH  21  23
ENDBRANCH   1  17
TORSDOF 4
ENDMDL
