MODEL 1
REMARK VINA RESULT:    -9.209      0.000      0.000
REMARK INTER + INTRA:         -13.946
REMARK INTER:                 -12.977
REMARK INTRA:                  -0.969
REMARK UNBOUND:                -0.969
REMARK  Name = 
REMARK  7 active torsions:
REMARK  status: ('A' for Active; 'I' for Inactive)
REMARK    1  A    between atoms: C_2  and  C_4
REMARK    2  A    between atoms: C_7  and  O_8
REMARK    3  A    between atoms: O_8  and  C_9
REMARK    4  A    between atoms: C_9  and  C_10
REMARK    5  A    between atoms: C_10  and  C_13
REMARK    6  A    between atoms: C_17  and  O_18
REMARK    7  A    between atoms: O_18  and  C_19
REMARK                            x       y       z     vdW  Elec       q    Type
REMARK                         _______ _______ _______ _____ _____    ______ ____
ROOT
ATOM      1  C   UNL     1      43.609   5.395  12.176  0.00  0.00    +0.000 C 
ATOM      2  F   UNL     1      43.290   6.533  11.492  0.00  0.00    +0.000 F 
ATOM      3  F   UNL     1      42.747   5.348  13.234  0.00  0.00    +0.000 F 
ENDROOT
BRANCH   1   4
ATOM      4  C   UNL     1      45.053   5.401  12.632  0.00  0.00    +0.000 A 
ATOM      5  C   UNL     1      45.944   6.387  12.197  0.00  0.00    +0.000 A 
ATOM      6  C   UNL     1      47.267   6.313  12.606  0.00  0.00    +0.000 A 
ATOM      7  N   UNL     1      47.762   5.320  13.378  0.00  0.00    +0.000 NA
ATOM      8  C   UNL     1      46.884   4.388  13.797  0.00  0.00    +0.000 A 
ATOM      9  C   UNL     1      45.537   4.394  13.475  0.00  0.00    +0.000 A 
BRANCH   8  10
ATOM     10  O   UNL     1      47.335   3.334  14.566  0.00  0.00    +0.000 OA
BRANCH  10  11
ATOM     11  C   UNL     1      47.708   3.662  15.919  0.00  0.00    +0.000 C 
ATOM     12  C   UNL     1      48.484   2.592  16.706  0.00  0.00    +0.000 C 
ATOM     13  C   UNL     1      47.423   2.806  17.776  0.00  0.00    +0.000 C 
ATOM     14  O   UNL     1      46.590   3.542  16.852  0.00  0.00    +0.000 OA
ENDBRANCH  10  11
ENDBRANCH   8  10
ENDBRANCH   1   4
BRANCH   1  15
ATOM     15  C   UNL     1      43.339   4.181  11.263  0.00  0.00    +0.000 C 
BRANCH  15  16
ATOM     16  O   UNL     1      43.518   4.544   9.885  0.00  0.00    +0.000 OA
BRANCH  16  20
ATOM     17  C   UNL     1      46.317   2.269   7.921  0.00  0.00    +0.000 A 
ATOM     18  C   UNL     1      46.340   3.636   7.668  0.00  0.00    +0.000 A 
ATOM     19  C   UNL     1      45.410   4.453   8.311  0.00  0.00    +0.000 A 
ATOM     20  C   UNL     1      44.488   3.885   9.187  0.00  0.00    +0.000 A 
ATOM     21  C   UNL     1      44.548   2.504   9.377  0.00  0.00    +0.000 A 
ATOM     22  N   UNL     1      45.432   1.675   8.766  0.00  0.00    +0.000 NA
BRANCH  17  24
ATOM     23  N   UNL     1      48.336   2.011   6.591  0.00  0.00    +0.000 N 
ATOM     24  C   UNL     1      47.301   1.379   7.228  0.00  0.00    +0.000 C 
ATOM     25  O   UNL     1      47.203   0.159   7.236  0.00  0.00    +0.000 OA
ATOM     26  H   UNL     1      49.058   1.458   6.156  0.00  0.00    +0.000 HD
ATOM     27  H   UNL     1      48.432   3.018   6.666  0.00  0.00    +0.000 HD
ENDBRANCH  17  24
ENDBRANCH  16  20
ENDBRANCH  15  16
ENDBRANCH   1  15
TORSDOF 7
ENDMDL
MODEL 2
REMARK VINA RESULT:    -8.144      2.132      2.384
REMARK INTER + INTRA:         -12.446
REMARK INTER:                 -11.620
REMARK INTRA:                  -0.826
REMARK UNBOUND:                -0.969
REMARK  Name = 
REMARK  7 active torsions:
REMARK  status: ('A' for Active; 'I' for Inactive)
REMARK    1  A    between atoms: C_2  and  C_4
REMARK    2  A    between atoms: C_7  and  O_8
REMARK    3  A    between atoms: O_8  and  C_9
REMARK    4  A    between atoms: C_9  and  C_10
REMARK    5  A    between atoms: C_10  and  C_13
REMARK    6  A    between atoms: C_17  and  O_18
REMARK    7  A    between atoms: O_18  and  C_19
REMARK                            x       y       z     vdW  Elec       q    Type
REMARK                         _______ _______ _______ _____ _____    ______ ____
ROOT
ATOM      1  C   UNL     1      44.180   4.176  12.573  0.00  0.00    +0.000 C 
ATOM      2  F   UNL     1      43.267   4.036  13.579  0.00  0.00    +0.000 F 
ATOM      3  F   UNL     1      44.860   2.993  12.526  0.00  0.00    +0.000 F 
ENDROOT
BRANCH   1   4
ATOM      4  C   UNL     1      45.110   5.345  12.820  0.00  0.00    +0.000 A 
ATOM      5  C   UNL     1      44.731   6.652  12.498  0.00  0.00    +0.000 A 
ATOM      6  C   UNL     1      45.643   7.677  12.698  0.00  0.00    +0.000 A 
ATOM      7  N   UNL     1      46.899   7.487  13.158  0.00  0.00    +0.000 NA
ATOM      8  C   UNL     1      47.240   6.223  13.477  0.00  0.00    +0.000 A 
ATOM      9  C   UNL     1      46.390   5.137  13.348  0.00  0.00    +0.000 A 
BRANCH   8  10
ATOM     10  O   UNL     1      48.519   5.962  13.927  0.00  0.00    +0.000 OA
BRANCH  10  11
ATOM     11  C   UNL     1      48.907   6.643  15.135  0.00  0.00    +0.000 C 
ATOM     12  C   UNL     1      50.227   7.433  15.097  0.00  0.00    +0.000 C 
ATOM     13  C   UNL     1      50.574   6.651  16.354  0.00  0.00    +0.000 C 
ATOM     14  O   UNL     1      49.476   5.737  16.131  0.00  0.00    +0.000 OA
ENDBRANCH  10  11
ENDBRANCH   8  10
ENDBRANCH   1   4
BRANCH   1  15
ATOM     15  C   UNL     1      43.421   4.365  11.244  0.00  0.00    +0.000 C 
BRANCH  15  16
ATOM     16  O   UNL     1      43.491   3.168  10.455  0.00  0.00    +0.000 OA
BRANCH  16  20
ATOM     17  C   UNL     1      46.410   2.645   7.614  0.00  0.00    +0.000 A 
ATOM     18  C   UNL     1      45.961   3.946   7.810  0.00  0.00    +0.000 A 
ATOM     19  C   UNL     1      44.969   4.177   8.765  0.00  0.00    +0.000 A 
ATOM     20  C   UNL     1      44.459   3.107   9.496  0.00  0.00    +0.000 A 
ATOM     21  C   UNL     1      44.978   1.840   9.228  0.00  0.00    +0.000 A 
ATOM     22  N   UNL     1      45.936   1.574   8.304  0.00  0.00    +0.000 NA
BRANCH  17  24
ATOM     23  N   UNL     1      47.415   3.165   5.462  0.00  0.00    +0.000 N 
ATOM     24  C   UNL     1      47.464   2.381   6.584  0.00  0.00    +0.000 C 
ATOM     25  O   UNL     1      48.329   1.527   6.732  0.00  0.00    +0.000 OA
ATOM     26  H   UNL     1      48.133   3.069   4.762  0.00  0.00    +0.000 HD
ATOM     27  H   UNL     1      46.733   3.915   5.402  0.00  0.00    +0.000 HD
ENDBRANCH  17  24
ENDBRANCH  16  20
ENDBRANCH  15  16
ENDBRANCH   1  15
TORSDOF 7
ENDMDL
MODEL 3
REMARK VINA RESULT:    -8.037      2.107      3.494
REMARK INTER + INTRA:         -12.295
REMARK INTER:                 -11.310
REMARK INTRA:                  -0.986
REMARK UNBOUND:                -0.969
REMARK  Name = 
REMARK  7 active torsions:
REMARK  status: ('A' for Active; 'I' for Inactive)
REMARK    1  A    between atoms: C_2  and  C_4
REMARK    2  A    between atoms: C_7  and  O_8
REMARK    3  A    between atoms: O_8  and  C_9
REMARK    4  A    between atoms: C_9  and  C_10
REMARK    5  A    between atoms: C_10  and  C_13
REMARK    6  A    between atoms: C_17  and  O_18
REMARK    7  A    between atoms: O_18  and  C_19
REMARK                            x       y       z     vdW  Elec       q    Type
REMARK                         _______ _______ _______ _____ _____    ______ ____
ROOT
ATOM      1  C   UNL     1      43.585   4.621  12.496  0.00  0.00    +0.000 C 
ATOM      2  F   UNL     1      42.756   5.490  13.146  0.00  0.00    +0.000 F 
ATOM      3  F   UNL     1      43.149   3.373  12.835  0.00  0.00    +0.000 F 
ENDROOT
BRANCH   1   4
ATOM      4  C   UNL     1      45.033   4.831  12.886  0.00  0.00    +0.000 A 
ATOM      5  C   UNL     1      45.838   3.759  13.284  0.00  0.00    +0.000 A 
ATOM      6  C   UNL     1      47.142   4.018  13.679  0.00  0.00    +0.000 A 
ATOM      7  N   UNL     1      47.679   5.257  13.737  0.00  0.00    +0.000 NA
ATOM      8  C   UNL     1      46.892   6.274  13.335  0.00  0.00    +0.000 A 
ATOM      9  C   UNL     1      45.590   6.116  12.889  0.00  0.00    +0.000 A 
BRANCH   8  10
ATOM     10  O   UNL     1      47.375   7.566  13.397  0.00  0.00    +0.000 OA
BRANCH  10  11
ATOM     11  C   UNL     1      47.629   8.200  12.128  0.00  0.00    +0.000 C 
ATOM     12  C   UNL     1      49.101   8.382  11.722  0.00  0.00    +0.000 C 
ATOM     13  C   UNL     1      48.715   9.834  11.486  0.00  0.00    +0.000 C 
ATOM     14  O   UNL     1      47.462   9.650  12.183  0.00  0.00    +0.000 OA
ENDBRANCH  10  11
ENDBRANCH   8  10
ENDBRANCH   1   4
BRANCH   1  15
ATOM     15  C   UNL     1      43.405   4.813  10.977  0.00  0.00    +0.000 C 
BRANCH  15  16
ATOM     16  O   UNL     1      43.458   3.546  10.303  0.00  0.00    +0.000 OA
BRANCH  16  20
ATOM     17  C   UNL     1      46.438   2.667   7.619  0.00  0.00    +0.000 A 
ATOM     18  C   UNL     1      46.063   4.002   7.713  0.00  0.00    +0.000 A 
ATOM     19  C   UNL     1      45.055   4.354   8.612  0.00  0.00    +0.000 A 
ATOM     20  C   UNL     1      44.453   3.366   9.389  0.00  0.00    +0.000 A 
ATOM     21  C   UNL     1      44.903   2.056   9.223  0.00  0.00    +0.000 A 
ATOM     22  N   UNL     1      45.874   1.673   8.356  0.00  0.00    +0.000 NA
BRANCH  17  24
ATOM     23  N   UNL     1      47.499   2.930   5.446  0.00  0.00    +0.000 N 
ATOM     24  C   UNL     1      47.509   2.274   6.649  0.00  0.00    +0.000 C 
ATOM     25  O   UNL     1      48.355   1.429   6.911  0.00  0.00    +0.000 OA
ATOM     26  H   UNL     1      48.232   2.745   4.779  0.00  0.00    +0.000 HD
ATOM     27  H   UNL     1      46.833   3.678   5.288  0.00  0.00    +0.000 HD
ENDBRANCH  17  24
ENDBRANCH  16  20
ENDBRANCH  15  16
ENDBRANCH   1  15
TORSDOF 7
ENDMDL
MODEL 4
REMARK VINA RESULT:    -7.634      2.238      7.094
REMARK INTER + INTRA:         -11.727
REMARK INTER:                 -10.834
REMARK INTRA:                  -0.893
REMARK UNBOUND:                -0.969
REMARK  Name = 
REMARK  7 active torsions:
REMARK  status: ('A' for Active; 'I' for Inactive)
REMARK    1  A    between atoms: C_2  and  C_4
REMARK    2  A    between atoms: C_7  and  O_8
REMARK    3  A    between atoms: O_8  and  C_9
REMARK    4  A    between atoms: C_9  and  C_10
REMARK    5  A    between atoms: C_10  and  C_13
REMARK    6  A    between atoms: C_17  and  O_18
REMARK    7  A    between atoms: O_18  and  C_19
REMARK                            x       y       z     vdW  Elec       q    Type
REMARK                         _______ _______ _______ _____ _____    ______ ____
ROOT
ATOM      1  C   UNL     1      45.541   6.605  11.360  0.00  0.00    +0.000 C 
ATOM      2  F   UNL     1      44.829   7.659  10.862  0.00  0.00    +0.000 F 
ATOM      3  F   UNL     1      46.726   6.608  10.682  0.00  0.00    +0.000 F 
ENDROOT
BRANCH   1   4
ATOM      4  C   UNL     1      44.800   5.296  11.182  0.00  0.00    +0.000 A 
ATOM      5  C   UNL     1      43.955   4.802  12.181  0.00  0.00    +0.000 A 
ATOM      6  C   UNL     1      43.343   3.574  11.985  0.00  0.00    +0.000 A 
ATOM      7  N   UNL     1      43.539   2.800  10.895  0.00  0.00    +0.000 NA
ATOM      8  C   UNL     1      44.345   3.300   9.938  0.00  0.00    +0.000 A 
ATOM      9  C   UNL     1      44.973   4.532  10.022  0.00  0.00    +0.000 A 
BRANCH   8  10
ATOM     10  O   UNL     1      44.606   2.544   8.813  0.00  0.00    +0.000 OA
BRANCH  10  11
ATOM     11  C   UNL     1      45.987   2.191   8.603  0.00  0.00    +0.000 C 
ATOM     12  C   UNL     1      46.610   2.587   7.254  0.00  0.00    +0.000 C 
ATOM     13  C   UNL     1      47.038   1.129   7.178  0.00  0.00    +0.000 C 
ATOM     14  O   UNL     1      46.159   0.778   8.271  0.00  0.00    +0.000 OA
ENDBRANCH  10  11
ENDBRANCH   8  10
ENDBRANCH   1   4
BRANCH   1  15
ATOM     15  C   UNL     1      45.822   6.864  12.854  0.00  0.00    +0.000 C 
BRANCH  15  16
ATOM     16  O   UNL     1      47.204   6.612  13.152  0.00  0.00    +0.000 OA
BRANCH  16  20
ATOM     17  C   UNL     1      47.864   4.006  16.256  0.00  0.00    +0.000 A 
ATOM     18  C   UNL     1      48.380   5.288  16.404  0.00  0.00    +0.000 A 
ATOM     19  C   UNL     1      48.182   6.213  15.377  0.00  0.00    +0.000 A 
ATOM     20  C   UNL     1      47.476   5.832  14.238  0.00  0.00    +0.000 A 
ATOM     21  C   UNL     1      46.996   4.523  14.187  0.00  0.00    +0.000 A 
ATOM     22  N   UNL     1      47.173   3.593  15.160  0.00  0.00    +0.000 NA
BRANCH  17  24
ATOM     23  N   UNL     1      46.949   2.514  17.945  0.00  0.00    +0.000 N 
ATOM     24  C   UNL     1      48.081   3.000  17.344  0.00  0.00    +0.000 C 
ATOM     25  O   UNL     1      49.196   2.619  17.675  0.00  0.00    +0.000 OA
ATOM     26  H   UNL     1      47.033   1.793  18.644  0.00  0.00    +0.000 HD
ATOM     27  H   UNL     1      46.037   2.792  17.597  0.00  0.00    +0.000 HD
ENDBRANCH  17  24
ENDBRANCH  16  20
ENDBRANCH  15  16
ENDBRANCH   1  15
TORSDOF 7
ENDMDL
MODEL 5
REMARK VINA RESULT:    -7.256      2.103      2.489
REMARK INTER + INTRA:         -11.194
REMARK INTER:                 -10.739
REMARK INTRA:                  -0.455
REMARK UNBOUND:                -0.969
REMARK  Name = 
REMARK  7 active torsions:
REMARK  status: ('A' for Active; 'I' for Inactive)
REMARK    1  A    between atoms: C_2  and  C_4
REMARK    2  A    between atoms: C_7  and  O_8
REMARK    3  A    between atoms: O_8  and  C_9
REMARK    4  A    between atoms: C_9  and  C_10
REMARK    5  A    between atoms: C_10  and  C_13
REMARK    6  A    between atoms: C_17  and  O_18
REMARK    7  A    between atoms: O_18  and  C_19
REMARK                            x       y       z     vdW  Elec       q    Type
REMARK                         _______ _______ _______ _____ _____    ______ ____
ROOT
ATOM      1  C   UNL     1      45.197   5.931  11.384  0.00  0.00    +0.000 C 
ATOM      2  F   UNL     1      45.895   6.116  10.224  0.00  0.00    +0.000 F 
ATOM      3  F   UNL     1      44.671   7.152  11.695  0.00  0.00    +0.000 F 
ENDROOT
BRANCH   1   4
ATOM      4  C   UNL     1      46.084   5.407  12.493  0.00  0.00    +0.000 A 
ATOM      5  C   UNL     1      46.065   4.056  12.857  0.00  0.00    +0.000 A 
ATOM      6  C   UNL     1      46.861   3.642  13.915  0.00  0.00    +0.000 A 
ATOM      7  N   UNL     1      47.635   4.475  14.645  0.00  0.00    +0.000 NA
ATOM      8  C   UNL     1      47.649   5.769  14.270  0.00  0.00    +0.000 A 
ATOM      9  C   UNL     1      46.921   6.274  13.206  0.00  0.00    +0.000 A 
BRANCH   8  10
ATOM     10  O   UNL     1      48.400   6.673  14.995  0.00  0.00    +0.000 OA
BRANCH  10  11
ATOM     11  C   UNL     1      49.278   6.104  15.985  0.00  0.00    +0.000 C 
ATOM     12  C   UNL     1      49.251   6.737  17.387  0.00  0.00    +0.000 C 
ATOM     13  C   UNL     1      50.761   6.822  17.229  0.00  0.00    +0.000 C 
ATOM     14  O   UNL     1      50.665   6.532  15.816  0.00  0.00    +0.000 OA
ENDBRANCH  10  11
ENDBRANCH   8  10
ENDBRANCH   1   4
BRANCH   1  15
ATOM     15  C   UNL     1      44.041   4.947  11.110  0.00  0.00    +0.000 C 
BRANCH  15  16
ATOM     16  O   UNL     1      43.852   4.782   9.696  0.00  0.00    +0.000 OA
BRANCH  16  20
ATOM     17  C   UNL     1      46.271   1.960   7.950  0.00  0.00    +0.000 A 
ATOM     18  C   UNL     1      46.355   3.250   7.439  0.00  0.00    +0.000 A 
ATOM     19  C   UNL     1      45.553   4.246   7.999  0.00  0.00    +0.000 A 
ATOM     20  C   UNL     1      44.696   3.928   9.049  0.00  0.00    +0.000 A 
ATOM     21  C   UNL     1      44.688   2.605   9.493  0.00  0.00    +0.000 A 
ATOM     22  N   UNL     1      45.445   1.607   8.971  0.00  0.00    +0.000 NA
BRANCH  17  24
ATOM     23  N   UNL     1      46.792  -0.404   7.712  0.00  0.00    +0.000 N 
ATOM     24  C   UNL     1      47.115   0.878   7.350  0.00  0.00    +0.000 C 
ATOM     25  O   UNL     1      48.031   1.113   6.573  0.00  0.00    +0.000 OA
ATOM     26  H   UNL     1      47.291  -1.174   7.294  0.00  0.00    +0.000 HD
ATOM     27  H   UNL     1      45.980  -0.571   8.297  0.00  0.00    +0.000 HD
ENDBRANCH  17  24
ENDBRANCH  16  20
ENDBRANCH  15  16
ENDBRANCH   1  15
TORSDOF 7
ENDMDL
MODEL 6
REMARK VINA RESULT:    -7.208      3.151      5.088
REMARK INTER + INTRA:         -11.126
REMARK INTER:                 -10.320
REMARK INTRA:                  -0.806
REMARK UNBOUND:                -0.969
REMARK  Name = 
REMARK  7 active torsions:
REMARK  status: ('A' for Active; 'I' for Inactive)
REMARK    1  A    between atoms: C_2  and  C_4
REMARK    2  A    between atoms: C_7  and  O_8
REMARK    3  A    between atoms: O_8  and  C_9
REMARK    4  A    between atoms: C_9  and  C_10
REMARK    5  A    between atoms: C_10  and  C_13
REMARK    6  A    between atoms: C_17  and  O_18
REMARK    7  A    between atoms: O_18  and  C_19
REMARK                            x       y       z     vdW  Elec       q    Type
REMARK                         _______ _______ _______ _____ _____    ______ ____
ROOT
ATOM      1  C   UNL     1      45.105   5.427  12.364  0.00  0.00    +0.000 C 
ATOM      2  F   UNL     1      44.223   5.216  13.386  0.00  0.00    +0.000 F 
ATOM      3  F   UNL     1      45.985   4.384  12.416  0.00  0.00    +0.000 F 
ENDROOT
BRANCH   1   4
ATOM      4  C   UNL     1      45.810   6.760  12.498  0.00  0.00    +0.000 A 
ATOM      5  C   UNL     1      47.023   6.870  13.185  0.00  0.00    +0.000 A 
ATOM      6  C   UNL     1      47.598   8.125  13.321  0.00  0.00    +0.000 A 
ATOM      7  N   UNL     1      47.037   9.264  12.857  0.00  0.00    +0.000 NA
ATOM      8  C   UNL     1      45.875   9.134  12.186  0.00  0.00    +0.000 A 
ATOM      9  C   UNL     1      45.241   7.923  11.965  0.00  0.00    +0.000 A 
BRANCH   8  10
ATOM     10  O   UNL     1      45.241  10.265  11.712  0.00  0.00    +0.000 OA
BRANCH  10  11
ATOM     11  C   UNL     1      43.871  10.087  11.301  0.00  0.00    +0.000 C 
ATOM     12  C   UNL     1      43.493  10.594   9.899  0.00  0.00    +0.000 C 
ATOM     13  C   UNL     1      42.364  11.321  10.616  0.00  0.00    +0.000 C 
ATOM     14  O   UNL     1      42.974  11.071  11.903  0.00  0.00    +0.000 OA
ENDBRANCH  10  11
ENDBRANCH   8  10
ENDBRANCH   1   4
BRANCH   1  15
ATOM     15  C   UNL     1      44.335   5.359  11.029  0.00  0.00    +0.000 C 
BRANCH  15  16
ATOM     16  O   UNL     1      44.171   3.993  10.617  0.00  0.00    +0.000 OA
BRANCH  16  20
ATOM     17  C   UNL     1      46.492   3.037   7.367  0.00  0.00    +0.000 A 
ATOM     18  C   UNL     1      45.975   1.971   8.095  0.00  0.00    +0.000 A 
ATOM     19  C   UNL     1      45.179   2.243   9.209  0.00  0.00    +0.000 A 
ATOM     20  C   UNL     1      44.921   3.565   9.561  0.00  0.00    +0.000 A 
ATOM     21  C   UNL     1      45.482   4.564   8.764  0.00  0.00    +0.000 A 
ATOM     22  N   UNL     1      46.266   4.341   7.679  0.00  0.00    +0.000 NA
BRANCH  17  24
ATOM     23  N   UNL     1      48.656   2.417   6.448  0.00  0.00    +0.000 N 
ATOM     24  C   UNL     1      47.358   2.760   6.177  0.00  0.00    +0.000 C 
ATOM     25  O   UNL     1      46.938   2.821   5.029  0.00  0.00    +0.000 OA
ATOM     26  H   UNL     1      49.268   2.165   5.688  0.00  0.00    +0.000 HD
ATOM     27  H   UNL     1      48.954   2.300   7.411  0.00  0.00    +0.000 HD
ENDBRANCH  17  24
ENDBRANCH  16  20
ENDBRANCH  15  16
ENDBRANCH   1  15
TORSDOF 7
ENDMDL
MODEL 7
REMARK VINA RESULT:    -7.103      2.946      4.105
REMARK INTER + INTRA:         -10.978
REMARK INTER:                 -10.195
REMARK INTRA:                  -0.784
REMARK UNBOUND:                -0.969
REMARK  Name = 
REMARK  7 active torsions:
REMARK  status: ('A' for Active; 'I' for Inactive)
REMARK    1  A    between atoms: C_2  and  C_4
REMARK    2  A    between atoms: C_7  and  O_8
REMARK    3  A    between atoms: O_8  and  C_9
REMARK    4  A    between atoms: C_9  and  C_10
REMARK    5  A    between atoms: C_10  and  C_13
REMARK    6  A    between atoms: C_17  and  O_18
REMARK    7  A    between atoms: O_18  and  C_19
REMARK                            x       y       z     vdW  Elec       q    Type
REMARK                         _______ _______ _______ _____ _____    ______ ____
ROOT
ATOM      1  C   UNL     1      45.067   5.475  12.229  0.00  0.00    +0.000 C 
ATOM      2  F   UNL     1      44.024   5.477  13.110  0.00  0.00    +0.000 F 
ATOM      3  F   UNL     1      45.676   4.263  12.384  0.00  0.00    +0.000 F 
ENDROOT
BRANCH   1   4
ATOM      4  C   UNL     1      46.024   6.618  12.491  0.00  0.00    +0.000 A 
ATOM      5  C   UNL     1      45.554   7.899  12.797  0.00  0.00    +0.000 A 
ATOM      6  C   UNL     1      46.476   8.920  12.976  0.00  0.00    +0.000 A 
ATOM      7  N   UNL     1      47.811   8.760  12.841  0.00  0.00    +0.000 NA
ATOM      8  C   UNL     1      48.244   7.516  12.560  0.00  0.00    +0.000 A 
ATOM      9  C   UNL     1      47.408   6.424  12.398  0.00  0.00    +0.000 A 
BRANCH   8  10
ATOM     10  O   UNL     1      49.596   7.296  12.382  0.00  0.00    +0.000 OA
BRANCH  10  11
ATOM     11  C   UNL     1      50.218   8.051  11.325  0.00  0.00    +0.000 C 
ATOM     12  C   UNL     1      51.437   7.412  10.638  0.00  0.00    +0.000 C 
ATOM     13  C   UNL     1      52.125   8.738  10.928  0.00  0.00    +0.000 C 
ATOM     14  O   UNL     1      51.066   9.129  11.831  0.00  0.00    +0.000 OA
ENDBRANCH  10  11
ENDBRANCH   8  10
ENDBRANCH   1   4
BRANCH   1  15
ATOM     15  C   UNL     1      44.501   5.566  10.797  0.00  0.00    +0.000 C 
BRANCH  15  16
ATOM     16  O   UNL     1      44.111   4.265  10.331  0.00  0.00    +0.000 OA
BRANCH  16  20
ATOM     17  C   UNL     1      46.644   2.751   7.475  0.00  0.00    +0.000 A 
ATOM     18  C   UNL     1      46.033   1.827   8.315  0.00  0.00    +0.000 A 
ATOM     19  C   UNL     1      45.162   2.290   9.302  0.00  0.00    +0.000 A 
ATOM     20  C   UNL     1      44.926   3.658   9.421  0.00  0.00    +0.000 A 
ATOM     21  C   UNL     1      45.584   4.504   8.528  0.00  0.00    +0.000 A 
ATOM     22  N   UNL     1      46.442   4.093   7.560  0.00  0.00    +0.000 NA
BRANCH  17  24
ATOM     23  N   UNL     1      47.747   3.091   5.335  0.00  0.00    +0.000 N 
ATOM     24  C   UNL     1      47.590   2.269   6.420  0.00  0.00    +0.000 C 
ATOM     25  O   UNL     1      48.202   1.214   6.518  0.00  0.00    +0.000 OA
ATOM     26  H   UNL     1      48.415   2.843   4.621  0.00  0.00    +0.000 HD
ATOM     27  H   UNL     1      47.285   3.994   5.318  0.00  0.00    +0.000 HD
ENDBRANCH  17  24
ENDBRANCH  16  20
ENDBRANCH  15  16
ENDBRANCH   1  15
TORSDOF 7
ENDMDL
MODEL 8
REMARK VINA RESULT:    -7.095      2.261      7.606
REMARK INTER + INTRA:         -10.967
REMARK INTER:                 -10.232
REMARK INTRA:                  -0.736
REMARK UNBOUND:                -0.969
REMARK  Name = 
REMARK  7 active torsions:
REMARK  status: ('A' for Active; 'I' for Inactive)
REMARK    1  A    between atoms: C_2  and  C_4
REMARK    2  A    between atoms: C_7  and  O_8
REMARK    3  A    between atoms: O_8  and  C_9
REMARK    4  A    between atoms: C_9  and  C_10
REMARK    5  A    between atoms: C_10  and  C_13
REMARK    6  A    between atoms: C_17  and  O_18
REMARK    7  A    between atoms: O_18  and  C_19
REMARK                            x       y       z     vdW  Elec       q    Type
REMARK                         _______ _______ _______ _____ _____    ______ ____
ROOT
ATOM      1  C   UNL     1      45.415   6.164  12.079  0.00  0.00    +0.000 C 
ATOM      2  F   UNL     1      44.714   6.233  13.249  0.00  0.00    +0.000 F 
ATOM      3  F   UNL     1      45.252   7.381  11.481  0.00  0.00    +0.000 F 
ENDROOT
BRANCH   1   4
ATOM      4  C   UNL     1      44.921   5.038  11.196  0.00  0.00    +0.000 A 
ATOM      5  C   UNL     1      44.202   3.963  11.729  0.00  0.00    +0.000 A 
ATOM      6  C   UNL     1      43.820   2.934  10.881  0.00  0.00    +0.000 A 
ATOM      7  N   UNL     1      44.130   2.888   9.566  0.00  0.00    +0.000 NA
ATOM      8  C   UNL     1      44.810   3.940   9.070  0.00  0.00    +0.000 A 
ATOM      9  C   UNL     1      45.205   5.031   9.825  0.00  0.00    +0.000 A 
BRANCH   8  10
ATOM     10  O   UNL     1      45.179   3.937   7.739  0.00  0.00    +0.000 OA
BRANCH  10  11
ATOM     11  C   UNL     1      46.503   3.443   7.459  0.00  0.00    +0.000 C 
ATOM     12  C   UNL     1      46.775   2.955   6.026  0.00  0.00    +0.000 C 
ATOM     13  C   UNL     1      47.295   1.693   6.700  0.00  0.00    +0.000 C 
ATOM     14  O   UNL     1      46.714   2.087   7.963  0.00  0.00    +0.000 OA
ENDBRANCH  10  11
ENDBRANCH   8  10
ENDBRANCH   1   4
BRANCH   1  15
ATOM     15  C   UNL     1      46.908   5.971  12.411  0.00  0.00    +0.000 C 
BRANCH  15  16
ATOM     16  O   UNL     1      47.215   6.553  13.687  0.00  0.00    +0.000 OA
BRANCH  16  20
ATOM     17  C   UNL     1      48.603   4.241  16.784  0.00  0.00    +0.000 A 
ATOM     18  C   UNL     1      47.560   3.710  16.034  0.00  0.00    +0.000 A 
ATOM     19  C   UNL     1      47.052   4.457  14.969  0.00  0.00    +0.000 A 
ATOM     20  C   UNL     1      47.600   5.706  14.685  0.00  0.00    +0.000 A 
ATOM     21  C   UNL     1      48.646   6.148  15.494  0.00  0.00    +0.000 A 
ATOM     22  N   UNL     1      49.163   5.456  16.542  0.00  0.00    +0.000 NA
BRANCH  17  24
ATOM     23  N   UNL     1      48.267   3.193  18.953  0.00  0.00    +0.000 N 
ATOM     24  C   UNL     1      49.148   3.456  17.937  0.00  0.00    +0.000 C 
ATOM     25  O   UNL     1      50.305   3.059  17.974  0.00  0.00    +0.000 OA
ATOM     26  H   UNL     1      48.564   2.620  19.727  0.00  0.00    +0.000 HD
ATOM     27  H   UNL     1      47.295   3.469  18.859  0.00  0.00    +0.000 HD
ENDBRANCH  17  24
ENDBRANCH  16  20
ENDBRANCH  15  16
ENDBRANCH   1  15
TORSDOF 7
ENDMDL
MODEL 9
REMARK VINA RESULT:    -6.654      2.381      6.811
REMARK INTER + INTRA:         -10.346
REMARK INTER:                  -9.611
REMARK INTRA:                  -0.736
REMARK UNBOUND:                -0.969
REMARK  Name = 
REMARK  7 active torsions:
REMARK  status: ('A' for Active; 'I' for Inactive)
REMARK    1  A    between atoms: C_2  and  C_4
REMARK    2  A    between atoms: C_7  and  O_8
REMARK    3  A    between atoms: O_8  and  C_9
REMARK    4  A    between atoms: C_9  and  C_10
REMARK    5  A    between atoms: C_10  and  C_13
REMARK    6  A    between atoms: C_17  and  O_18
REMARK    7  A    between atoms: O_18  and  C_19
REMARK                            x       y       z     vdW  Elec       q    Type
REMARK                         _______ _______ _______ _____ _____    ______ ____
ROOT
ATOM      1  C   UNL     1      44.010   3.246  12.288  0.00  0.00    +0.000 C 
ATOM      2  F   UNL     1      43.542   1.983  12.515  0.00  0.00    +0.000 F 
ATOM      3  F   UNL     1      43.028   4.087  12.726  0.00  0.00    +0.000 F 
ENDROOT
BRANCH   1   4
ATOM      4  C   UNL     1      44.327   3.472  10.825  0.00  0.00    +0.000 A 
ATOM      5  C   UNL     1      43.766   4.542  10.121  0.00  0.00    +0.000 A 
ATOM      6  C   UNL     1      44.051   4.669   8.769  0.00  0.00    +0.000 A 
ATOM      7  N   UNL     1      44.818   3.798   8.077  0.00  0.00    +0.000 NA
ATOM      8  C   UNL     1      45.360   2.783   8.777  0.00  0.00    +0.000 A 
ATOM      9  C   UNL     1      45.166   2.589  10.134  0.00  0.00    +0.000 A 
BRANCH   8  10
ATOM     10  O   UNL     1      46.130   1.846   8.118  0.00  0.00    +0.000 OA
BRANCH  10  11
ATOM     11  C   UNL     1      47.204   2.372   7.315  0.00  0.00    +0.000 C 
ATOM     12  C   UNL     1      46.830   2.933   5.932  0.00  0.00    +0.000 C 
ATOM     13  C   UNL     1      47.934   2.023   5.415  0.00  0.00    +0.000 C 
ATOM     14  O   UNL     1      47.994   1.320   6.677  0.00  0.00    +0.000 OA
ENDBRANCH  10  11
ENDBRANCH   8  10
ENDBRANCH   1   4
BRANCH   1  15
ATOM     15  C   UNL     1      45.270   3.464  13.151  0.00  0.00    +0.000 C 
BRANCH  15  16
ATOM     16  O   UNL     1      45.327   4.821  13.618  0.00  0.00    +0.000 OA
BRANCH  16  20
ATOM     17  C   UNL     1      48.687   6.985  12.677  0.00  0.00    +0.000 A 
ATOM     18  C   UNL     1      47.627   7.065  11.781  0.00  0.00    +0.000 A 
ATOM     19  C   UNL     1      46.461   6.349  12.056  0.00  0.00    +0.000 A 
ATOM     20  C   UNL     1      46.387   5.577  13.213  0.00  0.00    +0.000 A 
ATOM     21  C   UNL     1      47.503   5.565  14.050  0.00  0.00    +0.000 A 
ATOM     22  N   UNL     1      48.656   6.242  13.816  0.00  0.00    +0.000 NA
BRANCH  17  24
ATOM     23  N   UNL     1      50.833   7.847  13.430  0.00  0.00    +0.000 N 
ATOM     24  C   UNL     1      49.949   7.738  12.389  0.00  0.00    +0.000 C 
ATOM     25  O   UNL     1      50.191   8.220  11.290  0.00  0.00    +0.000 OA
ATOM     26  H   UNL     1      51.723   8.294  13.275  0.00  0.00    +0.000 HD
ATOM     27  H   UNL     1      50.639   7.372  14.306  0.00  0.00    +0.000 HD
ENDBRANCH  17  24
ENDBRANCH  16  20
ENDBRANCH  15  16
ENDBRANCH   1  15
TORSDOF 7
ENDMDL
