MODEL 1
REMARK VINA RESULT:    -9.226      0.000      0.000
REMARK INTER + INTRA:         -13.293
REMARK INTER:                 -12.462
REMARK INTRA:                  -0.832
REMARK UNBOUND:                -0.832
REMARK  Name = 
REMARK  9 active torsions:
REMARK  status: ('A' for Active; 'I' for Inactive)
REMARK    1  A    between atoms: C_1  and  O_2
REMARK    2  A    between atoms: O_2  and  C_3
REMARK    3  A    between atoms: C_6  and  C_7
REMARK    4  A    between atoms: C_7  and  C_8
REMARK    5  A    between atoms: C_7  and  C_9
REMARK    6  A    between atoms: C_7  and  C_10
REMARK    7  A    between atoms: C_10  and  N_11
REMARK    8  A    between atoms: C_15  and  C_16
REMARK    9  A    between atoms: C_22  and  C_23
REMARK                            x       y       z     vdW  Elec       q    Type
REMARK                         _______ _______ _______ _____ _____    ______ ____
ROOT
ATOM      1  C   UNL     1      43.653   5.501  11.949  0.00  0.00    +0.000 C 
ATOM      2  C   UNL     1      42.909   5.114  13.247  0.00  0.00    +0.000 C 
ATOM      3  C   UNL     1      43.039   6.824  11.415  0.00  0.00    +0.000 C 
ENDROOT
BRANCH   1   7
ATOM      4  C   UNL     1      47.864   6.258  12.931  0.00  0.00    +0.000 A 
ATOM      5  C   UNL     1      47.291   6.805  11.779  0.00  0.00    +0.000 A 
ATOM      6  C   UNL     1      45.953   6.573  11.461  0.00  0.00    +0.000 A 
ATOM      7  C   UNL     1      45.147   5.746  12.248  0.00  0.00    +0.000 A 
ATOM      8  C   UNL     1      45.751   5.168  13.383  0.00  0.00    +0.000 A 
ATOM      9  C   UNL     1      47.082   5.444  13.784  0.00  0.00    +0.000 A 
BRANCH   9  10
ATOM     10  C   UNL     1      47.559   4.960  15.111  0.00  0.00    +0.000 A 
ATOM     11  C   UNL     1      48.213   5.798  16.032  0.00  0.00    +0.000 A 
ATOM     12  C   UNL     1      48.520   5.363  17.326  0.00  0.00    +0.000 A 
ATOM     13  C   UNL     1      48.217   4.063  17.701  0.00  0.00    +0.000 A 
ATOM     14  F   UNL     1      48.486   3.653  18.948  0.00  0.00    +0.000 F 
ATOM     15  C   UNL     1      47.631   3.185  16.805  0.00  0.00    +0.000 A 
ATOM     16  C   UNL     1      47.300   3.633  15.522  0.00  0.00    +0.000 A 
ENDBRANCH   9  10
BRANCH   4  18
ATOM     17  C   UNL     1      49.615   7.861  13.231  0.00  0.00    +0.000 C 
ATOM     18  O   UNL     1      49.158   6.518  13.309  0.00  0.00    +0.000 OA
ENDBRANCH   4  18
ENDBRANCH   1   7
BRANCH   1  19
ATOM     19  C   UNL     1      43.362   4.428  10.845  0.00  0.00    +0.000 C 
BRANCH  19  20
ATOM     20  N   UNL     1      43.928   4.767   9.548  0.00  0.00    +0.000 N 
ATOM     21  C   UNL     1      44.887   3.993   8.938  0.00  0.00    +0.000 A 
ATOM     22  C   UNL     1      45.049   2.617   9.131  0.00  0.00    +0.000 A 
ATOM     23  N   UNL     1      45.960   1.852   8.474  0.00  0.00    +0.000 NA
ATOM     24  C   UNL     1      46.713   2.537   7.571  0.00  0.00    +0.000 A 
ATOM     25  C   UNL     1      46.565   3.896   7.359  0.00  0.00    +0.000 A 
ATOM     26  N   UNL     1      45.657   4.644   8.040  0.00  0.00    +0.000 NA
ATOM     27  H   UNL     1      44.097   5.747   9.338  0.00  0.00    +0.000 HD
BRANCH  24  28
ATOM     28  C   UNL     1      47.719   1.765   6.791  0.00  0.00    +0.000 C 
ATOM     29  N   UNL     1      48.648   2.513   6.124  0.00  0.00    +0.000 N 
ATOM     30  O   UNL     1      47.715   0.541   6.747  0.00  0.00    +0.000 OA
ATOM     31  H   UNL     1      48.614   3.525   6.169  0.00  0.00    +0.000 HD
ATOM     32  H   UNL     1      49.353   2.049   5.564  0.00  0.00    +0.000 HD
ENDBRANCH  24  28
ENDBRANCH  19  20
ENDBRANCH   1  19
TORSDOF 6
ENDMDL
MODEL 2
REMARK VINA RESULT:    -8.641      2.650      3.452
REMARK INTER + INTRA:         -12.504
REMARK INTER:                 -11.345
REMARK INTRA:                  -1.159
REMARK UNBOUND:                -0.832
REMARK  Name = 
REMARK  9 active torsions:
REMARK  status: ('A' for Active; 'I' for Inactive)
REMARK    1  A    between atoms: C_1  and  O_2
REMARK    2  A    between atoms: O_2  and  C_3
REMARK    3  A    between atoms: C_6  and  C_7
REMARK    4  A    between atoms: C_7  and  C_8
REMARK    5  A    between atoms: C_7  and  C_9
REMARK    6  A    between atoms: C_7  and  C_10
REMARK    7  A    between atoms: C_10  and  N_11
REMARK    8  A    between atoms: C_15  and  C_16
REMARK    9  A    between atoms: C_22  and  C_23
REMARK                            x       y       z     vdW  Elec       q    Type
REMARK                         _______ _______ _______ _____ _____    ______ ____
ROOT
ATOM      1  C   UNL     1      44.088   4.915  12.146  0.00  0.00    +0.000 C 
ATOM      2  C   UNL     1      45.143   3.865  12.559  0.00  0.00    +0.000 C 
ATOM      3  C   UNL     1      43.036   5.019  13.285  0.00  0.00    +0.000 C 
ENDROOT
BRANCH   1   7
ATOM      4  C   UNL     1      46.032   8.834  11.796  0.00  0.00    +0.000 A 
ATOM      5  C   UNL     1      44.656   8.700  11.593  0.00  0.00    +0.000 A 
ATOM      6  C   UNL     1      44.029   7.460  11.706  0.00  0.00    +0.000 A 
ATOM      7  C   UNL     1      44.753   6.295  11.973  0.00  0.00    +0.000 A 
ATOM      8  C   UNL     1      46.147   6.440  12.134  0.00  0.00    +0.000 A 
ATOM      9  C   UNL     1      46.808   7.693  12.108  0.00  0.00    +0.000 A 
BRANCH   9  10
ATOM     10  C   UNL     1      48.244   7.768  12.503  0.00  0.00    +0.000 A 
ATOM     11  C   UNL     1      49.281   7.925  11.564  0.00  0.00    +0.000 A 
ATOM     12  C   UNL     1      50.603   8.140  11.966  0.00  0.00    +0.000 A 
ATOM     13  C   UNL     1      50.916   8.155  13.316  0.00  0.00    +0.000 A 
ATOM     14  F   UNL     1      52.177   8.387  13.703  0.00  0.00    +0.000 F 
ATOM     15  C   UNL     1      49.937   7.940  14.273  0.00  0.00    +0.000 A 
ATOM     16  C   UNL     1      48.611   7.755  13.868  0.00  0.00    +0.000 A 
ENDBRANCH   9  10
BRANCH   4  18
ATOM     17  C   UNL     1      45.871  11.220  11.711  0.00  0.00    +0.000 C 
ATOM     18  O   UNL     1      46.672  10.048  11.758  0.00  0.00    +0.000 OA
ENDBRANCH   4  18
ENDBRANCH   1   7
BRANCH   1  19
ATOM     19  C   UNL     1      43.300   4.394  10.896  0.00  0.00    +0.000 C 
BRANCH  19  20
ATOM     20  N   UNL     1      43.903   4.784   9.630  0.00  0.00    +0.000 N 
ATOM     21  C   UNL     1      44.842   4.009   8.992  0.00  0.00    +0.000 A 
ATOM     22  C   UNL     1      44.948   2.618   9.108  0.00  0.00    +0.000 A 
ATOM     23  N   UNL     1      45.841   1.858   8.423  0.00  0.00    +0.000 NA
ATOM     24  C   UNL     1      46.637   2.563   7.574  0.00  0.00    +0.000 A 
ATOM     25  C   UNL     1      46.545   3.936   7.439  0.00  0.00    +0.000 A 
ATOM     26  N   UNL     1      45.653   4.679   8.146  0.00  0.00    +0.000 NA
ATOM     27  H   UNL     1      44.113   5.767   9.480  0.00  0.00    +0.000 HD
BRANCH  24  28
ATOM     28  C   UNL     1      47.627   1.798   6.767  0.00  0.00    +0.000 C 
ATOM     29  N   UNL     1      48.690   2.518   6.300  0.00  0.00    +0.000 N 
ATOM     30  O   UNL     1      47.498   0.602   6.533  0.00  0.00    +0.000 OA
ATOM     31  H   UNL     1      48.759   3.510   6.499  0.00  0.00    +0.000 HD
ATOM     32  H   UNL     1      49.393   2.060   5.734  0.00  0.00    +0.000 HD
ENDBRANCH  24  28
ENDBRANCH  19  20
ENDBRANCH   1  19
TORSDOF 6
ENDMDL
MODEL 3
REMARK VINA RESULT:    -7.939      2.465      4.062
REMARK INTER + INTRA:         -11.555
REMARK INTER:                 -10.552
REMARK INTRA:                  -1.003
REMARK UNBOUND:                -0.832
REMARK  Name = 
REMARK  9 active torsions:
REMARK  status: ('A' for Active; 'I' for Inactive)
REMARK    1  A    between atoms: C_1  and  O_2
REMARK    2  A    between atoms: O_2  and  C_3
REMARK    3  A    between atoms: C_6  and  C_7
REMARK    4  A    between atoms: C_7  and  C_8
REMARK    5  A    between atoms: C_7  and  C_9
REMARK    6  A    between atoms: C_7  and  C_10
REMARK    7  A    between atoms: C_10  and  N_11
REMARK    8  A    between atoms: C_15  and  C_16
REMARK    9  A    between atoms: C_22  and  C_23
REMARK                            x       y       z     vdW  Elec       q    Type
REMARK                         _______ _______ _______ _____ _____    ______ ____
ROOT
ATOM      1  C   UNL     1      43.545   5.910  11.721  0.00  0.00    +0.000 C 
ATOM      2  C   UNL     1      42.452   5.234  12.579  0.00  0.00    +0.000 C 
ATOM      3  C   UNL     1      43.110   7.377  11.450  0.00  0.00    +0.000 C 
ENDROOT
BRANCH   1   7
ATOM      4  C   UNL     1      47.423   5.976  13.774  0.00  0.00    +0.000 A 
ATOM      5  C   UNL     1      46.498   4.960  14.031  0.00  0.00    +0.000 A 
ATOM      6  C   UNL     1      45.265   4.929  13.380  0.00  0.00    +0.000 A 
ATOM      7  C   UNL     1      44.882   5.934  12.489  0.00  0.00    +0.000 A 
ATOM      8  C   UNL     1      45.810   6.974  12.272  0.00  0.00    +0.000 A 
ATOM      9  C   UNL     1      47.103   6.998  12.850  0.00  0.00    +0.000 A 
BRANCH   9  10
ATOM     10  C   UNL     1      48.087   8.021  12.393  0.00  0.00    +0.000 A 
ATOM     11  C   UNL     1      49.258   7.683  11.690  0.00  0.00    +0.000 A 
ATOM     12  C   UNL     1      50.090   8.666  11.143  0.00  0.00    +0.000 A 
ATOM     13  C   UNL     1      49.786  10.005  11.333  0.00  0.00    +0.000 A 
ATOM     14  F   UNL     1      50.567  10.946  10.787  0.00  0.00    +0.000 F 
ATOM     15  C   UNL     1      48.678  10.382  12.073  0.00  0.00    +0.000 A 
ATOM     16  C   UNL     1      47.832   9.396  12.593  0.00  0.00    +0.000 A 
ENDBRANCH   9  10
BRANCH   4  18
ATOM     17  C   UNL     1      48.757   6.261  15.740  0.00  0.00    +0.000 C 
ATOM     18  O   UNL     1      48.671   6.002  14.346  0.00  0.00    +0.000 OA
ENDBRANCH   4  18
ENDBRANCH   1   7
BRANCH   1  19
ATOM     19  C   UNL     1      43.597   5.223  10.314  0.00  0.00    +0.000 C 
BRANCH  19  20
ATOM     20  N   UNL     1      44.338   3.970  10.310  0.00  0.00    +0.000 N 
ATOM     21  C   UNL     1      45.135   3.589   9.256  0.00  0.00    +0.000 A 
ATOM     22  C   UNL     1      45.772   4.468   8.373  0.00  0.00    +0.000 A 
ATOM     23  N   UNL     1      46.607   4.080   7.375  0.00  0.00    +0.000 NA
ATOM     24  C   UNL     1      46.803   2.735   7.305  0.00  0.00    +0.000 A 
ATOM     25  C   UNL     1      46.189   1.849   8.172  0.00  0.00    +0.000 A 
ATOM     26  N   UNL     1      45.344   2.260   9.154  0.00  0.00    +0.000 NA
ATOM     27  H   UNL     1      43.899   3.150  10.720  0.00  0.00    +0.000 HD
BRANCH  24  28
ATOM     28  C   UNL     1      47.726   2.230   6.251  0.00  0.00    +0.000 C 
ATOM     29  N   UNL     1      47.834   3.012   5.137  0.00  0.00    +0.000 N 
ATOM     30  O   UNL     1      48.347   1.181   6.372  0.00  0.00    +0.000 OA
ATOM     31  H   UNL     1      47.294   3.867   5.061  0.00  0.00    +0.000 HD
ATOM     32  H   UNL     1      48.435   2.719   4.377  0.00  0.00    +0.000 HD
ENDBRANCH  24  28
ENDBRANCH  19  20
ENDBRANCH   1  19
TORSDOF 6
ENDMDL
MODEL 4
REMARK VINA RESULT:    -7.614      4.461      7.748
REMARK INTER + INTRA:         -11.117
REMARK INTER:                 -10.037
REMARK INTRA:                  -1.079
REMARK UNBOUND:                -0.832
REMARK  Name = 
REMARK  9 active torsions:
REMARK  status: ('A' for Active; 'I' for Inactive)
REMARK    1  A    between atoms: C_1  and  O_2
REMARK    2  A    between atoms: O_2  and  C_3
REMARK    3  A    between atoms: C_6  and  C_7
REMARK    4  A    between atoms: C_7  and  C_8
REMARK    5  A    between atoms: C_7  and  C_9
REMARK    6  A    between atoms: C_7  and  C_10
REMARK    7  A    between atoms: C_10  and  N_11
REMARK    8  A    between atoms: C_15  and  C_16
REMARK    9  A    between atoms: C_22  and  C_23
REMARK                            x       y       z     vdW  Elec       q    Type
REMARK                         _______ _______ _______ _____ _____    ______ ____
ROOT
ATOM      1  C   UNL     1      48.436   8.303  12.437  0.00  0.00    +0.000 C 
ATOM      2  C   UNL     1      49.441   7.240  11.940  0.00  0.00    +0.000 C 
ATOM      3  C   UNL     1      48.716   9.628  11.675  0.00  0.00    +0.000 C 
ENDROOT
BRANCH   1   7
ATOM      4  C   UNL     1      44.370   7.024  11.391  0.00  0.00    +0.000 A 
ATOM      5  C   UNL     1      44.592   8.256  12.011  0.00  0.00    +0.000 A 
ATOM      6  C   UNL     1      45.882   8.673  12.343  0.00  0.00    +0.000 A 
ATOM      7  C   UNL     1      46.994   7.858  12.120  0.00  0.00    +0.000 A 
ATOM      8  C   UNL     1      46.749   6.600  11.532  0.00  0.00    +0.000 A 
ATOM      9  C   UNL     1      45.466   6.176  11.106  0.00  0.00    +0.000 A 
BRANCH   9  10
ATOM     10  C   UNL     1      45.341   4.926  10.302  0.00  0.00    +0.000 A 
ATOM     11  C   UNL     1      45.662   4.872   8.933  0.00  0.00    +0.000 A 
ATOM     12  C   UNL     1      45.679   3.660   8.235  0.00  0.00    +0.000 A 
ATOM     13  C   UNL     1      45.329   2.488   8.887  0.00  0.00    +0.000 A 
ATOM     14  F   UNL     1      45.371   1.323   8.227  0.00  0.00    +0.000 F 
ATOM     15  C   UNL     1      44.945   2.505  10.218  0.00  0.00    +0.000 A 
ATOM     16  C   UNL     1      44.958   3.714  10.920  0.00  0.00    +0.000 A 
ENDBRANCH   9  10
BRANCH   4  18
ATOM     17  C   UNL     1      42.368   5.812  11.890  0.00  0.00    +0.000 C 
ATOM     18  O   UNL     1      43.124   6.610  10.991  0.00  0.00    +0.000 OA
ENDBRANCH   4  18
ENDBRANCH   1   7
BRANCH   1  19
ATOM     19  C   UNL     1      48.720   8.620  13.944  0.00  0.00    +0.000 C 
BRANCH  19  20
ATOM     20  N   UNL     1      49.589   7.645  14.586  0.00  0.00    +0.000 N 
ATOM     21  C   UNL     1      49.099   6.615  15.354  0.00  0.00    +0.000 A 
ATOM     22  C   UNL     1      47.837   6.032  15.203  0.00  0.00    +0.000 A 
ATOM     23  N   UNL     1      47.390   4.973  15.927  0.00  0.00    +0.000 NA
ATOM     24  C   UNL     1      48.293   4.491  16.824  0.00  0.00    +0.000 A 
ATOM     25  C   UNL     1      49.549   5.049  16.985  0.00  0.00    +0.000 A 
ATOM     26  N   UNL     1      49.969   6.118  16.259  0.00  0.00    +0.000 NA
ATOM     27  H   UNL     1      50.473   7.968  14.971  0.00  0.00    +0.000 HD
BRANCH  24  28
ATOM     28  C   UNL     1      47.888   3.315  17.641  0.00  0.00    +0.000 C 
ATOM     29  N   UNL     1      48.812   2.881  18.550  0.00  0.00    +0.000 N 
ATOM     30  O   UNL     1      46.800   2.767  17.507  0.00  0.00    +0.000 OA
ATOM     31  H   UNL     1      49.709   3.347  18.624  0.00  0.00    +0.000 HD
ATOM     32  H   UNL     1      48.604   2.077  19.128  0.00  0.00    +0.000 HD
ENDBRANCH  24  28
ENDBRANCH  19  20
ENDBRANCH   1  19
TORSDOF 6
ENDMDL
MODEL 5
REMARK VINA RESULT:    -7.511      4.566      8.290
REMARK INTER + INTRA:         -10.977
REMARK INTER:                 -10.122
REMARK INTRA:                  -0.855
REMARK UNBOUND:                -0.832
REMARK  Name = 
REMARK  9 active torsions:
REMARK  status: ('A' for Active; 'I' for Inactive)
REMARK    1  A    between atoms: C_1  and  O_2
REMARK    2  A    between atoms: O_2  and  C_3
REMARK    3  A    between atoms: C_6  and  C_7
REMARK    4  A    between atoms: C_7  and  C_8
REMARK    5  A    between atoms: C_7  and  C_9
REMARK    6  A    between atoms: C_7  and  C_10
REMARK    7  A    between atoms: C_10  and  N_11
REMARK    8  A    between atoms: C_15  and  C_16
REMARK    9  A    between atoms: C_22  and  C_23
REMARK                            x       y       z     vdW  Elec       q    Type
REMARK                         _______ _______ _______ _____ _____    ______ ____
ROOT
ATOM      1  C   UNL     1      48.366   8.091  12.505  0.00  0.00    +0.000 C 
ATOM      2  C   UNL     1      49.342   7.585  11.420  0.00  0.00    +0.000 C 
ATOM      3  C   UNL     1      48.408   9.644  12.508  0.00  0.00    +0.000 C 
ENDROOT
BRANCH   1   7
ATOM      4  C   UNL     1      44.309   6.819  11.413  0.00  0.00    +0.000 A 
ATOM      5  C   UNL     1      44.522   8.032  12.073  0.00  0.00    +0.000 A 
ATOM      6  C   UNL     1      45.809   8.447  12.420  0.00  0.00    +0.000 A 
ATOM      7  C   UNL     1      46.927   7.647  12.172  0.00  0.00    +0.000 A 
ATOM      8  C   UNL     1      46.691   6.407  11.544  0.00  0.00    +0.000 A 
ATOM      9  C   UNL     1      45.411   5.988  11.102  0.00  0.00    +0.000 A 
BRANCH   9  10
ATOM     10  C   UNL     1      45.296   4.764  10.258  0.00  0.00    +0.000 A 
ATOM     11  C   UNL     1      45.634   4.752   8.892  0.00  0.00    +0.000 A 
ATOM     12  C   UNL     1      45.660   3.563   8.156  0.00  0.00    +0.000 A 
ATOM     13  C   UNL     1      45.301   2.371   8.767  0.00  0.00    +0.000 A 
ATOM     14  F   UNL     1      45.350   1.228   8.071  0.00  0.00    +0.000 F 
ATOM     15  C   UNL     1      44.900   2.347  10.093  0.00  0.00    +0.000 A 
ATOM     16  C   UNL     1      44.904   3.534  10.832  0.00  0.00    +0.000 A 
ENDBRANCH   9  10
BRANCH   4  18
ATOM     17  C   UNL     1      42.292   5.625  11.893  0.00  0.00    +0.000 C 
ATOM     18  O   UNL     1      43.066   6.410  10.998  0.00  0.00    +0.000 OA
ENDBRANCH   4  18
ENDBRANCH   1   7
BRANCH   1  19
ATOM     19  C   UNL     1      48.888   7.656  13.916  0.00  0.00    +0.000 C 
BRANCH  19  20
ATOM     20  N   UNL     1      48.128   6.560  14.500  0.00  0.00    +0.000 N 
ATOM     21  C   UNL     1      48.406   6.054  15.747  0.00  0.00    +0.000 A 
ATOM     22  C   UNL     1      48.994   6.774  16.793  0.00  0.00    +0.000 A 
ATOM     23  N   UNL     1      49.205   6.280  18.041  0.00  0.00    +0.000 NA
ATOM     24  C   UNL     1      48.772   5.001  18.213  0.00  0.00    +0.000 A 
ATOM     25  C   UNL     1      48.183   4.273  17.195  0.00  0.00    +0.000 A 
ATOM     26  N   UNL     1      47.996   4.784  15.950  0.00  0.00    +0.000 NA
ATOM     27  H   UNL     1      47.819   5.809  13.888  0.00  0.00    +0.000 HD
BRANCH  24  28
ATOM     28  C   UNL     1      48.946   4.394  19.561  0.00  0.00    +0.000 C 
ATOM     29  N   UNL     1      48.338   3.185  19.746  0.00  0.00    +0.000 N 
ATOM     30  O   UNL     1      49.588   4.942  20.449  0.00  0.00    +0.000 OA
ATOM     31  H   UNL     1      47.801   2.765  18.996  0.00  0.00    +0.000 HD
ATOM     32  H   UNL     1      48.407   2.724  20.645  0.00  0.00    +0.000 HD
ENDBRANCH  24  28
ENDBRANCH  19  20
ENDBRANCH   1  19
TORSDOF 6
ENDMDL
MODEL 6
REMARK VINA RESULT:    -7.358      2.814      5.186
REMARK INTER + INTRA:         -10.770
REMARK INTER:                  -9.515
REMARK INTRA:                  -1.255
REMARK UNBOUND:                -0.832
REMARK  Name = 
REMARK  9 active torsions:
REMARK  status: ('A' for Active; 'I' for Inactive)
REMARK    1  A    between atoms: C_1  and  O_2
REMARK    2  A    between atoms: O_2  and  C_3
REMARK    3  A    between atoms: C_6  and  C_7
REMARK    4  A    between atoms: C_7  and  C_8
REMARK    5  A    between atoms: C_7  and  C_9
REMARK    6  A    between atoms: C_7  and  C_10
REMARK    7  A    between atoms: C_10  and  N_11
REMARK    8  A    between atoms: C_15  and  C_16
REMARK    9  A    between atoms: C_22  and  C_23
REMARK                            x       y       z     vdW  Elec       q    Type
REMARK                         _______ _______ _______ _____ _____    ______ ____
ROOT
ATOM      1  C   UNL     1      48.569   8.657  13.927  0.00  0.00    +0.000 C 
ATOM      2  C   UNL     1      49.141  10.083  13.764  0.00  0.00    +0.000 C 
ATOM      3  C   UNL     1      49.418   7.691  13.056  0.00  0.00    +0.000 C 
ENDROOT
BRANCH   1   7
ATOM      4  C   UNL     1      48.798   7.258  18.081  0.00  0.00    +0.000 A 
ATOM      5  C   UNL     1      48.307   8.532  17.784  0.00  0.00    +0.000 A 
ATOM      6  C   UNL     1      48.227   8.984  16.467  0.00  0.00    +0.000 A 
ATOM      7  C   UNL     1      48.681   8.207  15.398  0.00  0.00    +0.000 A 
ATOM      8  C   UNL     1      49.212   6.941  15.718  0.00  0.00    +0.000 A 
ATOM      9  C   UNL     1      49.235   6.414  17.033  0.00  0.00    +0.000 A 
BRANCH   9  10
ATOM     10  C   UNL     1      49.615   4.987  17.241  0.00  0.00    +0.000 A 
ATOM     11  C   UNL     1      48.703   3.929  17.072  0.00  0.00    +0.000 A 
ATOM     12  C   UNL     1      49.116   2.594  17.127  0.00  0.00    +0.000 A 
ATOM     13  C   UNL     1      50.442   2.297  17.400  0.00  0.00    +0.000 A 
ATOM     14  F   UNL     1      50.844   1.020  17.426  0.00  0.00    +0.000 F 
ATOM     15  C   UNL     1      51.360   3.307  17.636  0.00  0.00    +0.000 A 
ATOM     16  C   UNL     1      50.949   4.641  17.551  0.00  0.00    +0.000 A 
ENDBRANCH   9  10
BRANCH   4  18
ATOM     17  C   UNL     1      47.591   6.458  19.986  0.00  0.00    +0.000 C 
ATOM     18  O   UNL     1      48.830   6.756  19.359  0.00  0.00    +0.000 OA
ENDBRANCH   4  18
ENDBRANCH   1   7
BRANCH   1  19
ATOM     19  C   UNL     1      47.125   8.606  13.322  0.00  0.00    +0.000 C 
BRANCH  19  20
ATOM     20  N   UNL     1      46.406   7.383  13.650  0.00  0.00    +0.000 N 
ATOM     21  C   UNL     1      45.846   6.578  12.686  0.00  0.00    +0.000 A 
ATOM     22  C   UNL     1      46.302   6.468  11.368  0.00  0.00    +0.000 A 
ATOM     23  N   UNL     1      45.779   5.621  10.444  0.00  0.00    +0.000 NA
ATOM     24  C   UNL     1      44.761   4.848  10.911  0.00  0.00    +0.000 A 
ATOM     25  C   UNL     1      44.299   4.935  12.212  0.00  0.00    +0.000 A 
ATOM     26  N   UNL     1      44.828   5.802  13.115  0.00  0.00    +0.000 NA
ATOM     27  H   UNL     1      45.821   7.377  14.481  0.00  0.00    +0.000 HD
BRANCH  24  28
ATOM     28  C   UNL     1      44.149   3.875   9.965  0.00  0.00    +0.000 C 
ATOM     29  N   UNL     1      44.090   4.277   8.661  0.00  0.00    +0.000 N 
ATOM     30  O   UNL     1      43.723   2.786  10.330  0.00  0.00    +0.000 OA
ATOM     31  H   UNL     1      44.437   5.191   8.394  0.00  0.00    +0.000 HD
ATOM     32  H   UNL     1      43.674   3.666   7.969  0.00  0.00    +0.000 HD
ENDBRANCH  24  28
ENDBRANCH  19  20
ENDBRANCH   1  19
TORSDOF 6
ENDMDL
MODEL 7
REMARK VINA RESULT:    -7.052      3.826      6.100
REMARK INTER + INTRA:         -10.357
REMARK INTER:                  -9.249
REMARK INTRA:                  -1.108
REMARK UNBOUND:                -0.832
REMARK  Name = 
REMARK  9 active torsions:
REMARK  status: ('A' for Active; 'I' for Inactive)
REMARK    1  A    between atoms: C_1  and  O_2
REMARK    2  A    between atoms: O_2  and  C_3
REMARK    3  A    between atoms: C_6  and  C_7
REMARK    4  A    between atoms: C_7  and  C_8
REMARK    5  A    between atoms: C_7  and  C_9
REMARK    6  A    between atoms: C_7  and  C_10
REMARK    7  A    between atoms: C_10  and  N_11
REMARK    8  A    between atoms: C_15  and  C_16
REMARK    9  A    between atoms: C_22  and  C_23
REMARK                            x       y       z     vdW  Elec       q    Type
REMARK                         _______ _______ _______ _____ _____    ______ ____
ROOT
ATOM      1  C   UNL     1      49.209   7.851  15.190  0.00  0.00    +0.000 C 
ATOM      2  C   UNL     1      48.359   9.125  15.394  0.00  0.00    +0.000 C 
ATOM      3  C   UNL     1      50.636   8.285  14.758  0.00  0.00    +0.000 C 
ENDROOT
BRANCH   1   7
ATOM      4  C   UNL     1      49.480   5.504  18.889  0.00  0.00    +0.000 A 
ATOM      5  C   UNL     1      48.660   6.633  18.820  0.00  0.00    +0.000 A 
ATOM      6  C   UNL     1      48.565   7.383  17.647  0.00  0.00    +0.000 A 
ATOM      7  C   UNL     1      49.320   7.069  16.515  0.00  0.00    +0.000 A 
ATOM      8  C   UNL     1      50.174   5.951  16.614  0.00  0.00    +0.000 A 
ATOM      9  C   UNL     1      50.237   5.118  17.758  0.00  0.00    +0.000 A 
BRANCH   9  10
ATOM     10  C   UNL     1      51.004   3.841  17.688  0.00  0.00    +0.000 A 
ATOM     11  C   UNL     1      52.362   3.752  18.045  0.00  0.00    +0.000 A 
ATOM     12  C   UNL     1      53.020   2.520  18.114  0.00  0.00    +0.000 A 
ATOM     13  C   UNL     1      52.339   1.359  17.778  0.00  0.00    +0.000 A 
ATOM     14  F   UNL     1      52.960   0.176  17.869  0.00  0.00    +0.000 F 
ATOM     15  C   UNL     1      51.020   1.408  17.359  0.00  0.00    +0.000 A 
ATOM     16  C   UNL     1      50.357   2.639  17.321  0.00  0.00    +0.000 A 
ENDBRANCH   9  10
BRANCH   4  18
ATOM     17  C   UNL     1      50.314   5.168  21.106  0.00  0.00    +0.000 C 
ATOM     18  O   UNL     1      49.548   4.705  20.004  0.00  0.00    +0.000 OA
ENDBRANCH   4  18
ENDBRANCH   1   7
BRANCH   1  19
ATOM     19  C   UNL     1      48.636   7.034  13.982  0.00  0.00    +0.000 C 
BRANCH  19  20
ATOM     20  N   UNL     1      47.204   7.210  13.793  0.00  0.00    +0.000 N 
ATOM     21  C   UNL     1      46.401   6.218  13.283  0.00  0.00    +0.000 A 
ATOM     22  C   UNL     1      46.655   4.846  13.390  0.00  0.00    +0.000 A 
ATOM     23  N   UNL     1      45.821   3.874  12.936  0.00  0.00    +0.000 NA
ATOM     24  C   UNL     1      44.675   4.343  12.371  0.00  0.00    +0.000 A 
ATOM     25  C   UNL     1      44.401   5.695  12.261  0.00  0.00    +0.000 A 
ATOM     26  N   UNL     1      45.258   6.650  12.709  0.00  0.00    +0.000 NA
ATOM     27  H   UNL     1      46.868   8.116  13.478  0.00  0.00    +0.000 HD
BRANCH  24  28
ATOM     28  C   UNL     1      43.696   3.340  11.871  0.00  0.00    +0.000 C 
ATOM     29  N   UNL     1      43.739   2.118  12.481  0.00  0.00    +0.000 N 
ATOM     30  O   UNL     1      42.905   3.590  10.969  0.00  0.00    +0.000 OA
ATOM     31  H   UNL     1      44.417   1.939  13.213  0.00  0.00    +0.000 HD
ATOM     32  H   UNL     1      43.108   1.387  12.178  0.00  0.00    +0.000 HD
ENDBRANCH  24  28
ENDBRANCH  19  20
ENDBRANCH   1  19
TORSDOF 6
ENDMDL
MODEL 8
REMARK VINA RESULT:    -6.975      4.440      7.548
REMARK INTER + INTRA:         -10.253
REMARK INTER:                  -8.987
REMARK INTRA:                  -1.266
REMARK UNBOUND:                -0.832
REMARK  Name = 
REMARK  9 active torsions:
REMARK  status: ('A' for Active; 'I' for Inactive)
REMARK    1  A    between atoms: C_1  and  O_2
REMARK    2  A    between atoms: O_2  and  C_3
REMARK    3  A    between atoms: C_6  and  C_7
REMARK    4  A    between atoms: C_7  and  C_8
REMARK    5  A    between atoms: C_7  and  C_9
REMARK    6  A    between atoms: C_7  and  C_10
REMARK    7  A    between atoms: C_10  and  N_11
REMARK    8  A    between atoms: C_15  and  C_16
REMARK    9  A    between atoms: C_22  and  C_23
REMARK                            x       y       z     vdW  Elec       q    Type
REMARK                         _______ _______ _______ _____ _____    ______ ____
ROOT
ATOM      1  C   UNL     1      48.746   9.484  12.468  0.00  0.00    +0.000 C 
ATOM      2  C   UNL     1      49.446  10.342  11.391  0.00  0.00    +0.000 C 
ATOM      3  C   UNL     1      48.868  10.220  13.831  0.00  0.00    +0.000 C 
ENDROOT
BRANCH   1   7
ATOM      4  C   UNL     1      44.520   8.949  11.410  0.00  0.00    +0.000 A 
ATOM      5  C   UNL     1      45.123  10.206  11.321  0.00  0.00    +0.000 A 
ATOM      6  C   UNL     1      46.467  10.385  11.651  0.00  0.00    +0.000 A 
ATOM      7  C   UNL     1      47.248   9.331  12.133  0.00  0.00    +0.000 A 
ATOM      8  C   UNL     1      46.613   8.078  12.257  0.00  0.00    +0.000 A 
ATOM      9  C   UNL     1      45.276   7.839  11.855  0.00  0.00    +0.000 A 
BRANCH   9  10
ATOM     10  C   UNL     1      44.764   6.438  11.822  0.00  0.00    +0.000 A 
ATOM     11  C   UNL     1      44.007   5.884  12.870  0.00  0.00    +0.000 A 
ATOM     12  C   UNL     1      43.414   4.622  12.755  0.00  0.00    +0.000 A 
ATOM     13  C   UNL     1      43.609   3.876  11.603  0.00  0.00    +0.000 A 
ATOM     14  F   UNL     1      43.020   2.680  11.480  0.00  0.00    +0.000 F 
ATOM     15  C   UNL     1      44.400   4.357  10.572  0.00  0.00    +0.000 A 
ATOM     16  C   UNL     1      44.967   5.631  10.680  0.00  0.00    +0.000 A 
ENDBRANCH   9  10
BRANCH   4  18
ATOM     17  C   UNL     1      42.453   9.835  10.592  0.00  0.00    +0.000 C 
ATOM     18  O   UNL     1      43.220   8.723  11.031  0.00  0.00    +0.000 OA
ENDBRANCH   4  18
ENDBRANCH   1   7
BRANCH   1  19
ATOM     19  C   UNL     1      49.528   8.138  12.648  0.00  0.00    +0.000 C 
BRANCH  19  20
ATOM     20  N   UNL     1      49.879   7.856  14.032  0.00  0.00    +0.000 N 
ATOM     21  C   UNL     1      49.154   6.987  14.813  0.00  0.00    +0.000 A 
ATOM     22  C   UNL     1      48.406   5.908  14.331  0.00  0.00    +0.000 A 
ATOM     23  N   UNL     1      47.745   5.020  15.119  0.00  0.00    +0.000 NA
ATOM     24  C   UNL     1      47.883   5.250  16.453  0.00  0.00    +0.000 A 
ATOM     25  C   UNL     1      48.624   6.307  16.951  0.00  0.00    +0.000 A 
ATOM     26  N   UNL     1      49.264   7.192  16.143  0.00  0.00    +0.000 NA
ATOM     27  H   UNL     1      50.230   8.619  14.605  0.00  0.00    +0.000 HD
BRANCH  24  28
ATOM     28  C   UNL     1      47.209   4.306  17.386  0.00  0.00    +0.000 C 
ATOM     29  N   UNL     1      47.189   4.686  18.698  0.00  0.00    +0.000 N 
ATOM     30  O   UNL     1      46.707   3.255  17.004  0.00  0.00    +0.000 OA
ATOM     31  H   UNL     1      47.628   5.554  18.983  0.00  0.00    +0.000 HD
ATOM     32  H   UNL     1      46.756   4.082  19.385  0.00  0.00    +0.000 HD
ENDBRANCH  24  28
ENDBRANCH  19  20
ENDBRANCH   1  19
TORSDOF 6
ENDMDL
MODEL 9
REMARK VINA RESULT:    -6.940      2.945      4.861
REMARK INTER + INTRA:         -10.206
REMARK INTER:                  -9.311
REMARK INTRA:                  -0.895
REMARK UNBOUND:                -0.832
REMARK  Name = 
REMARK  9 active torsions:
REMARK  status: ('A' for Active; 'I' for Inactive)
REMARK    1  A    between atoms: C_1  and  O_2
REMARK    2  A    between atoms: O_2  and  C_3
REMARK    3  A    between atoms: C_6  and  C_7
REMARK    4  A    between atoms: C_7  and  C_8
REMARK    5  A    between atoms: C_7  and  C_9
REMARK    6  A    between atoms: C_7  and  C_10
REMARK    7  A    between atoms: C_10  and  N_11
REMARK    8  A    between atoms: C_15  and  C_16
REMARK    9  A    between atoms: C_22  and  C_23
REMARK                            x       y       z     vdW  Elec       q    Type
REMARK                         _______ _______ _______ _____ _____    ______ ____
ROOT
ATOM      1  C   UNL     1      47.886   8.556  13.539  0.00  0.00    +0.000 C 
ATOM      2  C   UNL     1      48.376   9.959  13.118  0.00  0.00    +0.000 C 
ATOM      3  C   UNL     1      48.593   7.505  12.639  0.00  0.00    +0.000 C 
ENDROOT
BRANCH   1   7
ATOM      4  C   UNL     1      48.894   7.648  17.714  0.00  0.00    +0.000 A 
ATOM      5  C   UNL     1      48.416   8.911  17.354  0.00  0.00    +0.000 A 
ATOM      6  C   UNL     1      48.089   9.207  16.031  0.00  0.00    +0.000 A 
ATOM      7  C   UNL     1      48.275   8.277  15.005  0.00  0.00    +0.000 A 
ATOM      8  C   UNL     1      48.797   7.021  15.378  0.00  0.00    +0.000 A 
ATOM      9  C   UNL     1      49.064   6.655  16.720  0.00  0.00    +0.000 A 
BRANCH   9  10
ATOM     10  C   UNL     1      49.407   5.238  17.035  0.00  0.00    +0.000 A 
ATOM     11  C   UNL     1      48.474   4.190  16.922  0.00  0.00    +0.000 A 
ATOM     12  C   UNL     1      48.855   2.853  17.078  0.00  0.00    +0.000 A 
ATOM     13  C   UNL     1      50.169   2.548  17.399  0.00  0.00    +0.000 A 
ATOM     14  F   UNL     1      50.541   1.268  17.523  0.00  0.00    +0.000 F 
ATOM     15  C   UNL     1      51.105   3.553  17.583  0.00  0.00    +0.000 A 
ATOM     16  C   UNL     1      50.727   4.886  17.397  0.00  0.00    +0.000 A 
ENDBRANCH   9  10
BRANCH   4  18
ATOM     17  C   UNL     1      48.067   7.181  19.910  0.00  0.00    +0.000 C 
ATOM     18  O   UNL     1      49.163   7.300  19.014  0.00  0.00    +0.000 OA
ENDBRANCH   4  18
ENDBRANCH   1   7
BRANCH   1  19
ATOM     19  C   UNL     1      46.359   8.422  13.218  0.00  0.00    +0.000 C 
BRANCH  19  20
ATOM     20  N   UNL     1      46.092   7.841  11.911  0.00  0.00    +0.000 N 
ATOM     21  C   UNL     1      45.567   6.579  11.758  0.00  0.00    +0.000 A 
ATOM     22  C   UNL     1      44.748   5.934  12.691  0.00  0.00    +0.000 A 
ATOM     23  N   UNL     1      44.184   4.712  12.499  0.00  0.00    +0.000 NA
ATOM     24  C   UNL     1      44.465   4.152  11.291  0.00  0.00    +0.000 A 
ATOM     25  C   UNL     1      45.268   4.776  10.353  0.00  0.00    +0.000 A 
ATOM     26  N   UNL     1      45.834   5.992  10.572  0.00  0.00    +0.000 NA
ATOM     27  H   UNL     1      46.748   8.031  11.157  0.00  0.00    +0.000 HD
BRANCH  24  28
ATOM     28  C   UNL     1      43.865   2.823  10.995  0.00  0.00    +0.000 C 
ATOM     29  N   UNL     1      44.369   2.179   9.900  0.00  0.00    +0.000 N 
ATOM     30  O   UNL     1      42.976   2.337  11.684  0.00  0.00    +0.000 OA
ATOM     31  H   UNL     1      45.094   2.615   9.342  0.00  0.00    +0.000 HD
ATOM     32  H   UNL     1      43.994   1.276   9.636  0.00  0.00    +0.000 HD
ENDBRANCH  24  28
ENDBRANCH  19  20
ENDBRANCH   1  19
TORSDOF 6
ENDMDL
