MODEL 1
REMARK VINA RESULT:    -9.449      0.000      0.000
REMARK INTER + INTRA:         -13.223
REMARK INTER:                 -12.211
REMARK INTRA:                  -1.012
REMARK UNBOUND:                -1.012
REMARK  Name = 
REMARK  5 active torsions:
REMARK  status: ('A' for Active; 'I' for Inactive)
REMARK    1  A    between atoms: C_2  and  C_4
REMARK    2  A    between atoms: N_8  and  C_9
REMARK    3  A    between atoms: C_9  and  C_10
REMARK    4  A    between atoms: C_14  and  C_15
REMARK    5  A    between atoms: C_19  and  C_20
REMARK                            x       y       z     vdW  Elec       q    Type
REMARK                         _______ _______ _______ _____ _____    ______ ____
ROOT
ATOM      1  C   UNL     1      43.941   4.870  11.646  0.00  0.00    +0.000 C 
ATOM      2  C   UNL     1      42.754   4.810  12.608  0.00  0.00    +0.000 C 
ATOM      3  C   UNL     1      42.668   5.656  11.384  0.00  0.00    +0.000 C 
ENDROOT
BRANCH   1   8
ATOM      4  C   UNL     1      46.412   2.771   7.547  0.00  0.00    +0.000 A 
ATOM      5  C   UNL     1      46.149   4.104   7.848  0.00  0.00    +0.000 A 
ATOM      6  C   UNL     1      45.407   4.411   8.991  0.00  0.00    +0.000 A 
ATOM      7  C   UNL     1      44.966   3.389   9.822  0.00  0.00    +0.000 A 
ATOM      8  N   UNL     1      44.237   3.601  10.985  0.00  0.00    +0.000 N 
ATOM      9  N   UNL     1      45.202   2.090   9.527  0.00  0.00    +0.000 NA
ATOM     10  C   UNL     1      45.898   1.805   8.394  0.00  0.00    +0.000 A 
ATOM     11  H   UNL     1      44.093   2.721  11.466  0.00  0.00    +0.000 HD
BRANCH   4  13
ATOM     12  N   UNL     1      47.125   3.169   5.264  0.00  0.00    +0.000 N 
ATOM     13  C   UNL     1      47.189   2.355   6.361  0.00  0.00    +0.000 C 
ATOM     14  O   UNL     1      47.887   1.351   6.371  0.00  0.00    +0.000 OA
ATOM     15  H   UNL     1      47.738   2.934   4.492  0.00  0.00    +0.000 HD
ATOM     16  H   UNL     1      46.782   4.117   5.312  0.00  0.00    +0.000 HD
ENDBRANCH   4  13
ENDBRANCH   1   8
BRANCH   1  17
ATOM     17  C   UNL     1      45.158   5.698  12.054  0.00  0.00    +0.000 A 
ATOM     18  C   UNL     1      45.449   6.922  11.429  0.00  0.00    +0.000 A 
ATOM     19  C   UNL     1      46.492   7.735  11.869  0.00  0.00    +0.000 A 
ATOM     20  C   UNL     1      47.267   7.345  12.957  0.00  0.00    +0.000 A 
ATOM     21  C   UNL     1      47.026   6.134  13.623  0.00  0.00    +0.000 A 
ATOM     22  C   UNL     1      45.986   5.317  13.129  0.00  0.00    +0.000 A 
BRANCH  21  23
ATOM     23  C   UNL     1      47.786   5.750  14.832  0.00  0.00    +0.000 A 
ATOM     24  C   UNL     1      48.714   6.611  15.424  0.00  0.00    +0.000 A 
ATOM     25  N   UNL     1      49.417   6.347  16.553  0.00  0.00    +0.000 NA
ATOM     26  C   UNL     1      49.180   5.162  17.153  0.00  0.00    +0.000 A 
ATOM     27  C   UNL     1      48.282   4.225  16.674  0.00  0.00    +0.000 A 
ATOM     28  C   UNL     1      47.590   4.528  15.492  0.00  0.00    +0.000 A 
BRANCH  27  29
ATOM     29  C   UNL     1      48.047   2.942  17.408  0.00  0.00    +0.000 C 
ATOM     30  F   UNL     1      46.731   2.645  17.586  0.00  0.00    +0.000 F 
ATOM     31  F   UNL     1      48.584   1.871  16.760  0.00  0.00    +0.000 F 
ATOM     32  F   UNL     1      48.602   2.941  18.650  0.00  0.00    +0.000 F 
ENDBRANCH  27  29
ENDBRANCH  21  23
ENDBRANCH   1  17
TORSDOF 5
ENDMDL
MODEL 2
REMARK VINA RESULT:    -8.996      3.638      4.652
REMARK INTER + INTRA:         -12.638
REMARK INTER:                 -11.452
REMARK INTRA:                  -1.186
REMARK UNBOUND:                -1.012
REMARK  Name = 
REMARK  5 active torsions:
REMARK  status: ('A' for Active; 'I' for Inactive)
REMARK    1  A    between atoms: C_2  and  C_4
REMARK    2  A    between atoms: N_8  and  C_9
REMARK    3  A    between atoms: C_9  and  C_10
REMARK    4  A    between atoms: C_14  and  C_15
REMARK    5  A    between atoms: C_19  and  C_20
REMARK                            x       y       z     vdW  Elec       q    Type
REMARK                         _______ _______ _______ _____ _____    ______ ____
ROOT
ATOM      1  C   UNL     1      44.061   4.673  11.459  0.00  0.00    +0.000 C 
ATOM      2  C   UNL     1      42.648   4.799  12.028  0.00  0.00    +0.000 C 
ATOM      3  C   UNL     1      43.107   5.753  10.980  0.00  0.00    +0.000 C 
ENDROOT
BRANCH   1   8
ATOM      4  C   UNL     1      46.602   2.694   7.342  0.00  0.00    +0.000 A 
ATOM      5  C   UNL     1      46.426   4.017   7.735  0.00  0.00    +0.000 A 
ATOM      6  C   UNL     1      45.643   4.297   8.858  0.00  0.00    +0.000 A 
ATOM      7  C   UNL     1      45.074   3.255   9.579  0.00  0.00    +0.000 A 
ATOM      8  N   UNL     1      44.296   3.438  10.714  0.00  0.00    +0.000 N 
ATOM      9  N   UNL     1      45.226   1.967   9.193  0.00  0.00    +0.000 NA
ATOM     10  C   UNL     1      45.963   1.712   8.080  0.00  0.00    +0.000 A 
ATOM     11  H   UNL     1      44.055   2.538  11.115  0.00  0.00    +0.000 HD
BRANCH   4  13
ATOM     12  N   UNL     1      47.294   3.084   5.052  0.00  0.00    +0.000 N 
ATOM     13  C   UNL     1      47.413   2.306   6.170  0.00  0.00    +0.000 C 
ATOM     14  O   UNL     1      48.183   1.357   6.208  0.00  0.00    +0.000 OA
ATOM     15  H   UNL     1      47.927   2.875   4.289  0.00  0.00    +0.000 HD
ATOM     16  H   UNL     1      46.882   4.005   5.074  0.00  0.00    +0.000 HD
ENDBRANCH   4  13
ENDBRANCH   1   8
BRANCH   1  17
ATOM     17  C   UNL     1      45.229   5.154  12.317  0.00  0.00    +0.000 A 
ATOM     18  C   UNL     1      45.648   4.436  13.449  0.00  0.00    +0.000 A 
ATOM     19  C   UNL     1      46.780   4.807  14.171  0.00  0.00    +0.000 A 
ATOM     20  C   UNL     1      47.532   5.908  13.769  0.00  0.00    +0.000 A 
ATOM     21  C   UNL     1      47.165   6.666  12.647  0.00  0.00    +0.000 A 
ATOM     22  C   UNL     1      45.993   6.284  11.960  0.00  0.00    +0.000 A 
BRANCH  21  23
ATOM     23  C   UNL     1      48.003   7.783  12.161  0.00  0.00    +0.000 A 
ATOM     24  C   UNL     1      47.527   9.096  12.116  0.00  0.00    +0.000 A 
ATOM     25  N   UNL     1      48.247  10.176  11.722  0.00  0.00    +0.000 NA
ATOM     26  C   UNL     1      49.528   9.955  11.364  0.00  0.00    +0.000 A 
ATOM     27  C   UNL     1      50.123   8.705  11.372  0.00  0.00    +0.000 A 
ATOM     28  C   UNL     1      49.337   7.612  11.766  0.00  0.00    +0.000 A 
BRANCH  27  29
ATOM     29  C   UNL     1      51.559   8.537  10.991  0.00  0.00    +0.000 C 
ATOM     30  F   UNL     1      52.412   8.540  12.052  0.00  0.00    +0.000 F 
ATOM     31  F   UNL     1      51.786   7.364  10.337  0.00  0.00    +0.000 F 
ATOM     32  F   UNL     1      51.998   9.518  10.156  0.00  0.00    +0.000 F 
ENDBRANCH  27  29
ENDBRANCH  21  23
ENDBRANCH   1  17
TORSDOF 5
ENDMDL
MODEL 3
REMARK VINA RESULT:    -8.868      1.510      1.924
REMARK INTER + INTRA:         -12.472
REMARK INTER:                 -11.370
REMARK INTRA:                  -1.102
REMARK UNBOUND:                -1.012
REMARK  Name = 
REMARK  5 active torsions:
REMARK  status: ('A' for Active; 'I' for Inactive)
REMARK    1  A    between atoms: C_2  and  C_4
REMARK    2  A    between atoms: N_8  and  C_9
REMARK    3  A    between atoms: C_9  and  C_10
REMARK    4  A    between atoms: C_14  and  C_15
REMARK    5  A    between atoms: C_19  and  C_20
REMARK                            x       y       z     vdW  Elec       q    Type
REMARK                         _______ _______ _______ _____ _____    ______ ____
ROOT
ATOM      1  C   UNL     1      44.044   4.882  11.472  0.00  0.00    +0.000 C 
ATOM      2  C   UNL     1      42.728   4.926  12.248  0.00  0.00    +0.000 C 
ATOM      3  C   UNL     1      42.922   5.827  11.078  0.00  0.00    +0.000 C 
ENDROOT
BRANCH   1   8
ATOM      4  C   UNL     1      46.548   2.746   7.411  0.00  0.00    +0.000 A 
ATOM      5  C   UNL     1      46.354   4.084   7.742  0.00  0.00    +0.000 A 
ATOM      6  C   UNL     1      45.586   4.405   8.864  0.00  0.00    +0.000 A 
ATOM      7  C   UNL     1      45.050   3.390   9.646  0.00  0.00    +0.000 A 
ATOM      8  N   UNL     1      44.289   3.616  10.785  0.00  0.00    +0.000 N 
ATOM      9  N   UNL     1      45.219   2.088   9.322  0.00  0.00    +0.000 NA
ATOM     10  C   UNL     1      45.942   1.791   8.209  0.00  0.00    +0.000 A 
ATOM     11  H   UNL     1      44.072   2.733  11.234  0.00  0.00    +0.000 HD
BRANCH   4  13
ATOM     12  N   UNL     1      47.228   3.062   5.106  0.00  0.00    +0.000 N 
ATOM     13  C   UNL     1      47.345   2.315   6.245  0.00  0.00    +0.000 C 
ATOM     14  O   UNL     1      48.104   1.358   6.305  0.00  0.00    +0.000 OA
ATOM     15  H   UNL     1      47.852   2.824   4.345  0.00  0.00    +0.000 HD
ATOM     16  H   UNL     1      46.827   3.989   5.105  0.00  0.00    +0.000 HD
ENDBRANCH   4  13
ENDBRANCH   1   8
BRANCH   1  17
ATOM     17  C   UNL     1      45.273   5.538  12.098  0.00  0.00    +0.000 A 
ATOM     18  C   UNL     1      45.712   6.806  11.685  0.00  0.00    +0.000 A 
ATOM     19  C   UNL     1      46.763   7.458  12.326  0.00  0.00    +0.000 A 
ATOM     20  C   UNL     1      47.398   6.857  13.410  0.00  0.00    +0.000 A 
ATOM     21  C   UNL     1      47.005   5.591  13.869  0.00  0.00    +0.000 A 
ATOM     22  C   UNL     1      45.961   4.943  13.175  0.00  0.00    +0.000 A 
BRANCH  21  23
ATOM     23  C   UNL     1      47.613   4.981  15.071  0.00  0.00    +0.000 A 
ATOM     24  C   UNL     1      47.572   3.603  15.301  0.00  0.00    +0.000 A 
ATOM     25  N   UNL     1      48.140   2.968  16.355  0.00  0.00    +0.000 NA
ATOM     26  C   UNL     1      48.811   3.737  17.238  0.00  0.00    +0.000 A 
ATOM     27  C   UNL     1      48.933   5.111  17.123  0.00  0.00    +0.000 A 
ATOM     28  C   UNL     1      48.312   5.731  16.028  0.00  0.00    +0.000 A 
BRANCH  27  29
ATOM     29  C   UNL     1      49.716   5.898  18.125  0.00  0.00    +0.000 C 
ATOM     30  F   UNL     1      49.189   7.125  18.391  0.00  0.00    +0.000 F 
ATOM     31  F   UNL     1      49.804   5.263  19.326  0.00  0.00    +0.000 F 
ATOM     32  F   UNL     1      50.999   6.122  17.727  0.00  0.00    +0.000 F 
ENDBRANCH  27  29
ENDBRANCH  21  23
ENDBRANCH   1  17
TORSDOF 5
ENDMDL
MODEL 4
REMARK VINA RESULT:    -7.847      4.221      8.119
REMARK INTER + INTRA:         -11.152
REMARK INTER:                 -10.980
REMARK INTRA:                  -0.172
REMARK UNBOUND:                -1.012
REMARK  Name = 
REMARK  5 active torsions:
REMARK  status: ('A' for Active; 'I' for Inactive)
REMARK    1  A    between atoms: C_2  and  C_4
REMARK    2  A    between atoms: N_8  and  C_9
REMARK    3  A    between atoms: C_9  and  C_10
REMARK    4  A    between atoms: C_14  and  C_15
REMARK    5  A    between atoms: C_19  and  C_20
REMARK                            x       y       z     vdW  Elec       q    Type
REMARK                         _______ _______ _______ _____ _____    ______ ____
ROOT
ATOM      1  C   UNL     1      48.620   8.065  12.690  0.00  0.00    +0.000 C 
ATOM      2  C   UNL     1      49.734   7.689  11.712  0.00  0.00    +0.000 C 
ATOM      3  C   UNL     1      49.353   9.120  11.878  0.00  0.00    +0.000 C 
ENDROOT
BRANCH   1   8
ATOM      4  C   UNL     1      47.855   4.604  16.532  0.00  0.00    +0.000 A 
ATOM      5  C   UNL     1      47.261   4.695  15.276  0.00  0.00    +0.000 A 
ATOM      6  C   UNL     1      47.596   5.763  14.439  0.00  0.00    +0.000 A 
ATOM      7  C   UNL     1      48.530   6.701  14.859  0.00  0.00    +0.000 A 
ATOM      8  N   UNL     1      48.934   7.784  14.088  0.00  0.00    +0.000 N 
ATOM      9  N   UNL     1      49.099   6.629  16.084  0.00  0.00    +0.000 NA
ATOM     10  C   UNL     1      48.740   5.603  16.900  0.00  0.00    +0.000 A 
ATOM     11  H   UNL     1      49.676   8.286  14.563  0.00  0.00    +0.000 HD
BRANCH   4  13
ATOM     12  N   UNL     1      48.491   3.270  18.453  0.00  0.00    +0.000 N 
ATOM     13  C   UNL     1      47.562   3.510  17.479  0.00  0.00    +0.000 C 
ATOM     14  O   UNL     1      46.520   2.873  17.421  0.00  0.00    +0.000 OA
ATOM     15  H   UNL     1      48.239   2.589  19.159  0.00  0.00    +0.000 HD
ATOM     16  H   UNL     1      49.215   3.934  18.686  0.00  0.00    +0.000 HD
ENDBRANCH   4  13
ENDBRANCH   1   8
BRANCH   1  17
ATOM     17  C   UNL     1      47.175   7.796  12.275  0.00  0.00    +0.000 A 
ATOM     18  C   UNL     1      46.181   8.777  12.420  0.00  0.00    +0.000 A 
ATOM     19  C   UNL     1      44.887   8.580  11.943  0.00  0.00    +0.000 A 
ATOM     20  C   UNL     1      44.557   7.393  11.296  0.00  0.00    +0.000 A 
ATOM     21  C   UNL     1      45.506   6.375  11.119  0.00  0.00    +0.000 A 
ATOM     22  C   UNL     1      46.797   6.592  11.647  0.00  0.00    +0.000 A 
BRANCH  21  23
ATOM     23  C   UNL     1      45.192   5.147  10.358  0.00  0.00    +0.000 A 
ATOM     24  C   UNL     1      44.114   4.325  10.696  0.00  0.00    +0.000 A 
ATOM     25  N   UNL     1      43.740   3.209  10.023  0.00  0.00    +0.000 NA
ATOM     26  C   UNL     1      44.464   2.885   8.932  0.00  0.00    +0.000 A 
ATOM     27  C   UNL     1      45.549   3.619   8.486  0.00  0.00    +0.000 A 
ATOM     28  C   UNL     1      45.916   4.755   9.223  0.00  0.00    +0.000 A 
BRANCH  27  29
ATOM     29  C   UNL     1      46.290   3.218   7.249  0.00  0.00    +0.000 C 
ATOM     30  F   UNL     1      45.478   2.868   6.214  0.00  0.00    +0.000 F 
ATOM     31  F   UNL     1      47.083   4.219   6.776  0.00  0.00    +0.000 F 
ATOM     32  F   UNL     1      47.114   2.155   7.454  0.00  0.00    +0.000 F 
ENDBRANCH  27  29
ENDBRANCH  21  23
ENDBRANCH   1  17
TORSDOF 5
ENDMDL
MODEL 5
REMARK VINA RESULT:    -7.550      4.715      8.530
REMARK INTER + INTRA:         -10.769
REMARK INTER:                  -9.635
REMARK INTRA:                  -1.134
REMARK UNBOUND:                -1.012
REMARK  Name = 
REMARK  5 active torsions:
REMARK  status: ('A' for Active; 'I' for Inactive)
REMARK    1  A    between atoms: C_2  and  C_4
REMARK    2  A    between atoms: N_8  and  C_9
REMARK    3  A    between atoms: C_9  and  C_10
REMARK    4  A    between atoms: C_14  and  C_15
REMARK    5  A    between atoms: C_19  and  C_20
REMARK                            x       y       z     vdW  Elec       q    Type
REMARK                         _______ _______ _______ _____ _____    ______ ____
ROOT
ATOM      1  C   UNL     1      49.215   7.878  12.607  0.00  0.00    +0.000 C 
ATOM      2  C   UNL     1      50.107   7.850  11.367  0.00  0.00    +0.000 C 
ATOM      3  C   UNL     1      49.908   9.131  12.100  0.00  0.00    +0.000 C 
ENDROOT
BRANCH   1   8
ATOM      4  C   UNL     1      49.065   7.430  17.813  0.00  0.00    +0.000 A 
ATOM      5  C   UNL     1      48.578   8.438  16.986  0.00  0.00    +0.000 A 
ATOM      6  C   UNL     1      48.798   8.356  15.609  0.00  0.00    +0.000 A 
ATOM      7  C   UNL     1      49.475   7.263  15.083  0.00  0.00    +0.000 A 
ATOM      8  N   UNL     1      49.725   7.091  13.727  0.00  0.00    +0.000 N 
ATOM      9  N   UNL     1      49.967   6.288  15.881  0.00  0.00    +0.000 NA
ATOM     10  C   UNL     1      49.773   6.398  17.222  0.00  0.00    +0.000 A 
ATOM     11  H   UNL     1      50.161   6.190  13.570  0.00  0.00    +0.000 HD
BRANCH   4  13
ATOM     12  N   UNL     1      47.593   7.520  19.737  0.00  0.00    +0.000 N 
ATOM     13  C   UNL     1      48.878   7.435  19.278  0.00  0.00    +0.000 C 
ATOM     14  O   UNL     1      49.824   7.328  20.046  0.00  0.00    +0.000 OA
ATOM     15  H   UNL     1      47.463   7.421  20.736  0.00  0.00    +0.000 HD
ATOM     16  H   UNL     1      46.794   7.344  19.145  0.00  0.00    +0.000 HD
ENDBRANCH   4  13
ENDBRANCH   1   8
BRANCH   1  17
ATOM     17  C   UNL     1      47.701   7.833  12.409  0.00  0.00    +0.000 A 
ATOM     18  C   UNL     1      46.949   9.011  12.266  0.00  0.00    +0.000 A 
ATOM     19  C   UNL     1      45.587   8.975  11.974  0.00  0.00    +0.000 A 
ATOM     20  C   UNL     1      44.943   7.752  11.807  0.00  0.00    +0.000 A 
ATOM     21  C   UNL     1      45.640   6.542  11.937  0.00  0.00    +0.000 A 
ATOM     22  C   UNL     1      47.009   6.613  12.269  0.00  0.00    +0.000 A 
BRANCH  21  23
ATOM     23  C   UNL     1      44.986   5.241  11.677  0.00  0.00    +0.000 A 
ATOM     24  C   UNL     1      44.029   4.709  12.545  0.00  0.00    +0.000 A 
ATOM     25  N   UNL     1      43.359   3.546  12.354  0.00  0.00    +0.000 NA
ATOM     26  C   UNL     1      43.634   2.865  11.223  0.00  0.00    +0.000 A 
ATOM     27  C   UNL     1      44.554   3.285  10.278  0.00  0.00    +0.000 A 
ATOM     28  C   UNL     1      45.241   4.484  10.525  0.00  0.00    +0.000 A 
BRANCH  27  29
ATOM     29  C   UNL     1      44.789   2.494   9.031  0.00  0.00    +0.000 C 
ATOM     30  F   UNL     1      44.204   1.264   9.044  0.00  0.00    +0.000 F 
ATOM     31  F   UNL     1      44.307   3.122   7.923  0.00  0.00    +0.000 F 
ATOM     32  F   UNL     1      46.110   2.276   8.790  0.00  0.00    +0.000 F 
ENDBRANCH  27  29
ENDBRANCH  21  23
ENDBRANCH   1  17
TORSDOF 5
ENDMDL
MODEL 6
REMARK VINA RESULT:    -7.453      6.135      8.690
REMARK INTER + INTRA:         -10.643
REMARK INTER:                 -10.069
REMARK INTRA:                  -0.574
REMARK UNBOUND:                -1.012
REMARK  Name = 
REMARK  5 active torsions:
REMARK  status: ('A' for Active; 'I' for Inactive)
REMARK    1  A    between atoms: C_2  and  C_4
REMARK    2  A    between atoms: N_8  and  C_9
REMARK    3  A    between atoms: C_9  and  C_10
REMARK    4  A    between atoms: C_14  and  C_15
REMARK    5  A    between atoms: C_19  and  C_20
REMARK                            x       y       z     vdW  Elec       q    Type
REMARK                         _______ _______ _______ _____ _____    ______ ____
ROOT
ATOM      1  C   UNL     1      43.817  10.434  10.974  0.00  0.00    +0.000 C 
ATOM      2  C   UNL     1      44.526  11.447  10.075  0.00  0.00    +0.000 C 
ATOM      3  C   UNL     1      43.642  10.413   9.466  0.00  0.00    +0.000 C 
ENDROOT
BRANCH   1   8
ATOM      4  C   UNL     1      38.681  10.999  11.763  0.00  0.00    +0.000 A 
ATOM      5  C   UNL     1      39.368  10.494  10.663  0.00  0.00    +0.000 A 
ATOM      6  C   UNL     1      40.765  10.504  10.669  0.00  0.00    +0.000 A 
ATOM      7  C   UNL     1      41.446  10.992  11.777  0.00  0.00    +0.000 A 
ATOM      8  N   UNL     1      42.831  11.025  11.877  0.00  0.00    +0.000 N 
ATOM      9  N   UNL     1      40.786  11.500  12.842  0.00  0.00    +0.000 NA
ATOM     10  C   UNL     1      39.427  11.514  12.808  0.00  0.00    +0.000 A 
ATOM     11  H   UNL     1      43.102  11.348  12.799  0.00  0.00    +0.000 HD
BRANCH   4  13
ATOM     12  N   UNL     1      36.520  10.443  10.814  0.00  0.00    +0.000 N 
ATOM     13  C   UNL     1      37.206  11.027  11.842  0.00  0.00    +0.000 C 
ATOM     14  O   UNL     1      36.624  11.516  12.801  0.00  0.00    +0.000 OA
ATOM     15  H   UNL     1      35.515  10.375  10.923  0.00  0.00    +0.000 HD
ATOM     16  H   UNL     1      36.959   9.812  10.159  0.00  0.00    +0.000 HD
ENDBRANCH   4  13
ENDBRANCH   1   8
BRANCH   1  17
ATOM     17  C   UNL     1      44.641   9.290  11.561  0.00  0.00    +0.000 A 
ATOM     18  C   UNL     1      45.651   9.530  12.508  0.00  0.00    +0.000 A 
ATOM     19  C   UNL     1      46.330   8.484  13.130  0.00  0.00    +0.000 A 
ATOM     20  C   UNL     1      46.006   7.165  12.825  0.00  0.00    +0.000 A 
ATOM     21  C   UNL     1      45.007   6.862  11.888  0.00  0.00    +0.000 A 
ATOM     22  C   UNL     1      44.364   7.943  11.250  0.00  0.00    +0.000 A 
BRANCH  21  23
ATOM     23  C   UNL     1      44.595   5.467  11.621  0.00  0.00    +0.000 A 
ATOM     24  C   UNL     1      43.779   4.756  12.504  0.00  0.00    +0.000 A 
ATOM     25  N   UNL     1      43.328   3.492  12.309  0.00  0.00    +0.000 NA
ATOM     26  C   UNL     1      43.689   2.889  11.157  0.00  0.00    +0.000 A 
ATOM     27  C   UNL     1      44.486   3.485  10.196  0.00  0.00    +0.000 A 
ATOM     28  C   UNL     1      44.949   4.786  10.447  0.00  0.00    +0.000 A 
BRANCH  27  29
ATOM     29  C   UNL     1      44.823   2.769   8.927  0.00  0.00    +0.000 C 
ATOM     30  F   UNL     1      44.339   1.497   8.870  0.00  0.00    +0.000 F 
ATOM     31  F   UNL     1      44.327   3.403   7.828  0.00  0.00    +0.000 F 
ATOM     32  F   UNL     1      46.165   2.667   8.724  0.00  0.00    +0.000 F 
ENDBRANCH  27  29
ENDBRANCH  21  23
ENDBRANCH   1  17
TORSDOF 5
ENDMDL
MODEL 7
REMARK VINA RESULT:    -7.440      4.135      8.361
REMARK INTER + INTRA:         -10.626
REMARK INTER:                  -9.646
REMARK INTRA:                  -0.980
REMARK UNBOUND:                -1.012
REMARK  Name = 
REMARK  5 active torsions:
REMARK  status: ('A' for Active; 'I' for Inactive)
REMARK    1  A    between atoms: C_2  and  C_4
REMARK    2  A    between atoms: N_8  and  C_9
REMARK    3  A    between atoms: C_9  and  C_10
REMARK    4  A    between atoms: C_14  and  C_15
REMARK    5  A    between atoms: C_19  and  C_20
REMARK                            x       y       z     vdW  Elec       q    Type
REMARK                         _______ _______ _______ _____ _____    ______ ____
ROOT
ATOM      1  C   UNL     1      48.703   5.158  17.529  0.00  0.00    +0.000 C 
ATOM      2  C   UNL     1      47.646   5.542  18.564  0.00  0.00    +0.000 C 
ATOM      3  C   UNL     1      47.487   4.283  17.784  0.00  0.00    +0.000 C 
ENDROOT
BRANCH   1   8
ATOM      4  C   UNL     1      52.464   1.534  17.736  0.00  0.00    +0.000 A 
ATOM      5  C   UNL     1      51.175   1.459  17.216  0.00  0.00    +0.000 A 
ATOM      6  C   UNL     1      50.326   2.562  17.336  0.00  0.00    +0.000 A 
ATOM      7  C   UNL     1      50.785   3.721  17.948  0.00  0.00    +0.000 A 
ATOM      8  N   UNL     1      50.017   4.869  18.097  0.00  0.00    +0.000 N 
ATOM      9  N   UNL     1      52.030   3.796  18.470  0.00  0.00    +0.000 NA
ATOM     10  C   UNL     1      52.834   2.704  18.374  0.00  0.00    +0.000 A 
ATOM     11  H   UNL     1      50.581   5.610  18.500  0.00  0.00    +0.000 HD
BRANCH   4  13
ATOM     12  N   UNL     1      53.194  -0.664  18.455  0.00  0.00    +0.000 N 
ATOM     13  C   UNL     1      53.428   0.418  17.652  0.00  0.00    +0.000 C 
ATOM     14  O   UNL     1      54.371   0.442  16.873  0.00  0.00    +0.000 OA
ATOM     15  H   UNL     1      53.798  -1.465  18.320  0.00  0.00    +0.000 HD
ATOM     16  H   UNL     1      52.302  -0.825  18.900  0.00  0.00    +0.000 HD
ENDBRANCH   4  13
ENDBRANCH   1   8
BRANCH   1  17
ATOM     17  C   UNL     1      48.714   5.905  16.197  0.00  0.00    +0.000 A 
ATOM     18  C   UNL     1      49.781   6.745  15.841  0.00  0.00    +0.000 A 
ATOM     19  C   UNL     1      49.852   7.342  14.584  0.00  0.00    +0.000 A 
ATOM     20  C   UNL     1      48.855   7.102  13.643  0.00  0.00    +0.000 A 
ATOM     21  C   UNL     1      47.763   6.273  13.939  0.00  0.00    +0.000 A 
ATOM     22  C   UNL     1      47.703   5.714  15.233  0.00  0.00    +0.000 A 
BRANCH  21  23
ATOM     23  C   UNL     1      46.743   5.943  12.919  0.00  0.00    +0.000 A 
ATOM     24  C   UNL     1      46.840   6.403  11.603  0.00  0.00    +0.000 A 
ATOM     25  N   UNL     1      45.969   6.110  10.606  0.00  0.00    +0.000 NA
ATOM     26  C   UNL     1      44.941   5.294  10.917  0.00  0.00    +0.000 A 
ATOM     27  C   UNL     1      44.736   4.764  12.179  0.00  0.00    +0.000 A 
ATOM     28  C   UNL     1      45.648   5.109  13.188  0.00  0.00    +0.000 A 
BRANCH  27  29
ATOM     29  C   UNL     1      43.589   3.841  12.447  0.00  0.00    +0.000 C 
ATOM     30  F   UNL     1      42.951   4.087  13.624  0.00  0.00    +0.000 F 
ATOM     31  F   UNL     1      42.630   3.916  11.483  0.00  0.00    +0.000 F 
ATOM     32  F   UNL     1      43.969   2.535  12.494  0.00  0.00    +0.000 F 
ENDBRANCH  27  29
ENDBRANCH  21  23
ENDBRANCH   1  17
TORSDOF 5
ENDMDL
MODEL 8
REMARK VINA RESULT:    -7.414      4.593      8.610
REMARK INTER + INTRA:         -10.593
REMARK INTER:                  -9.829
REMARK INTRA:                  -0.763
REMARK UNBOUND:                -1.012
REMARK  Name = 
REMARK  5 active torsions:
REMARK  status: ('A' for Active; 'I' for Inactive)
REMARK    1  A    between atoms: C_2  and  C_4
REMARK    2  A    between atoms: N_8  and  C_9
REMARK    3  A    between atoms: C_9  and  C_10
REMARK    4  A    between atoms: C_14  and  C_15
REMARK    5  A    between atoms: C_19  and  C_20
REMARK                            x       y       z     vdW  Elec       q    Type
REMARK                         _______ _______ _______ _____ _____    ______ ____
ROOT
ATOM      1  C   UNL     1      48.125   4.761  17.007  0.00  0.00    +0.000 C 
ATOM      2  C   UNL     1      47.178   5.137  18.146  0.00  0.00    +0.000 C 
ATOM      3  C   UNL     1      47.147   3.756  17.588  0.00  0.00    +0.000 C 
ENDROOT
BRANCH   1   8
ATOM      4  C   UNL     1      52.355   1.746  17.592  0.00  0.00    +0.000 A 
ATOM      5  C   UNL     1      51.026   1.394  17.378  0.00  0.00    +0.000 A 
ATOM      6  C   UNL     1      50.056   2.397  17.315  0.00  0.00    +0.000 A 
ATOM      7  C   UNL     1      50.432   3.728  17.439  0.00  0.00    +0.000 A 
ATOM      8  N   UNL     1      49.540   4.790  17.373  0.00  0.00    +0.000 N 
ATOM      9  N   UNL     1      51.719   4.078  17.664  0.00  0.00    +0.000 NA
ATOM     10  C   UNL     1      52.647   3.089  17.756  0.00  0.00    +0.000 A 
ATOM     11  H   UNL     1      50.046   5.668  17.412  0.00  0.00    +0.000 HD
BRANCH   4  13
ATOM     12  N   UNL     1      53.197  -0.381  18.394  0.00  0.00    +0.000 N 
ATOM     13  C   UNL     1      53.445   0.753  17.672  0.00  0.00    +0.000 C 
ATOM     14  O   UNL     1      54.508   0.918  17.089  0.00  0.00    +0.000 OA
ATOM     15  H   UNL     1      53.908  -1.102  18.360  0.00  0.00    +0.000 HD
ATOM     16  H   UNL     1      52.263  -0.662  18.657  0.00  0.00    +0.000 HD
ENDBRANCH   4  13
ENDBRANCH   1   8
BRANCH   1  17
ATOM     17  C   UNL     1      47.800   5.266  15.603  0.00  0.00    +0.000 A 
ATOM     18  C   UNL     1      48.572   6.268  14.992  0.00  0.00    +0.000 A 
ATOM     19  C   UNL     1      48.351   6.656  13.672  0.00  0.00    +0.000 A 
ATOM     20  C   UNL     1      47.353   6.038  12.923  0.00  0.00    +0.000 A 
ATOM     21  C   UNL     1      46.549   5.030  13.477  0.00  0.00    +0.000 A 
ATOM     22  C   UNL     1      46.775   4.688  14.827  0.00  0.00    +0.000 A 
BRANCH  21  23
ATOM     23  C   UNL     1      45.545   4.308  12.666  0.00  0.00    +0.000 A 
ATOM     24  C   UNL     1      44.390   3.765  13.235  0.00  0.00    +0.000 A 
ATOM     25  N   UNL     1      43.408   3.126  12.553  0.00  0.00    +0.000 NA
ATOM     26  C   UNL     1      43.560   3.030  11.216  0.00  0.00    +0.000 A 
ATOM     27  C   UNL     1      44.652   3.532  10.529  0.00  0.00    +0.000 A 
ATOM     28  C   UNL     1      45.656   4.167  11.276  0.00  0.00    +0.000 A 
BRANCH  27  29
ATOM     29  C   UNL     1      44.742   3.415   9.041  0.00  0.00    +0.000 C 
ATOM     30  F   UNL     1      44.097   4.411   8.373  0.00  0.00    +0.000 F 
ATOM     31  F   UNL     1      46.030   3.445   8.598  0.00  0.00    +0.000 F 
ATOM     32  F   UNL     1      44.215   2.251   8.574  0.00  0.00    +0.000 F 
ENDBRANCH  27  29
ENDBRANCH  21  23
ENDBRANCH   1  17
TORSDOF 5
ENDMDL
MODEL 9
REMARK VINA RESULT:    -7.013      4.921      7.565
REMARK INTER + INTRA:         -10.074
REMARK INTER:                  -8.947
REMARK INTRA:                  -1.127
REMARK UNBOUND:                -1.012
REMARK  Name = 
REMARK  5 active torsions:
REMARK  status: ('A' for Active; 'I' for Inactive)
REMARK    1  A    between atoms: C_2  and  C_4
REMARK    2  A    between atoms: N_8  and  C_9
REMARK    3  A    between atoms: C_9  and  C_10
REMARK    4  A    between atoms: C_14  and  C_15
REMARK    5  A    between atoms: C_19  and  C_20
REMARK                            x       y       z     vdW  Elec       q    Type
REMARK                         _______ _______ _______ _____ _____    ______ ____
ROOT
ATOM      1  C   UNL     1      48.287   8.423  13.649  0.00  0.00    +0.000 C 
ATOM      2  C   UNL     1      48.267   8.542  15.172  0.00  0.00    +0.000 C 
ATOM      3  C   UNL     1      48.682   7.259  14.540  0.00  0.00    +0.000 C 
ENDROOT
BRANCH   1   8
ATOM      4  C   UNL     1      52.109   8.460  10.084  0.00  0.00    +0.000 A 
ATOM      5  C   UNL     1      51.421   7.390  10.649  0.00  0.00    +0.000 A 
ATOM      6  C   UNL     1      50.469   7.639  11.640  0.00  0.00    +0.000 A 
ATOM      7  C   UNL     1      50.205   8.946  12.030  0.00  0.00    +0.000 A 
ATOM      8  N   UNL     1      49.266   9.287  12.995  0.00  0.00    +0.000 N 
ATOM      9  N   UNL     1      50.882   9.989  11.499  0.00  0.00    +0.000 NA
ATOM     10  C   UNL     1      51.828   9.729  10.558  0.00  0.00    +0.000 A 
ATOM     11  H   UNL     1      49.190  10.296  13.059  0.00  0.00    +0.000 HD
BRANCH   4  13
ATOM     12  N   UNL     1      52.856   7.381   8.045  0.00  0.00    +0.000 N 
ATOM     13  C   UNL     1      53.129   8.289   9.030  0.00  0.00    +0.000 C 
ATOM     14  O   UNL     1      54.155   8.956   9.016  0.00  0.00    +0.000 OA
ATOM     15  H   UNL     1      53.511   7.342   7.273  0.00  0.00    +0.000 HD
ATOM     16  H   UNL     1      51.928   7.019   7.885  0.00  0.00    +0.000 HD
ENDBRANCH   4  13
ENDBRANCH   1   8
BRANCH   1  17
ATOM     17  C   UNL     1      46.953   8.275  12.920  0.00  0.00    +0.000 A 
ATOM     18  C   UNL     1      46.133   9.387  12.666  0.00  0.00    +0.000 A 
ATOM     19  C   UNL     1      44.971   9.278  11.905  0.00  0.00    +0.000 A 
ATOM     20  C   UNL     1      44.603   8.047  11.369  0.00  0.00    +0.000 A 
ATOM     21  C   UNL     1      45.380   6.900  11.587  0.00  0.00    +0.000 A 
ATOM     22  C   UNL     1      46.531   7.038  12.392  0.00  0.00    +0.000 A 
BRANCH  21  23
ATOM     23  C   UNL     1      45.046   5.607  10.952  0.00  0.00    +0.000 A 
ATOM     24  C   UNL     1      44.051   4.769  11.463  0.00  0.00    +0.000 A 
ATOM     25  N   UNL     1      43.662   3.591  10.914  0.00  0.00    +0.000 NA
ATOM     26  C   UNL     1      44.280   3.218   9.774  0.00  0.00    +0.000 A 
ATOM     27  C   UNL     1      45.274   3.961   9.161  0.00  0.00    +0.000 A 
ATOM     28  C   UNL     1      45.662   5.162   9.773  0.00  0.00    +0.000 A 
BRANCH  27  29
ATOM     29  C   UNL     1      45.897   3.501   7.881  0.00  0.00    +0.000 C 
ATOM     30  F   UNL     1      46.562   2.318   7.989  0.00  0.00    +0.000 F 
ATOM     31  F   UNL     1      44.975   3.319   6.895  0.00  0.00    +0.000 F 
ATOM     32  F   UNL     1      46.799   4.392   7.388  0.00  0.00    +0.000 F 
ENDBRANCH  27  29
ENDBRANCH  21  23
ENDBRANCH   1  17
TORSDOF 5
ENDMDL
