MODEL 1
REMARK VINA RESULT:    -9.090      0.000      0.000
REMARK INTER + INTRA:         -14.175
REMARK INTER:                 -13.075
REMARK INTRA:                  -1.100
REMARK UNBOUND:                -1.100
REMARK  Name = 
REMARK  8 active torsions:
REMARK  status: ('A' for Active; 'I' for Inactive)
REMARK    1  A    between atoms: C_2  and  C_21
REMARK    2  A    between atoms: N_3  and  C_4
REMARK    3  A    between atoms: C_4  and  C_5
REMARK    4  A    between atoms: C_8  and  C_9
REMARK    5  A    between atoms: C_9  and  N_10
REMARK    6  A    between atoms: N_10  and  C_11
REMARK    7  A    between atoms: C_11  and  C_12
REMARK    8  A    between atoms: C_15  and  O_16
REMARK                            x       y       z     vdW  Elec       q    Type
REMARK                         _______ _______ _______ _____ _____    ______ ____
ROOT
ATOM      1  C   UNL     1      47.041   6.232  12.693  0.00  0.00    +0.000 A 
ATOM      2  C   UNL     1      46.786   6.631  11.377  0.00  0.00    +0.000 A 
ATOM      3  C   UNL     1      45.630   6.205  10.719  0.00  0.00    +0.000 A 
ATOM      4  C   UNL     1      44.699   5.380  11.368  0.00  0.00    +0.000 A 
ATOM      5  C   UNL     1      44.936   5.013  12.698  0.00  0.00    +0.000 A 
ATOM      6  C   UNL     1      46.092   5.440  13.357  0.00  0.00    +0.000 A 
ENDROOT
BRANCH   1   7
ATOM      7  C   UNL     1      48.302   6.672  13.389  0.00  0.00    +0.000 C 
BRANCH   7  10
ATOM      8  O   UNL     1      50.353   6.750  15.330  0.00  0.00    +0.000 OA
ATOM      9  C   UNL     1      49.180   6.775  15.694  0.00  0.00    +0.000 C 
ATOM     10  N   UNL     1      48.132   6.683  14.818  0.00  0.00    +0.000 N 
ATOM     11  H   UNL     1      47.195   6.887  15.144  0.00  0.00    +0.000 HD
BRANCH   9  12
ATOM     12  C   UNL     1      48.820   6.847  17.116  0.00  0.00    +0.000 A 
ATOM     13  C   UNL     1      48.336   8.035  17.647  0.00  0.00    +0.000 A 
ATOM     14  S   UNL     1      47.982   7.946  19.312  0.00  0.00    +0.000 S 
ATOM     15  C   UNL     1      48.420   6.303  19.375  0.00  0.00    +0.000 A 
ATOM     16  N   UNL     1      48.316   5.594  20.531  0.00  0.00    +0.000 NA
ATOM     17  C   UNL     1      48.646   4.350  20.428  0.00  0.00    +0.000 A 
ATOM     18  N   UNL     1      49.082   3.753  19.275  0.00  0.00    +0.000 N 
ATOM     19  C   UNL     1      49.276   4.447  18.102  0.00  0.00    +0.000 A 
ATOM     20  O   UNL     1      49.801   3.909  17.131  0.00  0.00    +0.000 OA
ATOM     21  C   UNL     1      48.866   5.838  18.149  0.00  0.00    +0.000 A 
ATOM     22  H   UNL     1      49.360   2.783  19.265  0.00  0.00    +0.000 HD
ENDBRANCH   9  12
ENDBRANCH   7  10
ENDBRANCH   1   7
BRANCH   4  23
ATOM     23  C   UNL     1      43.463   4.901  10.640  0.00  0.00    +0.000 C 
BRANCH  23  24
ATOM     24  N   UNL     1      43.824   4.328   9.346  0.00  0.00    +0.000 NA
ATOM     25  H   UNL     1      44.509   4.931   8.893  0.00  0.00    +0.000 HD
BRANCH  24  26
ATOM     26  C   UNL     1      44.337   2.965   9.454  0.00  0.00    +0.000 C 
BRANCH  26  27
ATOM     27  C   UNL     1      45.169   2.617   8.202  0.00  0.00    +0.000 C 
ATOM     28  C   UNL     1      46.052   3.808   7.786  0.00  0.00    +0.000 C 
ATOM     29  C   UNL     1      46.928   3.472   6.580  0.00  0.00    +0.000 C 
ATOM     30  C   UNL     1      47.768   2.221   6.823  0.00  0.00    +0.000 C 
ATOM     31  C   UNL     1      46.893   1.036   7.214  0.00  0.00    +0.000 C 
ATOM     32  C   UNL     1      46.031   1.358   8.428  0.00  0.00    +0.000 C 
BRANCH  30  33
ATOM     33  O   UNL     1      48.508   1.905   5.650  0.00  0.00    +0.000 OA
ATOM     34  H   UNL     1      49.267   2.511   5.602  0.00  0.00    +0.000 HD
ENDBRANCH  30  33
ENDBRANCH  26  27
ENDBRANCH  24  26
ENDBRANCH  23  24
ENDBRANCH   4  23
TORSDOF 8
ENDMDL
MODEL 2
REMARK VINA RESULT:    -8.950      1.310      1.592
REMARK INTER + INTRA:         -13.975
REMARK INTER:                 -12.904
REMARK INTRA:                  -1.070
REMARK UNBOUND:                -1.100
REMARK  Name = 
REMARK  8 active torsions:
REMARK  status: ('A' for Active; 'I' for Inactive)
REMARK    1  A    between atoms: C_2  and  C_21
REMARK    2  A    between atoms: N_3  and  C_4
REMARK    3  A    between atoms: C_4  and  C_5
REMARK    4  A    between atoms: C_8  and  C_9
REMARK    5  A    between atoms: C_9  and  N_10
REMARK    6  A    between atoms: N_10  and  C_11
REMARK    7  A    between atoms: C_11  and  C_12
REMARK    8  A    between atoms: C_15  and  O_16
REMARK                            x       y       z     vdW  Elec       q    Type
REMARK                         _______ _______ _______ _____ _____    ______ ____
ROOT
ATOM      1  C   UNL     1      46.484   7.241  12.726  0.00  0.00    +0.000 A 
ATOM      2  C   UNL     1      46.614   5.853  12.607  0.00  0.00    +0.000 A 
ATOM      3  C   UNL     1      45.657   5.110  11.913  0.00  0.00    +0.000 A 
ATOM      4  C   UNL     1      44.556   5.740  11.312  0.00  0.00    +0.000 A 
ATOM      5  C   UNL     1      44.448   7.133  11.399  0.00  0.00    +0.000 A 
ATOM      6  C   UNL     1      45.406   7.877  12.093  0.00  0.00    +0.000 A 
ENDROOT
BRANCH   1   7
ATOM      7  C   UNL     1      47.504   8.035  13.499  0.00  0.00    +0.000 C 
BRANCH   7  10
ATOM      8  O   UNL     1      50.073   7.131  14.250  0.00  0.00    +0.000 OA
ATOM      9  C   UNL     1      49.140   7.013  15.040  0.00  0.00    +0.000 C 
ATOM     10  N   UNL     1      47.856   7.374  14.727  0.00  0.00    +0.000 N 
ATOM     11  H   UNL     1      47.163   7.425  15.465  0.00  0.00    +0.000 HD
BRANCH   9  12
ATOM     12  C   UNL     1      49.330   6.414  16.368  0.00  0.00    +0.000 A 
ATOM     13  C   UNL     1      50.106   7.068  17.315  0.00  0.00    +0.000 A 
ATOM     14  S   UNL     1      50.232   6.228  18.793  0.00  0.00    +0.000 S 
ATOM     15  C   UNL     1      49.218   4.980  18.235  0.00  0.00    +0.000 A 
ATOM     16  N   UNL     1      48.884   3.936  19.041  0.00  0.00    +0.000 NA
ATOM     17  C   UNL     1      48.079   3.082  18.504  0.00  0.00    +0.000 A 
ATOM     18  N   UNL     1      47.588   3.170  17.228  0.00  0.00    +0.000 N 
ATOM     19  C   UNL     1      47.959   4.165  16.353  0.00  0.00    +0.000 A 
ATOM     20  O   UNL     1      47.609   4.131  15.176  0.00  0.00    +0.000 OA
ATOM     21  C   UNL     1      48.818   5.184  16.926  0.00  0.00    +0.000 A 
ATOM     22  H   UNL     1      46.989   2.451  16.851  0.00  0.00    +0.000 HD
ENDBRANCH   9  12
ENDBRANCH   7  10
ENDBRANCH   1   7
BRANCH   4  23
ATOM     23  C   UNL     1      43.510   4.924  10.586  0.00  0.00    +0.000 C 
BRANCH  23  24
ATOM     24  N   UNL     1      44.038   4.433   9.317  0.00  0.00    +0.000 NA
ATOM     25  H   UNL     1      44.862   4.976   9.065  0.00  0.00    +0.000 HD
BRANCH  24  26
ATOM     26  C   UNL     1      44.357   3.008   9.350  0.00  0.00    +0.000 C 
BRANCH  26  27
ATOM     27  C   UNL     1      45.211   2.632   8.121  0.00  0.00    +0.000 C 
ATOM     28  C   UNL     1      46.098   3.815   7.691  0.00  0.00    +0.000 C 
ATOM     29  C   UNL     1      46.994   3.452   6.508  0.00  0.00    +0.000 C 
ATOM     30  C   UNL     1      47.832   2.209   6.795  0.00  0.00    +0.000 C 
ATOM     31  C   UNL     1      46.953   1.031   7.199  0.00  0.00    +0.000 C 
ATOM     32  C   UNL     1      46.071   1.381   8.390  0.00  0.00    +0.000 C 
BRANCH  30  33
ATOM     33  O   UNL     1      48.592   1.867   5.642  0.00  0.00    +0.000 OA
ATOM     34  H   UNL     1      48.942   2.689   5.258  0.00  0.00    +0.000 HD
ENDBRANCH  30  33
ENDBRANCH  26  27
ENDBRANCH  24  26
ENDBRANCH  23  24
ENDBRANCH   4  23
TORSDOF 8
ENDMDL
MODEL 3
REMARK VINA RESULT:    -8.844      1.268      1.901
REMARK INTER + INTRA:         -13.821
REMARK INTER:                 -12.790
REMARK INTRA:                  -1.031
REMARK UNBOUND:                -1.100
REMARK  Name = 
REMARK  8 active torsions:
REMARK  status: ('A' for Active; 'I' for Inactive)
REMARK    1  A    between atoms: C_2  and  C_21
REMARK    2  A    between atoms: N_3  and  C_4
REMARK    3  A    between atoms: C_4  and  C_5
REMARK    4  A    between atoms: C_8  and  C_9
REMARK    5  A    between atoms: C_9  and  N_10
REMARK    6  A    between atoms: N_10  and  C_11
REMARK    7  A    between atoms: C_11  and  C_12
REMARK    8  A    between atoms: C_15  and  O_16
REMARK                            x       y       z     vdW  Elec       q    Type
REMARK                         _______ _______ _______ _____ _____    ______ ____
ROOT
ATOM      1  C   UNL     1      46.867   6.267  12.874  0.00  0.00    +0.000 A 
ATOM      2  C   UNL     1      46.738   6.621  11.527  0.00  0.00    +0.000 A 
ATOM      3  C   UNL     1      45.652   6.167  10.776  0.00  0.00    +0.000 A 
ATOM      4  C   UNL     1      44.663   5.360  11.359  0.00  0.00    +0.000 A 
ATOM      5  C   UNL     1      44.773   5.039  12.718  0.00  0.00    +0.000 A 
ATOM      6  C   UNL     1      45.860   5.493  13.470  0.00  0.00    +0.000 A 
ENDROOT
BRANCH   1   7
ATOM      7  C   UNL     1      48.054   6.736  13.672  0.00  0.00    +0.000 C 
BRANCH   7  10
ATOM      8  O   UNL     1      50.179   6.634  15.531  0.00  0.00    +0.000 OA
ATOM      9  C   UNL     1      49.051   6.304  15.889  0.00  0.00    +0.000 C 
ATOM     10  N   UNL     1      47.984   6.272  15.032  0.00  0.00    +0.000 N 
ATOM     11  H   UNL     1      47.049   6.168  15.410  0.00  0.00    +0.000 HD
BRANCH   9  12
ATOM     12  C   UNL     1      48.782   5.860  17.263  0.00  0.00    +0.000 A 
ATOM     13  C   UNL     1      48.984   4.531  17.611  0.00  0.00    +0.000 A 
ATOM     14  S   UNL     1      48.610   4.187  19.239  0.00  0.00    +0.000 S 
ATOM     15  C   UNL     1      48.208   5.811  19.549  0.00  0.00    +0.000 A 
ATOM     16  N   UNL     1      47.828   6.213  20.791  0.00  0.00    +0.000 NA
ATOM     17  C   UNL     1      47.589   7.478  20.895  0.00  0.00    +0.000 A 
ATOM     18  N   UNL     1      47.683   8.375  19.864  0.00  0.00    +0.000 N 
ATOM     19  C   UNL     1      47.988   8.002  18.575  0.00  0.00    +0.000 A 
ATOM     20  O   UNL     1      47.924   8.810  17.654  0.00  0.00    +0.000 OA
ATOM     21  C   UNL     1      48.322   6.599  18.416  0.00  0.00    +0.000 A 
ATOM     22  H   UNL     1      47.447   9.347  19.998  0.00  0.00    +0.000 HD
ENDBRANCH   9  12
ENDBRANCH   7  10
ENDBRANCH   1   7
BRANCH   4  23
ATOM     23  C   UNL     1      43.504   4.850  10.532  0.00  0.00    +0.000 C 
BRANCH  23  24
ATOM     24  N   UNL     1      43.981   4.326   9.256  0.00  0.00    +0.000 NA
ATOM     25  H   UNL     1      44.760   4.896   8.930  0.00  0.00    +0.000 HD
BRANCH  24  26
ATOM     26  C   UNL     1      44.374   2.922   9.332  0.00  0.00    +0.000 C 
BRANCH  26  27
ATOM     27  C   UNL     1      45.220   2.545   8.097  0.00  0.00    +0.000 C 
ATOM     28  C   UNL     1      46.047   3.751   7.615  0.00  0.00    +0.000 C 
ATOM     29  C   UNL     1      46.935   3.391   6.425  0.00  0.00    +0.000 C 
ATOM     30  C   UNL     1      47.831   2.193   6.731  0.00  0.00    +0.000 C 
ATOM     31  C   UNL     1      47.011   0.992   7.188  0.00  0.00    +0.000 C 
ATOM     32  C   UNL     1      46.137   1.340   8.386  0.00  0.00    +0.000 C 
BRANCH  30  33
ATOM     33  O   UNL     1      48.583   1.849   5.574  0.00  0.00    +0.000 OA
ATOM     34  H   UNL     1      49.024   0.999   5.745  0.00  0.00    +0.000 HD
ENDBRANCH  30  33
ENDBRANCH  26  27
ENDBRANCH  24  26
ENDBRANCH  23  24
ENDBRANCH   4  23
TORSDOF 8
ENDMDL
MODEL 4
REMARK VINA RESULT:    -8.223      1.998      2.451
REMARK INTER + INTRA:         -12.929
REMARK INTER:                 -11.790
REMARK INTRA:                  -1.139
REMARK UNBOUND:                -1.100
REMARK  Name = 
REMARK  8 active torsions:
REMARK  status: ('A' for Active; 'I' for Inactive)
REMARK    1  A    between atoms: C_2  and  C_21
REMARK    2  A    between atoms: N_3  and  C_4
REMARK    3  A    between atoms: C_4  and  C_5
REMARK    4  A    between atoms: C_8  and  C_9
REMARK    5  A    between atoms: C_9  and  N_10
REMARK    6  A    between atoms: N_10  and  C_11
REMARK    7  A    between atoms: C_11  and  C_12
REMARK    8  A    between atoms: C_15  and  O_16
REMARK                            x       y       z     vdW  Elec       q    Type
REMARK                         _______ _______ _______ _____ _____    ______ ____
ROOT
ATOM      1  C   UNL     1      47.322   6.501  12.882  0.00  0.00    +0.000 A 
ATOM      2  C   UNL     1      47.173   5.346  13.657  0.00  0.00    +0.000 A 
ATOM      3  C   UNL     1      46.267   4.353  13.280  0.00  0.00    +0.000 A 
ATOM      4  C   UNL     1      45.498   4.488  12.114  0.00  0.00    +0.000 A 
ATOM      5  C   UNL     1      45.676   5.626  11.319  0.00  0.00    +0.000 A 
ATOM      6  C   UNL     1      46.584   6.620  11.695  0.00  0.00    +0.000 A 
ENDROOT
BRANCH   1   7
ATOM      7  C   UNL     1      48.281   7.582  13.307  0.00  0.00    +0.000 C 
BRANCH   7  10
ATOM      8  O   UNL     1      50.220   9.066  14.726  0.00  0.00    +0.000 OA
ATOM      9  C   UNL     1      50.194   7.844  14.845  0.00  0.00    +0.000 C 
ATOM     10  N   UNL     1      49.323   7.052  14.146  0.00  0.00    +0.000 N 
ATOM     11  H   UNL     1      49.219   6.079  14.410  0.00  0.00    +0.000 HD
BRANCH   9  12
ATOM     12  C   UNL     1      51.147   7.137  15.711  0.00  0.00    +0.000 A 
ATOM     13  C   UNL     1      52.508   7.375  15.578  0.00  0.00    +0.000 A 
ATOM     14  S   UNL     1      53.469   6.462  16.651  0.00  0.00    +0.000 S 
ATOM     15  C   UNL     1      52.098   5.749  17.362  0.00  0.00    +0.000 A 
ATOM     16  N   UNL     1      52.221   4.872  18.394  0.00  0.00    +0.000 NA
ATOM     17  C   UNL     1      51.099   4.437  18.863  0.00  0.00    +0.000 A 
ATOM     18  N   UNL     1      49.865   4.789  18.384  0.00  0.00    +0.000 N 
ATOM     19  C   UNL     1      49.695   5.612  17.294  0.00  0.00    +0.000 A 
ATOM     20  O   UNL     1      48.582   5.791  16.808  0.00  0.00    +0.000 OA
ATOM     21  C   UNL     1      50.923   6.174  16.765  0.00  0.00    +0.000 A 
ATOM     22  H   UNL     1      49.024   4.387  18.769  0.00  0.00    +0.000 HD
ENDBRANCH   9  12
ENDBRANCH   7  10
ENDBRANCH   1   7
BRANCH   4  23
ATOM     23  C   UNL     1      44.499   3.420  11.727  0.00  0.00    +0.000 C 
BRANCH  23  24
ATOM     24  N   UNL     1      44.977   2.670  10.569  0.00  0.00    +0.000 NA
ATOM     25  H   UNL     1      44.832   1.675  10.733  0.00  0.00    +0.000 HD
BRANCH  24  26
ATOM     26  C   UNL     1      44.334   3.082   9.325  0.00  0.00    +0.000 C 
BRANCH  26  27
ATOM     27  C   UNL     1      45.194   2.645   8.120  0.00  0.00    +0.000 C 
ATOM     28  C   UNL     1      46.086   3.805   7.640  0.00  0.00    +0.000 C 
ATOM     29  C   UNL     1      46.989   3.385   6.480  0.00  0.00    +0.000 C 
ATOM     30  C   UNL     1      47.823   2.155   6.831  0.00  0.00    +0.000 C 
ATOM     31  C   UNL     1      46.939   1.000   7.286  0.00  0.00    +0.000 C 
ATOM     32  C   UNL     1      46.050   1.407   8.454  0.00  0.00    +0.000 C 
BRANCH  30  33
ATOM     33  O   UNL     1      48.589   1.757   5.701  0.00  0.00    +0.000 OA
ATOM     34  H   UNL     1      48.464   0.801   5.575  0.00  0.00    +0.000 HD
ENDBRANCH  30  33
ENDBRANCH  26  27
ENDBRANCH  24  26
ENDBRANCH  23  24
ENDBRANCH   4  23
TORSDOF 8
ENDMDL
MODEL 5
REMARK VINA RESULT:    -8.159      1.682      2.197
REMARK INTER + INTRA:         -12.836
REMARK INTER:                 -11.790
REMARK INTRA:                  -1.046
REMARK UNBOUND:                -1.100
REMARK  Name = 
REMARK  8 active torsions:
REMARK  status: ('A' for Active; 'I' for Inactive)
REMARK    1  A    between atoms: C_2  and  C_21
REMARK    2  A    between atoms: N_3  and  C_4
REMARK    3  A    between atoms: C_4  and  C_5
REMARK    4  A    between atoms: C_8  and  C_9
REMARK    5  A    between atoms: C_9  and  N_10
REMARK    6  A    between atoms: N_10  and  C_11
REMARK    7  A    between atoms: C_11  and  C_12
REMARK    8  A    between atoms: C_15  and  O_16
REMARK                            x       y       z     vdW  Elec       q    Type
REMARK                         _______ _______ _______ _____ _____    ______ ____
ROOT
ATOM      1  C   UNL     1      45.851   7.378  12.647  0.00  0.00    +0.000 A 
ATOM      2  C   UNL     1      44.702   7.433  11.851  0.00  0.00    +0.000 A 
ATOM      3  C   UNL     1      44.042   6.260  11.478  0.00  0.00    +0.000 A 
ATOM      4  C   UNL     1      44.510   5.008  11.903  0.00  0.00    +0.000 A 
ATOM      5  C   UNL     1      45.638   4.957  12.731  0.00  0.00    +0.000 A 
ATOM      6  C   UNL     1      46.298   6.130  13.106  0.00  0.00    +0.000 A 
ENDROOT
BRANCH   1   7
ATOM      7  C   UNL     1      46.574   8.644  13.024  0.00  0.00    +0.000 C 
BRANCH   7  10
ATOM      8  O   UNL     1      48.887   9.934  14.007  0.00  0.00    +0.000 OA
ATOM      9  C   UNL     1      48.199   9.266  14.775  0.00  0.00    +0.000 C 
ATOM     10  N   UNL     1      47.098   8.565  14.362  0.00  0.00    +0.000 N 
ATOM     11  H   UNL     1      46.467   8.181  15.056  0.00  0.00    +0.000 HD
BRANCH   9  12
ATOM     12  C   UNL     1      48.551   9.125  16.195  0.00  0.00    +0.000 A 
ATOM     13  C   UNL     1      48.546  10.240  17.022  0.00  0.00    +0.000 A 
ATOM     14  S   UNL     1      48.992   9.899  18.632  0.00  0.00    +0.000 S 
ATOM     15  C   UNL     1      49.165   8.240  18.292  0.00  0.00    +0.000 A 
ATOM     16  N   UNL     1      49.505   7.358  19.269  0.00  0.00    +0.000 NA
ATOM     17  C   UNL     1      49.564   6.127  18.882  0.00  0.00    +0.000 A 
ATOM     18  N   UNL     1      49.327   5.702  17.602  0.00  0.00    +0.000 N 
ATOM     19  C   UNL     1      49.056   6.566  16.566  0.00  0.00    +0.000 A 
ATOM     20  O   UNL     1      48.989   6.161  15.409  0.00  0.00    +0.000 OA
ATOM     21  C   UNL     1      48.921   7.956  16.959  0.00  0.00    +0.000 A 
ATOM     22  H   UNL     1      49.425   4.729  17.351  0.00  0.00    +0.000 HD
ENDBRANCH   9  12
ENDBRANCH   7  10
ENDBRANCH   1   7
BRANCH   4  23
ATOM     23  C   UNL     1      43.806   3.740  11.472  0.00  0.00    +0.000 C 
BRANCH  23  24
ATOM     24  N   UNL     1      44.762   2.794  10.905  0.00  0.00    +0.000 NA
ATOM     25  H   UNL     1      44.782   1.954  11.480  0.00  0.00    +0.000 HD
BRANCH  24  26
ATOM     26  C   UNL     1      44.467   2.455   9.516  0.00  0.00    +0.000 C 
BRANCH  26  27
ATOM     27  C   UNL     1      45.772   2.425   8.692  0.00  0.00    +0.000 C 
ATOM     28  C   UNL     1      46.052   1.005   8.167  0.00  0.00    +0.000 C 
ATOM     29  C   UNL     1      47.311   0.957   7.303  0.00  0.00    +0.000 C 
ATOM     30  C   UNL     1      47.250   1.967   6.160  0.00  0.00    +0.000 C 
ATOM     31  C   UNL     1      46.994   3.376   6.680  0.00  0.00    +0.000 C 
ATOM     32  C   UNL     1      45.729   3.434   7.527  0.00  0.00    +0.000 C 
BRANCH  30  33
ATOM     33  O   UNL     1      48.470   1.939   5.430  0.00  0.00    +0.000 OA
ATOM     34  H   UNL     1      49.178   1.663   6.038  0.00  0.00    +0.000 HD
ENDBRANCH  30  33
ENDBRANCH  26  27
ENDBRANCH  24  26
ENDBRANCH  23  24
ENDBRANCH   4  23
TORSDOF 8
ENDMDL
MODEL 6
REMARK VINA RESULT:    -8.117      2.227      2.892
REMARK INTER + INTRA:         -12.775
REMARK INTER:                 -11.843
REMARK INTRA:                  -0.933
REMARK UNBOUND:                -1.100
REMARK  Name = 
REMARK  8 active torsions:
REMARK  status: ('A' for Active; 'I' for Inactive)
REMARK    1  A    between atoms: C_2  and  C_21
REMARK    2  A    between atoms: N_3  and  C_4
REMARK    3  A    between atoms: C_4  and  C_5
REMARK    4  A    between atoms: C_8  and  C_9
REMARK    5  A    between atoms: C_9  and  N_10
REMARK    6  A    between atoms: N_10  and  C_11
REMARK    7  A    between atoms: C_11  and  C_12
REMARK    8  A    between atoms: C_15  and  O_16
REMARK                            x       y       z     vdW  Elec       q    Type
REMARK                         _______ _______ _______ _____ _____    ______ ____
ROOT
ATOM      1  C   UNL     1      47.558   6.153  14.244  0.00  0.00    +0.000 A 
ATOM      2  C   UNL     1      47.190   4.858  14.625  0.00  0.00    +0.000 A 
ATOM      3  C   UNL     1      46.397   4.072  13.786  0.00  0.00    +0.000 A 
ATOM      4  C   UNL     1      45.964   4.560  12.543  0.00  0.00    +0.000 A 
ATOM      5  C   UNL     1      46.365   5.842  12.147  0.00  0.00    +0.000 A 
ATOM      6  C   UNL     1      47.159   6.628  12.986  0.00  0.00    +0.000 A 
ENDROOT
BRANCH   1   7
ATOM      7  C   UNL     1      48.390   7.007  15.164  0.00  0.00    +0.000 C 
BRANCH   7  10
ATOM      8  O   UNL     1      48.932   6.456  17.881  0.00  0.00    +0.000 OA
ATOM      9  C   UNL     1      49.675   6.000  17.016  0.00  0.00    +0.000 C 
ATOM     10  N   UNL     1      49.512   6.270  15.684  0.00  0.00    +0.000 N 
ATOM     11  H   UNL     1      50.035   5.732  15.002  0.00  0.00    +0.000 HD
BRANCH   9  12
ATOM     12  C   UNL     1      50.839   5.172  17.363  0.00  0.00    +0.000 A 
ATOM     13  C   UNL     1      52.033   5.778  17.729  0.00  0.00    +0.000 A 
ATOM     14  S   UNL     1      53.280   4.671  18.085  0.00  0.00    +0.000 S 
ATOM     15  C   UNL     1      52.255   3.341  17.806  0.00  0.00    +0.000 A 
ATOM     16  N   UNL     1      52.702   2.067  17.972  0.00  0.00    +0.000 NA
ATOM     17  C   UNL     1      51.810   1.157  17.764  0.00  0.00    +0.000 A 
ATOM     18  N   UNL     1      50.516   1.405  17.390  0.00  0.00    +0.000 N 
ATOM     19  C   UNL     1      50.043   2.672  17.135  0.00  0.00    +0.000 A 
ATOM     20  O   UNL     1      48.920   2.842  16.667  0.00  0.00    +0.000 OA
ATOM     21  C   UNL     1      50.989   3.736  17.410  0.00  0.00    +0.000 A 
ATOM     22  H   UNL     1      49.874   0.648  17.206  0.00  0.00    +0.000 HD
ENDBRANCH   9  12
ENDBRANCH   7  10
ENDBRANCH   1   7
BRANCH   4  23
ATOM     23  C   UNL     1      45.083   3.713  11.653  0.00  0.00    +0.000 C 
BRANCH  23  24
ATOM     24  N   UNL     1      45.193   4.149  10.264  0.00  0.00    +0.000 NA
ATOM     25  H   UNL     1      46.167   4.092   9.972  0.00  0.00    +0.000 HD
BRANCH  24  26
ATOM     26  C   UNL     1      44.344   3.378   9.360  0.00  0.00    +0.000 C 
BRANCH  26  27
ATOM     27  C   UNL     1      45.178   2.860   8.170  0.00  0.00    +0.000 C 
ATOM     28  C   UNL     1      46.129   3.956   7.653  0.00  0.00    +0.000 C 
ATOM     29  C   UNL     1      47.006   3.453   6.507  0.00  0.00    +0.000 C 
ATOM     30  C   UNL     1      47.775   2.193   6.897  0.00  0.00    +0.000 C 
ATOM     31  C   UNL     1      46.834   1.100   7.388  0.00  0.00    +0.000 C 
ATOM     32  C   UNL     1      45.969   1.590   8.543  0.00  0.00    +0.000 C 
BRANCH  30  33
ATOM     33  O   UNL     1      48.518   1.720   5.779  0.00  0.00    +0.000 OA
ATOM     34  H   UNL     1      49.373   1.390   6.105  0.00  0.00    +0.000 HD
ENDBRANCH  30  33
ENDBRANCH  26  27
ENDBRANCH  24  26
ENDBRANCH  23  24
ENDBRANCH   4  23
TORSDOF 8
ENDMDL
MODEL 7
REMARK VINA RESULT:    -8.085      1.728      2.903
REMARK INTER + INTRA:         -12.729
REMARK INTER:                 -11.795
REMARK INTRA:                  -0.934
REMARK UNBOUND:                -1.100
REMARK  Name = 
REMARK  8 active torsions:
REMARK  status: ('A' for Active; 'I' for Inactive)
REMARK    1  A    between atoms: C_2  and  C_21
REMARK    2  A    between atoms: N_3  and  C_4
REMARK    3  A    between atoms: C_4  and  C_5
REMARK    4  A    between atoms: C_8  and  C_9
REMARK    5  A    between atoms: C_9  and  N_10
REMARK    6  A    between atoms: N_10  and  C_11
REMARK    7  A    between atoms: C_11  and  C_12
REMARK    8  A    between atoms: C_15  and  O_16
REMARK                            x       y       z     vdW  Elec       q    Type
REMARK                         _______ _______ _______ _____ _____    ______ ____
ROOT
ATOM      1  C   UNL     1      46.827   4.384  14.058  0.00  0.00    +0.000 A 
ATOM      2  C   UNL     1      46.165   3.368  13.362  0.00  0.00    +0.000 A 
ATOM      3  C   UNL     1      45.375   3.669  12.251  0.00  0.00    +0.000 A 
ATOM      4  C   UNL     1      45.239   4.993  11.804  0.00  0.00    +0.000 A 
ATOM      5  C   UNL     1      45.933   6.004  12.479  0.00  0.00    +0.000 A 
ATOM      6  C   UNL     1      46.725   5.703  13.590  0.00  0.00    +0.000 A 
ENDROOT
BRANCH   1   7
ATOM      7  C   UNL     1      47.656   4.057  15.272  0.00  0.00    +0.000 C 
BRANCH   7  10
ATOM      8  O   UNL     1      49.780   5.014  16.870  0.00  0.00    +0.000 OA
ATOM      9  C   UNL     1      48.679   5.554  16.947  0.00  0.00    +0.000 C 
ATOM     10  N   UNL     1      47.588   5.112  16.248  0.00  0.00    +0.000 N 
ATOM     11  H   UNL     1      46.759   5.693  16.206  0.00  0.00    +0.000 HD
BRANCH   9  12
ATOM     12  C   UNL     1      48.444   6.689  17.850  0.00  0.00    +0.000 A 
ATOM     13  C   UNL     1      48.350   6.475  19.218  0.00  0.00    +0.000 A 
ATOM     14  S   UNL     1      48.062   7.897  20.114  0.00  0.00    +0.000 S 
ATOM     15  C   UNL     1      48.096   8.857  18.709  0.00  0.00    +0.000 A 
ATOM     16  N   UNL     1      47.945  10.206  18.780  0.00  0.00    +0.000 NA
ATOM     17  C   UNL     1      48.030  10.814  17.644  0.00  0.00    +0.000 A 
ATOM     18  N   UNL     1      48.239  10.193  16.441  0.00  0.00    +0.000 N 
ATOM     19  C   UNL     1      48.320   8.825  16.313  0.00  0.00    +0.000 A 
ATOM     20  O   UNL     1      48.366   8.298  15.204  0.00  0.00    +0.000 OA
ATOM     21  C   UNL     1      48.289   8.098  17.567  0.00  0.00    +0.000 A 
ATOM     22  H   UNL     1      48.260  10.719  15.581  0.00  0.00    +0.000 HD
ENDBRANCH   9  12
ENDBRANCH   7  10
ENDBRANCH   1   7
BRANCH   4  23
ATOM     23  C   UNL     1      44.359   5.314  10.617  0.00  0.00    +0.000 C 
BRANCH  23  24
ATOM     24  N   UNL     1      44.945   4.781   9.390  0.00  0.00    +0.000 NA
ATOM     25  H   UNL     1      45.955   4.710   9.505  0.00  0.00    +0.000 HD
BRANCH  24  26
ATOM     26  C   UNL     1      44.383   3.489   9.010  0.00  0.00    +0.000 C 
BRANCH  26  27
ATOM     27  C   UNL     1      45.231   2.857   7.886  0.00  0.00    +0.000 C 
ATOM     28  C   UNL     1      46.129   3.916   7.221  0.00  0.00    +0.000 C 
ATOM     29  C   UNL     1      47.020   3.307   6.139  0.00  0.00    +0.000 C 
ATOM     30  C   UNL     1      47.846   2.142   6.678  0.00  0.00    +0.000 C 
ATOM     31  C   UNL     1      46.955   1.083   7.317  0.00  0.00    +0.000 C 
ATOM     32  C   UNL     1      46.078   1.680   8.410  0.00  0.00    +0.000 C 
BRANCH  30  33
ATOM     33  O   UNL     1      48.600   1.560   5.622  0.00  0.00    +0.000 OA
ATOM     34  H   UNL     1      49.164   2.254   5.238  0.00  0.00    +0.000 HD
ENDBRANCH  30  33
ENDBRANCH  26  27
ENDBRANCH  24  26
ENDBRANCH  23  24
ENDBRANCH   4  23
TORSDOF 8
ENDMDL
MODEL 8
REMARK VINA RESULT:    -7.952      2.116      2.969
REMARK INTER + INTRA:         -12.539
REMARK INTER:                 -11.489
REMARK INTRA:                  -1.050
REMARK UNBOUND:                -1.100
REMARK  Name = 
REMARK  8 active torsions:
REMARK  status: ('A' for Active; 'I' for Inactive)
REMARK    1  A    between atoms: C_2  and  C_21
REMARK    2  A    between atoms: N_3  and  C_4
REMARK    3  A    between atoms: C_4  and  C_5
REMARK    4  A    between atoms: C_8  and  C_9
REMARK    5  A    between atoms: C_9  and  N_10
REMARK    6  A    between atoms: N_10  and  C_11
REMARK    7  A    between atoms: C_11  and  C_12
REMARK    8  A    between atoms: C_15  and  O_16
REMARK                            x       y       z     vdW  Elec       q    Type
REMARK                         _______ _______ _______ _____ _____    ______ ____
ROOT
ATOM      1  C   UNL     1      46.710   6.465  12.715  0.00  0.00    +0.000 A 
ATOM      2  C   UNL     1      46.236   5.354  13.421  0.00  0.00    +0.000 A 
ATOM      3  C   UNL     1      45.311   4.486  12.836  0.00  0.00    +0.000 A 
ATOM      4  C   UNL     1      44.850   4.703  11.529  0.00  0.00    +0.000 A 
ATOM      5  C   UNL     1      45.355   5.793  10.810  0.00  0.00    +0.000 A 
ATOM      6  C   UNL     1      46.281   6.662  11.394  0.00  0.00    +0.000 A 
ENDROOT
BRANCH   1   7
ATOM      7  C   UNL     1      47.687   7.413  13.360  0.00  0.00    +0.000 C 
BRANCH   7  10
ATOM      8  O   UNL     1      48.500   8.340  15.901  0.00  0.00    +0.000 OA
ATOM      9  C   UNL     1      48.847   7.221  15.530  0.00  0.00    +0.000 C 
ATOM     10  N   UNL     1      48.541   6.725  14.291  0.00  0.00    +0.000 N 
ATOM     11  H   UNL     1      48.693   5.741  14.101  0.00  0.00    +0.000 HD
BRANCH   9  12
ATOM     12  C   UNL     1      49.673   6.354  16.381  0.00  0.00    +0.000 A 
ATOM     13  C   UNL     1      49.068   5.414  17.203  0.00  0.00    +0.000 A 
ATOM     14  S   UNL     1      50.172   4.504  18.130  0.00  0.00    +0.000 S 
ATOM     15  C   UNL     1      51.503   5.303  17.432  0.00  0.00    +0.000 A 
ATOM     16  N   UNL     1      52.777   4.968  17.770  0.00  0.00    +0.000 NA
ATOM     17  C   UNL     1      53.689   5.626  17.137  0.00  0.00    +0.000 A 
ATOM     18  N   UNL     1      53.443   6.600  16.206  0.00  0.00    +0.000 N 
ATOM     19  C   UNL     1      52.173   7.025  15.889  0.00  0.00    +0.000 A 
ATOM     20  O   UNL     1      51.998   7.994  15.156  0.00  0.00    +0.000 OA
ATOM     21  C   UNL     1      51.108   6.277  16.530  0.00  0.00    +0.000 A 
ATOM     22  H   UNL     1      54.199   7.106  15.770  0.00  0.00    +0.000 HD
ENDBRANCH   9  12
ENDBRANCH   7  10
ENDBRANCH   1   7
BRANCH   4  23
ATOM     23  C   UNL     1      43.827   3.774  10.914  0.00  0.00    +0.000 C 
BRANCH  23  24
ATOM     24  N   UNL     1      44.404   2.449  10.705  0.00  0.00    +0.000 NA
ATOM     25  H   UNL     1      43.948   1.784  11.328  0.00  0.00    +0.000 HD
BRANCH  24  26
ATOM     26  C   UNL     1      44.304   2.000   9.319  0.00  0.00    +0.000 C 
BRANCH  26  27
ATOM     27  C   UNL     1      45.639   2.253   8.587  0.00  0.00    +0.000 C 
ATOM     28  C   UNL     1      46.201   0.941   8.011  0.00  0.00    +0.000 C 
ATOM     29  C   UNL     1      47.497   1.170   7.234  0.00  0.00    +0.000 C 
ATOM     30  C   UNL     1      47.321   2.222   6.142  0.00  0.00    +0.000 C 
ATOM     31  C   UNL     1      46.785   3.529   6.715  0.00  0.00    +0.000 C 
ATOM     32  C   UNL     1      45.483   3.309   7.474  0.00  0.00    +0.000 C 
BRANCH  30  33
ATOM     33  O   UNL     1      48.567   2.456   5.497  0.00  0.00    +0.000 OA
ATOM     34  H   UNL     1      48.928   3.293   5.836  0.00  0.00    +0.000 HD
ENDBRANCH  30  33
ENDBRANCH  26  27
ENDBRANCH  24  26
ENDBRANCH  23  24
ENDBRANCH   4  23
TORSDOF 8
ENDMDL
MODEL 9
REMARK VINA RESULT:    -7.856      2.323      3.109
REMARK INTER + INTRA:         -12.400
REMARK INTER:                 -11.434
REMARK INTRA:                  -0.966
REMARK UNBOUND:                -1.100
REMARK  Name = 
REMARK  8 active torsions:
REMARK  status: ('A' for Active; 'I' for Inactive)
REMARK    1  A    between atoms: C_2  and  C_21
REMARK    2  A    between atoms: N_3  and  C_4
REMARK    3  A    between atoms: C_4  and  C_5
REMARK    4  A    between atoms: C_8  and  C_9
REMARK    5  A    between atoms: C_9  and  N_10
REMARK    6  A    between atoms: N_10  and  C_11
REMARK    7  A    between atoms: C_11  and  C_12
REMARK    8  A    between atoms: C_15  and  O_16
REMARK                            x       y       z     vdW  Elec       q    Type
REMARK                         _______ _______ _______ _____ _____    ______ ____
ROOT
ATOM      1  C   UNL     1      45.756   7.108  12.624  0.00  0.00    +0.000 A 
ATOM      2  C   UNL     1      46.148   5.933  13.275  0.00  0.00    +0.000 A 
ATOM      3  C   UNL     1      45.525   4.719  12.979  0.00  0.00    +0.000 A 
ATOM      4  C   UNL     1      44.505   4.651  12.019  0.00  0.00    +0.000 A 
ATOM      5  C   UNL     1      44.140   5.821  11.341  0.00  0.00    +0.000 A 
ATOM      6  C   UNL     1      44.764   7.036  11.636  0.00  0.00    +0.000 A 
ENDROOT
BRANCH   1   7
ATOM      7  C   UNL     1      46.413   8.420  12.966  0.00  0.00    +0.000 C 
BRANCH   7  10
ATOM      8  O   UNL     1      47.680   9.174  15.376  0.00  0.00    +0.000 OA
ATOM      9  C   UNL     1      48.328   8.582  14.516  0.00  0.00    +0.000 C 
ATOM     10  N   UNL     1      47.800   8.236  13.301  0.00  0.00    +0.000 N 
ATOM     11  H   UNL     1      48.313   7.598  12.703  0.00  0.00    +0.000 HD
BRANCH   9  12
ATOM     12  C   UNL     1      49.746   8.256  14.713  0.00  0.00    +0.000 A 
ATOM     13  C   UNL     1      50.720   8.954  14.013  0.00  0.00    +0.000 A 
ATOM     14  S   UNL     1      52.309   8.438  14.352  0.00  0.00    +0.000 S 
ATOM     15  C   UNL     1      51.756   7.292  15.482  0.00  0.00    +0.000 A 
ATOM     16  N   UNL     1      52.630   6.516  16.177  0.00  0.00    +0.000 NA
ATOM     17  C   UNL     1      52.077   5.717  17.027  0.00  0.00    +0.000 A 
ATOM     18  N   UNL     1      50.727   5.615  17.236  0.00  0.00    +0.000 N 
ATOM     19  C   UNL     1      49.803   6.323  16.502  0.00  0.00    +0.000 A 
ATOM     20  O   UNL     1      48.601   6.100  16.620  0.00  0.00    +0.000 OA
ATOM     21  C   UNL     1      50.374   7.278  15.572  0.00  0.00    +0.000 A 
ATOM     22  H   UNL     1      50.352   4.944  17.890  0.00  0.00    +0.000 HD
ENDBRANCH   9  12
ENDBRANCH   7  10
ENDBRANCH   1   7
BRANCH   4  23
ATOM     23  C   UNL     1      43.816   3.337  11.724  0.00  0.00    +0.000 C 
BRANCH  23  24
ATOM     24  N   UNL     1      44.654   2.504  10.868  0.00  0.00    +0.000 NA
ATOM     25  H   UNL     1      44.512   1.525  11.111  0.00  0.00    +0.000 HD
BRANCH  24  26
ATOM     26  C   UNL     1      44.399   2.717   9.446  0.00  0.00    +0.000 C 
BRANCH  26  27
ATOM     27  C   UNL     1      45.719   2.610   8.653  0.00  0.00    +0.000 C 
ATOM     28  C   UNL     1      45.987   1.152   8.237  0.00  0.00    +0.000 C 
ATOM     29  C   UNL     1      47.262   1.025   7.405  0.00  0.00    +0.000 C 
ATOM     30  C   UNL     1      47.237   1.950   6.190  0.00  0.00    +0.000 C 
ATOM     31  C   UNL     1      46.993   3.397   6.603  0.00  0.00    +0.000 C 
ATOM     32  C   UNL     1      45.714   3.533   7.418  0.00  0.00    +0.000 C 
BRANCH  30  33
ATOM     33  O   UNL     1      48.471   1.853   5.489  0.00  0.00    +0.000 OA
ATOM     34  H   UNL     1      49.021   2.615   5.741  0.00  0.00    +0.000 HD
ENDBRANCH  30  33
ENDBRANCH  26  27
ENDBRANCH  24  26
ENDBRANCH  23  24
ENDBRANCH   4  23
TORSDOF 8
ENDMDL
