MODEL 1
REMARK VINA RESULT:    -9.037      0.000      0.000
REMARK INTER + INTRA:         -13.303
REMARK INTER:                 -12.207
REMARK INTRA:                  -1.096
REMARK UNBOUND:                -1.096
REMARK  Name = 
REMARK  6 active torsions:
REMARK  status: ('A' for Active; 'I' for Inactive)
REMARK    1  A    between atoms: C_2  and  C_4
REMARK    2  A    between atoms: C_7  and  N_8
REMARK    3  A    between atoms: N_8  and  C_9
REMARK    4  A    between atoms: C_9  and  C_10
REMARK    5  A    between atoms: C_10  and  C_13
REMARK    6  A    between atoms: C_17  and  C_18
REMARK                            x       y       z     vdW  Elec       q    Type
REMARK                         _______ _______ _______ _____ _____    ______ ____
ROOT
ATOM      1  C   UNL     1      43.266   5.127  12.559  0.00  0.00    +0.000 C 
ATOM      2  F   UNL     1      42.571   6.280  12.333  0.00  0.00    +0.000 F 
ATOM      3  F   UNL     1      42.640   4.527  13.617  0.00  0.00    +0.000 F 
ENDROOT
BRANCH   1   4
ATOM      4  C   UNL     1      44.736   5.394  12.827  0.00  0.00    +0.000 A 
ATOM      5  C   UNL     1      45.584   4.383  13.291  0.00  0.00    +0.000 A 
ATOM      6  C   UNL     1      46.944   4.634  13.457  0.00  0.00    +0.000 A 
ATOM      7  C   UNL     1      47.472   5.890  13.140  0.00  0.00    +0.000 A 
ATOM      8  C   UNL     1      46.658   6.923  12.644  0.00  0.00    +0.000 A 
ATOM      9  C   UNL     1      45.282   6.655  12.522  0.00  0.00    +0.000 A 
BRANCH   8  10
ATOM     10  C   UNL     1      47.222   8.218  12.209  0.00  0.00    +0.000 A 
ATOM     11  C   UNL     1      48.565   8.368  11.836  0.00  0.00    +0.000 A 
ATOM     12  C   UNL     1      49.074   9.623  11.500  0.00  0.00    +0.000 A 
ATOM     13  C   UNL     1      48.217  10.709  11.529  0.00  0.00    +0.000 A 
ATOM     14  N   UNL     1      46.916  10.621  11.864  0.00  0.00    +0.000 NA
ATOM     15  C   UNL     1      46.458   9.389  12.197  0.00  0.00    +0.000 A 
ENDBRANCH   8  10
ENDBRANCH   1   4
BRANCH   1  16
ATOM     16  C   UNL     1      43.136   4.201  11.323  0.00  0.00    +0.000 C 
BRANCH  16  17
ATOM     17  N   UNL     1      43.760   4.729  10.097  0.00  0.00    +0.000 N 
ATOM     18  H   UNL     1      43.178   5.371   9.562  0.00  0.00    +0.000 HD
BRANCH  17  22
ATOM     19  C   UNL     1      46.369   2.315   7.815  0.00  0.00    +0.000 A 
ATOM     20  C   UNL     1      45.519   1.718   8.745  0.00  0.00    +0.000 A 
ATOM     21  C   UNL     1      44.635   2.509   9.492  0.00  0.00    +0.000 A 
ATOM     22  C   UNL     1      44.560   3.896   9.310  0.00  0.00    +0.000 A 
ATOM     23  C   UNL     1      45.439   4.479   8.390  0.00  0.00    +0.000 A 
ATOM     24  C   UNL     1      46.341   3.701   7.648  0.00  0.00    +0.000 A 
BRANCH  19  26
ATOM     25  N   UNL     1      48.426   2.167   6.524  0.00  0.00    +0.000 N 
ATOM     26  C   UNL     1      47.340   1.509   7.032  0.00  0.00    +0.000 C 
ATOM     27  O   UNL     1      47.198   0.305   6.871  0.00  0.00    +0.000 OA
ATOM     28  H   UNL     1      49.129   1.595   6.073  0.00  0.00    +0.000 HD
ATOM     29  H   UNL     1      48.698   3.087   6.836  0.00  0.00    +0.000 HD
ENDBRANCH  19  26
ENDBRANCH  17  22
ENDBRANCH  16  17
ENDBRANCH   1  16
TORSDOF 6
ENDMDL
MODEL 2
REMARK VINA RESULT:    -8.933      2.497      3.979
REMARK INTER + INTRA:         -13.162
REMARK INTER:                 -12.059
REMARK INTRA:                  -1.103
REMARK UNBOUND:                -1.096
REMARK  Name = 
REMARK  6 active torsions:
REMARK  status: ('A' for Active; 'I' for Inactive)
REMARK    1  A    between atoms: C_2  and  C_4
REMARK    2  A    between atoms: C_7  and  N_8
REMARK    3  A    between atoms: N_8  and  C_9
REMARK    4  A    between atoms: C_9  and  C_10
REMARK    5  A    between atoms: C_10  and  C_13
REMARK    6  A    between atoms: C_17  and  C_18
REMARK                            x       y       z     vdW  Elec       q    Type
REMARK                         _______ _______ _______ _____ _____    ______ ____
ROOT
ATOM      1  C   UNL     1      44.065   4.846  12.446  0.00  0.00    +0.000 C 
ATOM      2  F   UNL     1      43.120   5.315  13.312  0.00  0.00    +0.000 F 
ATOM      3  F   UNL     1      43.905   3.488  12.432  0.00  0.00    +0.000 F 
ENDROOT
BRANCH   1   4
ATOM      4  C   UNL     1      45.466   5.264  12.855  0.00  0.00    +0.000 A 
ATOM      5  C   UNL     1      46.182   6.217  12.123  0.00  0.00    +0.000 A 
ATOM      6  C   UNL     1      47.435   6.639  12.562  0.00  0.00    +0.000 A 
ATOM      7  C   UNL     1      47.973   6.129  13.748  0.00  0.00    +0.000 A 
ATOM      8  C   UNL     1      47.274   5.191  14.527  0.00  0.00    +0.000 A 
ATOM      9  C   UNL     1      46.027   4.754  14.042  0.00  0.00    +0.000 A 
BRANCH   8  10
ATOM     10  C   UNL     1      47.787   4.725  15.832  0.00  0.00    +0.000 A 
ATOM     11  C   UNL     1      47.401   3.504  16.402  0.00  0.00    +0.000 A 
ATOM     12  C   UNL     1      47.854   3.135  17.669  0.00  0.00    +0.000 A 
ATOM     13  C   UNL     1      48.704   3.996  18.340  0.00  0.00    +0.000 A 
ATOM     14  N   UNL     1      49.119   5.174  17.835  0.00  0.00    +0.000 NA
ATOM     15  C   UNL     1      48.649   5.507  16.608  0.00  0.00    +0.000 A 
ENDBRANCH   8  10
ENDBRANCH   1   4
BRANCH   1  16
ATOM     16  C   UNL     1      43.770   5.388  11.024  0.00  0.00    +0.000 C 
BRANCH  16  17
ATOM     17  N   UNL     1      43.473   4.348  10.023  0.00  0.00    +0.000 N 
ATOM     18  H   UNL     1      42.730   3.703  10.284  0.00  0.00    +0.000 HD
BRANCH  17  22
ATOM     19  C   UNL     1      46.462   2.432   7.734  0.00  0.00    +0.000 A 
ATOM     20  C   UNL     1      46.304   3.815   7.639  0.00  0.00    +0.000 A 
ATOM     21  C   UNL     1      45.329   4.462   8.410  0.00  0.00    +0.000 A 
ATOM     22  C   UNL     1      44.515   3.755   9.306  0.00  0.00    +0.000 A 
ATOM     23  C   UNL     1      44.671   2.366   9.368  0.00  0.00    +0.000 A 
ATOM     24  C   UNL     1      45.632   1.704   8.589  0.00  0.00    +0.000 A 
BRANCH  19  26
ATOM     25  N   UNL     1      48.535   2.438   6.460  0.00  0.00    +0.000 N 
ATOM     26  C   UNL     1      47.463   1.714   6.906  0.00  0.00    +0.000 C 
ATOM     27  O   UNL     1      47.358   0.522   6.655  0.00  0.00    +0.000 OA
ATOM     28  H   UNL     1      49.258   1.921   5.977  0.00  0.00    +0.000 HD
ATOM     29  H   UNL     1      48.777   3.340   6.843  0.00  0.00    +0.000 HD
ENDBRANCH  19  26
ENDBRANCH  17  22
ENDBRANCH  16  17
ENDBRANCH   1  16
TORSDOF 6
ENDMDL
MODEL 3
REMARK VINA RESULT:    -8.817      2.350      3.727
REMARK INTER + INTRA:         -13.006
REMARK INTER:                 -11.892
REMARK INTRA:                  -1.113
REMARK UNBOUND:                -1.096
REMARK  Name = 
REMARK  6 active torsions:
REMARK  status: ('A' for Active; 'I' for Inactive)
REMARK    1  A    between atoms: C_2  and  C_4
REMARK    2  A    between atoms: C_7  and  N_8
REMARK    3  A    between atoms: N_8  and  C_9
REMARK    4  A    between atoms: C_9  and  C_10
REMARK    5  A    between atoms: C_10  and  C_13
REMARK    6  A    between atoms: C_17  and  C_18
REMARK                            x       y       z     vdW  Elec       q    Type
REMARK                         _______ _______ _______ _____ _____    ______ ____
ROOT
ATOM      1  C   UNL     1      43.579   4.853  12.444  0.00  0.00    +0.000 C 
ATOM      2  F   UNL     1      42.731   5.862  12.801  0.00  0.00    +0.000 F 
ATOM      3  F   UNL     1      43.194   3.773  13.189  0.00  0.00    +0.000 F 
ENDROOT
BRANCH   1   4
ATOM      4  C   UNL     1      45.032   5.229  12.668  0.00  0.00    +0.000 A 
ATOM      5  C   UNL     1      45.688   6.129  11.822  0.00  0.00    +0.000 A 
ATOM      6  C   UNL     1      46.999   6.515  12.094  0.00  0.00    +0.000 A 
ATOM      7  C   UNL     1      47.657   6.022  13.225  0.00  0.00    +0.000 A 
ATOM      8  C   UNL     1      47.024   5.138  14.114  0.00  0.00    +0.000 A 
ATOM      9  C   UNL     1      45.714   4.735  13.797  0.00  0.00    +0.000 A 
BRANCH   8  10
ATOM     10  C   UNL     1      47.674   4.693  15.365  0.00  0.00    +0.000 A 
ATOM     11  C   UNL     1      47.579   3.377  15.838  0.00  0.00    +0.000 A 
ATOM     12  C   UNL     1      48.147   3.018  17.060  0.00  0.00    +0.000 A 
ATOM     13  C   UNL     1      48.819   3.987  17.784  0.00  0.00    +0.000 A 
ATOM     14  N   UNL     1      48.954   5.262  17.372  0.00  0.00    +0.000 NA
ATOM     15  C   UNL     1      48.379   5.579  16.186  0.00  0.00    +0.000 A 
ENDBRANCH   8  10
ENDBRANCH   1   4
BRANCH   1  16
ATOM     16  C   UNL     1      43.369   4.516  10.945  0.00  0.00    +0.000 C 
BRANCH  16  17
ATOM     17  N   UNL     1      43.741   3.140  10.572  0.00  0.00    +0.000 N 
ATOM     18  H   UNL     1      43.883   2.507  11.356  0.00  0.00    +0.000 HD
BRANCH  17  22
ATOM     19  C   UNL     1      46.536   2.595   7.452  0.00  0.00    +0.000 A 
ATOM     20  C   UNL     1      46.030   1.482   8.123  0.00  0.00    +0.000 A 
ATOM     21  C   UNL     1      45.087   1.652   9.146  0.00  0.00    +0.000 A 
ATOM     22  C   UNL     1      44.610   2.921   9.500  0.00  0.00    +0.000 A 
ATOM     23  C   UNL     1      45.149   4.027   8.832  0.00  0.00    +0.000 A 
ATOM     24  C   UNL     1      46.106   3.872   7.819  0.00  0.00    +0.000 A 
BRANCH  19  26
ATOM     25  N   UNL     1      47.373   3.178   5.243  0.00  0.00    +0.000 N 
ATOM     26  C   UNL     1      47.561   2.451   6.387  0.00  0.00    +0.000 C 
ATOM     27  O   UNL     1      48.546   1.742   6.530  0.00  0.00    +0.000 OA
ATOM     28  H   UNL     1      48.121   3.147   4.562  0.00  0.00    +0.000 HD
ATOM     29  H   UNL     1      46.719   3.944   5.187  0.00  0.00    +0.000 HD
ENDBRANCH  19  26
ENDBRANCH  17  22
ENDBRANCH  16  17
ENDBRANCH   1  16
TORSDOF 6
ENDMDL
MODEL 4
REMARK VINA RESULT:    -8.241      1.592      2.242
REMARK INTER + INTRA:         -12.228
REMARK INTER:                 -11.348
REMARK INTRA:                  -0.880
REMARK UNBOUND:                -1.096
REMARK  Name = 
REMARK  6 active torsions:
REMARK  status: ('A' for Active; 'I' for Inactive)
REMARK    1  A    between atoms: C_2  and  C_4
REMARK    2  A    between atoms: C_7  and  N_8
REMARK    3  A    between atoms: N_8  and  C_9
REMARK    4  A    between atoms: C_9  and  C_10
REMARK    5  A    between atoms: C_10  and  C_13
REMARK    6  A    between atoms: C_17  and  C_18
REMARK                            x       y       z     vdW  Elec       q    Type
REMARK                         _______ _______ _______ _____ _____    ______ ____
ROOT
ATOM      1  C   UNL     1      44.680   4.642  12.348  0.00  0.00    +0.000 C 
ATOM      2  F   UNL     1      44.264   4.476  13.638  0.00  0.00    +0.000 F 
ATOM      3  F   UNL     1      45.635   3.684  12.148  0.00  0.00    +0.000 F 
ENDROOT
BRANCH   1   4
ATOM      4  C   UNL     1      45.201   6.046  12.098  0.00  0.00    +0.000 A 
ATOM      5  C   UNL     1      44.330   7.103  11.813  0.00  0.00    +0.000 A 
ATOM      6  C   UNL     1      44.826   8.396  11.662  0.00  0.00    +0.000 A 
ATOM      7  C   UNL     1      46.193   8.647  11.816  0.00  0.00    +0.000 A 
ATOM      8  C   UNL     1      47.097   7.618  12.129  0.00  0.00    +0.000 A 
ATOM      9  C   UNL     1      46.576   6.316  12.240  0.00  0.00    +0.000 A 
BRANCH   8  10
ATOM     10  C   UNL     1      48.525   7.890  12.396  0.00  0.00    +0.000 A 
ATOM     11  C   UNL     1      49.415   8.300  11.393  0.00  0.00    +0.000 A 
ATOM     12  C   UNL     1      50.770   8.476  11.673  0.00  0.00    +0.000 A 
ATOM     13  C   UNL     1      51.209   8.252  12.965  0.00  0.00    +0.000 A 
ATOM     14  N   UNL     1      50.398   7.872  13.971  0.00  0.00    +0.000 NA
ATOM     15  C   UNL     1      49.090   7.698  13.661  0.00  0.00    +0.000 A 
ENDBRANCH   8  10
ENDBRANCH   1   4
BRANCH   1  16
ATOM     16  C   UNL     1      43.496   4.363  11.388  0.00  0.00    +0.000 C 
BRANCH  16  17
ATOM     17  N   UNL     1      43.740   4.752   9.988  0.00  0.00    +0.000 N 
ATOM     18  H   UNL     1      42.930   5.132   9.502  0.00  0.00    +0.000 HD
BRANCH  17  22
ATOM     19  C   UNL     1      46.439   2.475   7.670  0.00  0.00    +0.000 A 
ATOM     20  C   UNL     1      45.528   1.824   8.501  0.00  0.00    +0.000 A 
ATOM     21  C   UNL     1      44.614   2.570   9.259  0.00  0.00    +0.000 A 
ATOM     22  C   UNL     1      44.571   3.969   9.183  0.00  0.00    +0.000 A 
ATOM     23  C   UNL     1      45.510   4.605   8.363  0.00  0.00    +0.000 A 
ATOM     24  C   UNL     1      46.440   3.870   7.613  0.00  0.00    +0.000 A 
BRANCH  19  26
ATOM     25  N   UNL     1      48.527   2.407   6.423  0.00  0.00    +0.000 N 
ATOM     26  C   UNL     1      47.440   1.714   6.881  0.00  0.00    +0.000 C 
ATOM     27  O   UNL     1      47.322   0.515   6.672  0.00  0.00    +0.000 OA
ATOM     28  H   UNL     1      49.249   1.864   5.969  0.00  0.00    +0.000 HD
ATOM     29  H   UNL     1      48.777   3.319   6.777  0.00  0.00    +0.000 HD
ENDBRANCH  19  26
ENDBRANCH  17  22
ENDBRANCH  16  17
ENDBRANCH   1  16
TORSDOF 6
ENDMDL
MODEL 5
REMARK VINA RESULT:    -8.098      2.171      2.603
REMARK INTER + INTRA:         -12.034
REMARK INTER:                 -11.090
REMARK INTRA:                  -0.944
REMARK UNBOUND:                -1.096
REMARK  Name = 
REMARK  6 active torsions:
REMARK  status: ('A' for Active; 'I' for Inactive)
REMARK    1  A    between atoms: C_2  and  C_4
REMARK    2  A    between atoms: C_7  and  N_8
REMARK    3  A    between atoms: N_8  and  C_9
REMARK    4  A    between atoms: C_9  and  C_10
REMARK    5  A    between atoms: C_10  and  C_13
REMARK    6  A    between atoms: C_17  and  C_18
REMARK                            x       y       z     vdW  Elec       q    Type
REMARK                         _______ _______ _______ _____ _____    ______ ____
ROOT
ATOM      1  C   UNL     1      45.010   6.362  11.454  0.00  0.00    +0.000 C 
ATOM      2  F   UNL     1      45.763   6.568  10.334  0.00  0.00    +0.000 F 
ATOM      3  F   UNL     1      44.344   7.537  11.667  0.00  0.00    +0.000 F 
ENDROOT
BRANCH   1   4
ATOM      4  C   UNL     1      45.861   5.950  12.641  0.00  0.00    +0.000 A 
ATOM      5  C   UNL     1      45.575   4.792  13.371  0.00  0.00    +0.000 A 
ATOM      6  C   UNL     1      46.416   4.395  14.409  0.00  0.00    +0.000 A 
ATOM      7  C   UNL     1      47.561   5.140  14.711  0.00  0.00    +0.000 A 
ATOM      8  C   UNL     1      47.898   6.294  13.983  0.00  0.00    +0.000 A 
ATOM      9  C   UNL     1      47.013   6.693  12.965  0.00  0.00    +0.000 A 
BRANCH   8  10
ATOM     10  C   UNL     1      49.157   7.028  14.226  0.00  0.00    +0.000 A 
ATOM     11  C   UNL     1      49.746   7.116  15.495  0.00  0.00    +0.000 A 
ATOM     12  C   UNL     1      50.897   7.879  15.694  0.00  0.00    +0.000 A 
ATOM     13  C   UNL     1      51.449   8.531  14.606  0.00  0.00    +0.000 A 
ATOM     14  N   UNL     1      50.936   8.470  13.363  0.00  0.00    +0.000 NA
ATOM     15  C   UNL     1      49.810   7.731  13.208  0.00  0.00    +0.000 A 
ENDBRANCH   8  10
ENDBRANCH   1   4
BRANCH   1  16
ATOM     16  C   UNL     1      43.965   5.252  11.170  0.00  0.00    +0.000 C 
BRANCH  16  17
ATOM     17  N   UNL     1      43.757   4.960   9.741  0.00  0.00    +0.000 N 
ATOM     18  H   UNL     1      42.791   5.028   9.426  0.00  0.00    +0.000 HD
BRANCH  17  22
ATOM     19  C   UNL     1      46.157   1.967   7.973  0.00  0.00    +0.000 A 
ATOM     20  C   UNL     1      45.219   1.612   8.942  0.00  0.00    +0.000 A 
ATOM     21  C   UNL     1      44.404   2.596   9.519  0.00  0.00    +0.000 A 
ATOM     22  C   UNL     1      44.486   3.938   9.126  0.00  0.00    +0.000 A 
ATOM     23  C   UNL     1      45.451   4.278   8.171  0.00  0.00    +0.000 A 
ATOM     24  C   UNL     1      46.285   3.306   7.599  0.00  0.00    +0.000 A 
BRANCH  19  26
ATOM     25  N   UNL     1      46.807  -0.358   7.667  0.00  0.00    +0.000 N 
ATOM     26  C   UNL     1      47.058   0.954   7.368  0.00  0.00    +0.000 C 
ATOM     27  O   UNL     1      47.965   1.266   6.609  0.00  0.00    +0.000 OA
ATOM     28  H   UNL     1      47.365  -1.046   7.178  0.00  0.00    +0.000 HD
ATOM     29  H   UNL     1      45.939  -0.664   8.080  0.00  0.00    +0.000 HD
ENDBRANCH  19  26
ENDBRANCH  17  22
ENDBRANCH  16  17
ENDBRANCH   1  16
TORSDOF 6
ENDMDL
MODEL 6
REMARK VINA RESULT:    -7.825      1.814      2.827
REMARK INTER + INTRA:         -11.666
REMARK INTER:                 -10.801
REMARK INTRA:                  -0.865
REMARK UNBOUND:                -1.096
REMARK  Name = 
REMARK  6 active torsions:
REMARK  status: ('A' for Active; 'I' for Inactive)
REMARK    1  A    between atoms: C_2  and  C_4
REMARK    2  A    between atoms: C_7  and  N_8
REMARK    3  A    between atoms: N_8  and  C_9
REMARK    4  A    between atoms: C_9  and  C_10
REMARK    5  A    between atoms: C_10  and  C_13
REMARK    6  A    between atoms: C_17  and  C_18
REMARK                            x       y       z     vdW  Elec       q    Type
REMARK                         _______ _______ _______ _____ _____    ______ ____
ROOT
ATOM      1  C   UNL     1      45.174   5.912  12.113  0.00  0.00    +0.000 C 
ATOM      2  F   UNL     1      44.488   5.730  13.279  0.00  0.00    +0.000 F 
ATOM      3  F   UNL     1      46.037   4.855  12.029  0.00  0.00    +0.000 F 
ENDROOT
BRANCH   1   4
ATOM      4  C   UNL     1      45.887   7.251  12.079  0.00  0.00    +0.000 A 
ATOM      5  C   UNL     1      45.195   8.447  12.299  0.00  0.00    +0.000 A 
ATOM      6  C   UNL     1      45.886   9.657  12.338  0.00  0.00    +0.000 A 
ATOM      7  C   UNL     1      47.275   9.679  12.179  0.00  0.00    +0.000 A 
ATOM      8  C   UNL     1      48.010   8.497  11.984  0.00  0.00    +0.000 A 
ATOM      9  C   UNL     1      47.285   7.294  11.911  0.00  0.00    +0.000 A 
BRANCH   8  10
ATOM     10  C   UNL     1      49.486   8.500  11.919  0.00  0.00    +0.000 A 
ATOM     11  C   UNL     1      50.204   7.686  11.031  0.00  0.00    +0.000 A 
ATOM     12  C   UNL     1      51.598   7.667  11.052  0.00  0.00    +0.000 A 
ATOM     13  C   UNL     1      52.254   8.481  11.959  0.00  0.00    +0.000 A 
ATOM     14  N   UNL     1      51.617   9.293  12.824  0.00  0.00    +0.000 NA
ATOM     15  C   UNL     1      50.262   9.277  12.785  0.00  0.00    +0.000 A 
ENDBRANCH   8  10
ENDBRANCH   1   4
BRANCH   1  16
ATOM     16  C   UNL     1      44.186   5.834  10.920  0.00  0.00    +0.000 C 
BRANCH  16  17
ATOM     17  N   UNL     1      43.936   4.470  10.423  0.00  0.00    +0.000 N 
ATOM     18  H   UNL     1      43.525   3.835  11.105  0.00  0.00    +0.000 HD
BRANCH  17  22
ATOM     19  C   UNL     1      46.531   2.527   7.715  0.00  0.00    +0.000 A 
ATOM     20  C   UNL     1      46.426   3.918   7.689  0.00  0.00    +0.000 A 
ATOM     21  C   UNL     1      45.583   4.572   8.598  0.00  0.00    +0.000 A 
ATOM     22  C   UNL     1      44.854   3.864   9.562  0.00  0.00    +0.000 A 
ATOM     23  C   UNL     1      44.953   2.468   9.555  0.00  0.00    +0.000 A 
ATOM     24  C   UNL     1      45.779   1.799   8.640  0.00  0.00    +0.000 A 
BRANCH  19  26
ATOM     25  N   UNL     1      48.417   2.506   6.178  0.00  0.00    +0.000 N 
ATOM     26  C   UNL     1      47.389   1.802   6.744  0.00  0.00    +0.000 C 
ATOM     27  O   UNL     1      47.212   0.621   6.481  0.00  0.00    +0.000 OA
ATOM     28  H   UNL     1      49.052   1.981   5.591  0.00  0.00    +0.000 HD
ATOM     29  H   UNL     1      48.738   3.389   6.546  0.00  0.00    +0.000 HD
ENDBRANCH  19  26
ENDBRANCH  17  22
ENDBRANCH  16  17
ENDBRANCH   1  16
TORSDOF 6
ENDMDL
MODEL 7
REMARK VINA RESULT:    -7.772      3.558      7.142
REMARK INTER + INTRA:         -11.595
REMARK INTER:                 -10.544
REMARK INTRA:                  -1.050
REMARK UNBOUND:                -1.096
REMARK  Name = 
REMARK  6 active torsions:
REMARK  status: ('A' for Active; 'I' for Inactive)
REMARK    1  A    between atoms: C_2  and  C_4
REMARK    2  A    between atoms: C_7  and  N_8
REMARK    3  A    between atoms: N_8  and  C_9
REMARK    4  A    between atoms: C_9  and  C_10
REMARK    5  A    between atoms: C_10  and  C_13
REMARK    6  A    between atoms: C_17  and  C_18
REMARK                            x       y       z     vdW  Elec       q    Type
REMARK                         _______ _______ _______ _____ _____    ______ ____
ROOT
ATOM      1  C   UNL     1      45.759   7.608  11.985  0.00  0.00    +0.000 C 
ATOM      2  F   UNL     1      45.372   7.956  13.247  0.00  0.00    +0.000 F 
ATOM      3  F   UNL     1      45.573   8.730  11.225  0.00  0.00    +0.000 F 
ENDROOT
BRANCH   1   4
ATOM      4  C   UNL     1      44.979   6.415  11.463  0.00  0.00    +0.000 A 
ATOM      5  C   UNL     1      43.618   6.259  11.743  0.00  0.00    +0.000 A 
ATOM      6  C   UNL     1      42.908   5.195  11.190  0.00  0.00    +0.000 A 
ATOM      7  C   UNL     1      43.547   4.292  10.335  0.00  0.00    +0.000 A 
ATOM      8  C   UNL     1      44.906   4.430  10.006  0.00  0.00    +0.000 A 
ATOM      9  C   UNL     1      45.609   5.490  10.607  0.00  0.00    +0.000 A 
BRANCH   8  10
ATOM     10  C   UNL     1      45.564   3.543   9.024  0.00  0.00    +0.000 A 
ATOM     11  C   UNL     1      46.203   4.032   7.875  0.00  0.00    +0.000 A 
ATOM     12  C   UNL     1      46.748   3.155   6.937  0.00  0.00    +0.000 A 
ATOM     13  C   UNL     1      46.657   1.795   7.177  0.00  0.00    +0.000 A 
ATOM     14  N   UNL     1      46.069   1.271   8.269  0.00  0.00    +0.000 NA
ATOM     15  C   UNL     1      45.538   2.150   9.153  0.00  0.00    +0.000 A 
ENDBRANCH   8  10
ENDBRANCH   1   4
BRANCH   1  16
ATOM     16  C   UNL     1      47.270   7.263  11.989  0.00  0.00    +0.000 C 
BRANCH  16  17
ATOM     17  N   UNL     1      47.930   7.425  13.297  0.00  0.00    +0.000 N 
ATOM     18  H   UNL     1      48.815   7.928  13.271  0.00  0.00    +0.000 HD
BRANCH  17  22
ATOM     19  C   UNL     1      47.714   4.425  16.262  0.00  0.00    +0.000 A 
ATOM     20  C   UNL     1      47.025   4.255  15.061  0.00  0.00    +0.000 A 
ATOM     21  C   UNL     1      47.108   5.236  14.063  0.00  0.00    +0.000 A 
ATOM     22  C   UNL     1      47.894   6.384  14.228  0.00  0.00    +0.000 A 
ATOM     23  C   UNL     1      48.556   6.549  15.449  0.00  0.00    +0.000 A 
ATOM     24  C   UNL     1      48.468   5.583  16.463  0.00  0.00    +0.000 A 
BRANCH  19  26
ATOM     25  N   UNL     1      48.706   3.293  18.174  0.00  0.00    +0.000 N 
ATOM     26  C   UNL     1      47.620   3.421  17.351  0.00  0.00    +0.000 C 
ATOM     27  O   UNL     1      46.610   2.755  17.532  0.00  0.00    +0.000 OA
ATOM     28  H   UNL     1      48.600   2.676  18.968  0.00  0.00    +0.000 HD
ATOM     29  H   UNL     1      49.445   3.981  18.208  0.00  0.00    +0.000 HD
ENDBRANCH  19  26
ENDBRANCH  17  22
ENDBRANCH  16  17
ENDBRANCH   1  16
TORSDOF 6
ENDMDL
MODEL 8
REMARK VINA RESULT:    -7.556      3.677      7.462
REMARK INTER + INTRA:         -11.303
REMARK INTER:                 -10.446
REMARK INTRA:                  -0.858
REMARK UNBOUND:                -1.096
REMARK  Name = 
REMARK  6 active torsions:
REMARK  status: ('A' for Active; 'I' for Inactive)
REMARK    1  A    between atoms: C_2  and  C_4
REMARK    2  A    between atoms: C_7  and  N_8
REMARK    3  A    between atoms: N_8  and  C_9
REMARK    4  A    between atoms: C_9  and  C_10
REMARK    5  A    between atoms: C_10  and  C_13
REMARK    6  A    between atoms: C_17  and  C_18
REMARK                            x       y       z     vdW  Elec       q    Type
REMARK                         _______ _______ _______ _____ _____    ______ ____
ROOT
ATOM      1  C   UNL     1      44.766   6.390  11.423  0.00  0.00    +0.000 C 
ATOM      2  F   UNL     1      43.579   7.064  11.378  0.00  0.00    +0.000 F 
ATOM      3  F   UNL     1      45.621   7.106  10.630  0.00  0.00    +0.000 F 
ENDROOT
BRANCH   1   4
ATOM      4  C   UNL     1      44.617   4.950  10.968  0.00  0.00    +0.000 A 
ATOM      5  C   UNL     1      43.657   4.106  11.536  0.00  0.00    +0.000 A 
ATOM      6  C   UNL     1      43.489   2.811  11.050  0.00  0.00    +0.000 A 
ATOM      7  C   UNL     1      44.265   2.356   9.978  0.00  0.00    +0.000 A 
ATOM      8  C   UNL     1      45.220   3.182   9.363  0.00  0.00    +0.000 A 
ATOM      9  C   UNL     1      45.396   4.472   9.897  0.00  0.00    +0.000 A 
BRANCH   8  10
ATOM     10  C   UNL     1      45.970   2.747   8.166  0.00  0.00    +0.000 A 
ATOM     11  C   UNL     1      46.171   3.582   7.057  0.00  0.00    +0.000 A 
ATOM     12  C   UNL     1      46.823   3.107   5.918  0.00  0.00    +0.000 A 
ATOM     13  C   UNL     1      47.278   1.801   5.918  0.00  0.00    +0.000 A 
ATOM     14  N   UNL     1      47.126   0.960   6.959  0.00  0.00    +0.000 NA
ATOM     15  C   UNL     1      46.478   1.449   8.044  0.00  0.00    +0.000 A 
ENDBRANCH   8  10
ENDBRANCH   1   4
BRANCH   1  16
ATOM     16  C   UNL     1      45.311   6.410  12.874  0.00  0.00    +0.000 C 
BRANCH  16  17
ATOM     17  N   UNL     1      46.764   6.186  12.983  0.00  0.00    +0.000 N 
ATOM     18  H   UNL     1      47.209   5.843  12.134  0.00  0.00    +0.000 HD
BRANCH  17  22
ATOM     19  C   UNL     1      48.283   4.765  16.659  0.00  0.00    +0.000 A 
ATOM     20  C   UNL     1      47.360   3.994  15.953  0.00  0.00    +0.000 A 
ATOM     21  C   UNL     1      46.866   4.447  14.722  0.00  0.00    +0.000 A 
ATOM     22  C   UNL     1      47.299   5.656  14.160  0.00  0.00    +0.000 A 
ATOM     23  C   UNL     1      48.205   6.427  14.896  0.00  0.00    +0.000 A 
ATOM     24  C   UNL     1      48.694   5.993  16.137  0.00  0.00    +0.000 A 
BRANCH  19  26
ATOM     25  N   UNL     1      47.956   4.455  19.050  0.00  0.00    +0.000 N 
ATOM     26  C   UNL     1      48.800   4.328  17.981  0.00  0.00    +0.000 C 
ATOM     27  O   UNL     1      49.916   3.845  18.111  0.00  0.00    +0.000 OA
ATOM     28  H   UNL     1      48.279   4.069  19.928  0.00  0.00    +0.000 HD
ATOM     29  H   UNL     1      46.965   4.615  18.944  0.00  0.00    +0.000 HD
ENDBRANCH  19  26
ENDBRANCH  17  22
ENDBRANCH  16  17
ENDBRANCH   1  16
TORSDOF 6
ENDMDL
MODEL 9
REMARK VINA RESULT:    -7.433      2.987      6.954
REMARK INTER + INTRA:         -11.136
REMARK INTER:                 -10.180
REMARK INTRA:                  -0.956
REMARK UNBOUND:                -1.096
REMARK  Name = 
REMARK  6 active torsions:
REMARK  status: ('A' for Active; 'I' for Inactive)
REMARK    1  A    between atoms: C_2  and  C_4
REMARK    2  A    between atoms: C_7  and  N_8
REMARK    3  A    between atoms: N_8  and  C_9
REMARK    4  A    between atoms: C_9  and  C_10
REMARK    5  A    between atoms: C_10  and  C_13
REMARK    6  A    between atoms: C_17  and  C_18
REMARK                            x       y       z     vdW  Elec       q    Type
REMARK                         _______ _______ _______ _____ _____    ______ ____
ROOT
ATOM      1  C   UNL     1      44.323   6.438  11.444  0.00  0.00    +0.000 C 
ATOM      2  F   UNL     1      43.075   6.991  11.403  0.00  0.00    +0.000 F 
ATOM      3  F   UNL     1      45.084   7.194  10.596  0.00  0.00    +0.000 F 
ENDROOT
BRANCH   1   4
ATOM      4  C   UNL     1      44.304   4.970  11.058  0.00  0.00    +0.000 A 
ATOM      5  C   UNL     1      43.430   4.069  11.676  0.00  0.00    +0.000 A 
ATOM      6  C   UNL     1      43.380   2.743  11.251  0.00  0.00    +0.000 A 
ATOM      7  C   UNL     1      44.186   2.312  10.193  0.00  0.00    +0.000 A 
ATOM      8  C   UNL     1      45.057   3.192   9.529  0.00  0.00    +0.000 A 
ATOM      9  C   UNL     1      45.116   4.516  10.001  0.00  0.00    +0.000 A 
BRANCH   8  10
ATOM     10  C   UNL     1      45.834   2.772   8.344  0.00  0.00    +0.000 A 
ATOM     11  C   UNL     1      46.097   3.634   7.270  0.00  0.00    +0.000 A 
ATOM     12  C   UNL     1      46.773   3.175   6.139  0.00  0.00    +0.000 A 
ATOM     13  C   UNL     1      47.192   1.857   6.113  0.00  0.00    +0.000 A 
ATOM     14  N   UNL     1      46.981   0.990   7.121  0.00  0.00    +0.000 NA
ATOM     15  C   UNL     1      46.309   1.465   8.198  0.00  0.00    +0.000 A 
ENDBRANCH   8  10
ENDBRANCH   1   4
BRANCH   1  16
ATOM     16  C   UNL     1      44.898   6.578  12.877  0.00  0.00    +0.000 C 
BRANCH  16  17
ATOM     17  N   UNL     1      46.182   5.886  13.089  0.00  0.00    +0.000 N 
ATOM     18  H   UNL     1      46.172   5.183  13.825  0.00  0.00    +0.000 HD
BRANCH  17  22
ATOM     19  C   UNL     1      49.920   7.840  12.865  0.00  0.00    +0.000 A 
ATOM     20  C   UNL     1      49.114   7.765  11.729  0.00  0.00    +0.000 A 
ATOM     21  C   UNL     1      47.863   7.137  11.799  0.00  0.00    +0.000 A 
ATOM     22  C   UNL     1      47.380   6.599  12.999  0.00  0.00    +0.000 A 
ATOM     23  C   UNL     1      48.213   6.661  14.122  0.00  0.00    +0.000 A 
ATOM     24  C   UNL     1      49.475   7.272  14.061  0.00  0.00    +0.000 A 
BRANCH  19  26
ATOM     25  N   UNL     1      52.155   8.107  13.787  0.00  0.00    +0.000 N 
ATOM     26  C   UNL     1      51.263   8.469  12.815  0.00  0.00    +0.000 C 
ATOM     27  O   UNL     1      51.577   9.253  11.930  0.00  0.00    +0.000 OA
ATOM     28  H   UNL     1      53.096   8.467  13.692  0.00  0.00    +0.000 HD
ATOM     29  H   UNL     1      52.019   7.297  14.375  0.00  0.00    +0.000 HD
ENDBRANCH  19  26
ENDBRANCH  17  22
ENDBRANCH  16  17
ENDBRANCH   1  16
TORSDOF 6
ENDMDL
