MODEL 1
REMARK VINA RESULT:    -9.172      0.000      0.000
REMARK INTER + INTRA:         -13.613
REMARK INTER:                 -12.389
REMARK INTRA:                  -1.224
REMARK UNBOUND:                -1.224
REMARK  Name = 
REMARK  7 active torsions:
REMARK  status: ('A' for Active; 'I' for Inactive)
REMARK    1  A    between atoms: C_1  and  O_2
REMARK    2  A    between atoms: O_2  and  C_3
REMARK    3  A    between atoms: C_5  and  C_6
REMARK    4  A    between atoms: C_6  and  O_7
REMARK    5  A    between atoms: O_7  and  C_8
REMARK    6  A    between atoms: C_11  and  C_12
REMARK    7  A    between atoms: C_18  and  N_19
REMARK                            x       y       z     vdW  Elec       q    Type
REMARK                         _______ _______ _______ _____ _____    ______ ____
ROOT
ATOM      1  C   UNL     1      46.684   4.064  13.625  0.00  0.00    +0.000 A 
ATOM      2  C   UNL     1      45.534   3.668  12.944  0.00  0.00    +0.000 A 
ATOM      3  C   UNL     1      44.823   4.595  12.172  0.00  0.00    +0.000 A 
ATOM      4  C   UNL     1      45.273   5.925  12.112  0.00  0.00    +0.000 A 
ATOM      5  C   UNL     1      46.425   6.355  12.782  0.00  0.00    +0.000 A 
ATOM      6  C   UNL     1      47.120   5.393  13.527  0.00  0.00    +0.000 A 
ENDROOT
BRANCH   5   7
ATOM      7  N   UNL     1      46.806   7.685  12.739  0.00  0.00    +0.000 N 
ATOM      8  C   UNL     1      45.843   8.765  12.951  0.00  0.00    +0.000 C 
ATOM      9  C   UNL     1      46.086   9.822  11.883  0.00  0.00    +0.000 C 
ATOM     10  C   UNL     1      47.540  10.243  11.893  0.00  0.00    +0.000 C 
ATOM     11  F   UNL     1      47.760  11.114  10.871  0.00  0.00    +0.000 F 
ATOM     12  F   UNL     1      47.795  10.940  13.035  0.00  0.00    +0.000 F 
ATOM     13  C   UNL     1      48.521   9.093  11.783  0.00  0.00    +0.000 C 
ATOM     14  C   UNL     1      48.215   8.062  12.856  0.00  0.00    +0.000 C 
ENDBRANCH   5   7
BRANCH   1  16
ATOM     15  C   UNL     1      47.517   3.584  15.801  0.00  0.00    +0.000 C 
ATOM     16  O   UNL     1      47.465   3.268  14.417  0.00  0.00    +0.000 OA
ENDBRANCH   1  16
BRANCH   3  17
ATOM     17  C   UNL     1      43.567   4.192  11.440  0.00  0.00    +0.000 C 
BRANCH  17  18
ATOM     18  O   UNL     1      43.697   4.537  10.063  0.00  0.00    +0.000 OA
BRANCH  18  19
ATOM     19  C   UNL     1      44.589   3.803   9.327  0.00  0.00    +0.000 A 
ATOM     20  C   UNL     1      44.735   2.416   9.373  0.00  0.00    +0.000 A 
ATOM     21  C   UNL     1      45.687   1.783   8.565  0.00  0.00    +0.000 A 
ATOM     22  C   UNL     1      46.494   2.527   7.698  0.00  0.00    +0.000 A 
ATOM     23  C   UNL     1      46.359   3.919   7.659  0.00  0.00    +0.000 A 
ATOM     24  C   UNL     1      45.408   4.548   8.473  0.00  0.00    +0.000 A 
BRANCH  22  25
ATOM     25  C   UNL     1      47.484   1.794   6.867  0.00  0.00    +0.000 C 
ATOM     26  N   UNL     1      48.591   2.480   6.451  0.00  0.00    +0.000 N 
ATOM     27  O   UNL     1      47.306   0.630   6.531  0.00  0.00    +0.000 OA
ATOM     28  H   UNL     1      48.662   3.487   6.500  0.00  0.00    +0.000 HD
ATOM     29  H   UNL     1      49.194   1.998   5.795  0.00  0.00    +0.000 HD
ENDBRANCH  22  25
ENDBRANCH  18  19
ENDBRANCH  17  18
ENDBRANCH   3  17
TORSDOF 6
ENDMDL
MODEL 2
REMARK VINA RESULT:    -8.748      0.756      1.364
REMARK INTER + INTRA:         -13.041
REMARK INTER:                 -11.916
REMARK INTRA:                  -1.125
REMARK UNBOUND:                -1.224
REMARK  Name = 
REMARK  7 active torsions:
REMARK  status: ('A' for Active; 'I' for Inactive)
REMARK    1  A    between atoms: C_1  and  O_2
REMARK    2  A    between atoms: O_2  and  C_3
REMARK    3  A    between atoms: C_5  and  C_6
REMARK    4  A    between atoms: C_6  and  O_7
REMARK    5  A    between atoms: O_7  and  C_8
REMARK    6  A    between atoms: C_11  and  C_12
REMARK    7  A    between atoms: C_18  and  N_19
REMARK                            x       y       z     vdW  Elec       q    Type
REMARK                         _______ _______ _______ _____ _____    ______ ____
ROOT
ATOM      1  C   UNL     1      46.611   4.260  13.630  0.00  0.00    +0.000 A 
ATOM      2  C   UNL     1      45.409   3.940  13.001  0.00  0.00    +0.000 A 
ATOM      3  C   UNL     1      44.878   4.796  12.028  0.00  0.00    +0.000 A 
ATOM      4  C   UNL     1      45.561   5.983  11.714  0.00  0.00    +0.000 A 
ATOM      5  C   UNL     1      46.772   6.333  12.326  0.00  0.00    +0.000 A 
ATOM      6  C   UNL     1      47.280   5.441  13.279  0.00  0.00    +0.000 A 
ENDROOT
BRANCH   5   7
ATOM      7  N   UNL     1      47.387   7.536  12.025  0.00  0.00    +0.000 N 
ATOM      8  C   UNL     1      48.679   7.588  11.343  0.00  0.00    +0.000 C 
ATOM      9  C   UNL     1      49.547   8.609  12.066  0.00  0.00    +0.000 C 
ATOM     10  C   UNL     1      48.816   9.932  12.164  0.00  0.00    +0.000 C 
ATOM     11  F   UNL     1      49.564  10.801  12.896  0.00  0.00    +0.000 F 
ATOM     12  F   UNL     1      48.719  10.481  10.922  0.00  0.00    +0.000 F 
ATOM     13  C   UNL     1      47.432   9.833  12.774  0.00  0.00    +0.000 C 
ATOM     14  C   UNL     1      46.624   8.785  12.029  0.00  0.00    +0.000 C 
ENDBRANCH   5   7
BRANCH   1  16
ATOM     15  C   UNL     1      47.297   4.084  15.902  0.00  0.00    +0.000 C 
ATOM     16  O   UNL     1      47.235   3.521  14.598  0.00  0.00    +0.000 OA
ENDBRANCH   1  16
BRANCH   3  17
ATOM     17  C   UNL     1      43.570   4.478  11.347  0.00  0.00    +0.000 C 
BRANCH  17  18
ATOM     18  O   UNL     1      43.713   4.681   9.943  0.00  0.00    +0.000 OA
BRANCH  18  19
ATOM     19  C   UNL     1      44.547   3.823   9.279  0.00  0.00    +0.000 A 
ATOM     20  C   UNL     1      44.556   2.433   9.409  0.00  0.00    +0.000 A 
ATOM     21  C   UNL     1      45.463   1.665   8.668  0.00  0.00    +0.000 A 
ATOM     22  C   UNL     1      46.361   2.275   7.787  0.00  0.00    +0.000 A 
ATOM     23  C   UNL     1      46.364   3.668   7.665  0.00  0.00    +0.000 A 
ATOM     24  C   UNL     1      45.457   4.434   8.411  0.00  0.00    +0.000 A 
BRANCH  22  25
ATOM     25  C   UNL     1      47.295   1.402   7.030  0.00  0.00    +0.000 C 
ATOM     26  N   UNL     1      48.357   2.001   6.410  0.00  0.00    +0.000 N 
ATOM     27  O   UNL     1      47.111   0.196   6.931  0.00  0.00    +0.000 OA
ATOM     28  H   UNL     1      48.415   2.999   6.266  0.00  0.00    +0.000 HD
ATOM     29  H   UNL     1      48.915   1.407   5.809  0.00  0.00    +0.000 HD
ENDBRANCH  22  25
ENDBRANCH  18  19
ENDBRANCH  17  18
ENDBRANCH   3  17
TORSDOF 6
ENDMDL
MODEL 3
REMARK VINA RESULT:    -8.424      2.949      4.334
REMARK INTER + INTRA:         -12.603
REMARK INTER:                 -11.498
REMARK INTRA:                  -1.105
REMARK UNBOUND:                -1.224
REMARK  Name = 
REMARK  7 active torsions:
REMARK  status: ('A' for Active; 'I' for Inactive)
REMARK    1  A    between atoms: C_1  and  O_2
REMARK    2  A    between atoms: O_2  and  C_3
REMARK    3  A    between atoms: C_5  and  C_6
REMARK    4  A    between atoms: C_6  and  O_7
REMARK    5  A    between atoms: O_7  and  C_8
REMARK    6  A    between atoms: C_11  and  C_12
REMARK    7  A    between atoms: C_18  and  N_19
REMARK                            x       y       z     vdW  Elec       q    Type
REMARK                         _______ _______ _______ _____ _____    ______ ____
ROOT
ATOM      1  C   UNL     1      45.845   7.427  12.172  0.00  0.00    +0.000 A 
ATOM      2  C   UNL     1      44.896   6.573  11.613  0.00  0.00    +0.000 A 
ATOM      3  C   UNL     1      44.728   5.281  12.125  0.00  0.00    +0.000 A 
ATOM      4  C   UNL     1      45.540   4.855  13.190  0.00  0.00    +0.000 A 
ATOM      5  C   UNL     1      46.501   5.689  13.776  0.00  0.00    +0.000 A 
ATOM      6  C   UNL     1      46.624   6.980  13.248  0.00  0.00    +0.000 A 
ENDROOT
BRANCH   5   7
ATOM      7  N   UNL     1      47.316   5.214  14.790  0.00  0.00    +0.000 N 
ATOM      8  C   UNL     1      47.277   3.815  15.213  0.00  0.00    +0.000 C 
ATOM      9  C   UNL     1      47.264   3.788  16.735  0.00  0.00    +0.000 C 
ATOM     10  C   UNL     1      48.426   4.594  17.276  0.00  0.00    +0.000 C 
ATOM     11  F   UNL     1      48.343   4.641  18.633  0.00  0.00    +0.000 F 
ATOM     12  F   UNL     1      49.589   3.942  16.997  0.00  0.00    +0.000 F 
ATOM     13  C   UNL     1      48.507   6.007  16.736  0.00  0.00    +0.000 C 
ATOM     14  C   UNL     1      48.493   5.971  15.217  0.00  0.00    +0.000 C 
ENDBRANCH   5   7
BRANCH   1  16
ATOM     15  C   UNL     1      45.140   9.697  12.049  0.00  0.00    +0.000 C 
ATOM     16  O   UNL     1      46.117   8.705  11.766  0.00  0.00    +0.000 OA
ENDBRANCH   1  16
BRANCH   3  17
ATOM     17  C   UNL     1      43.718   4.334  11.524  0.00  0.00    +0.000 C 
BRANCH  17  18
ATOM     18  O   UNL     1      43.686   4.520  10.111  0.00  0.00    +0.000 OA
BRANCH  18  19
ATOM     19  C   UNL     1      44.572   3.780   9.373  0.00  0.00    +0.000 A 
ATOM     20  C   UNL     1      44.746   2.398   9.458  0.00  0.00    +0.000 A 
ATOM     21  C   UNL     1      45.688   1.758   8.644  0.00  0.00    +0.000 A 
ATOM     22  C   UNL     1      46.456   2.489   7.732  0.00  0.00    +0.000 A 
ATOM     23  C   UNL     1      46.293   3.876   7.654  0.00  0.00    +0.000 A 
ATOM     24  C   UNL     1      45.352   4.513   8.475  0.00  0.00    +0.000 A 
BRANCH  22  25
ATOM     25  C   UNL     1      47.436   1.749   6.896  0.00  0.00    +0.000 C 
ATOM     26  N   UNL     1      48.542   2.430   6.466  0.00  0.00    +0.000 N 
ATOM     27  O   UNL     1      47.253   0.583   6.569  0.00  0.00    +0.000 OA
ATOM     28  H   UNL     1      48.615   3.437   6.508  0.00  0.00    +0.000 HD
ATOM     29  H   UNL     1      49.137   1.943   5.807  0.00  0.00    +0.000 HD
ENDBRANCH  22  25
ENDBRANCH  18  19
ENDBRANCH  17  18
ENDBRANCH   3  17
TORSDOF 6
ENDMDL
MODEL 4
REMARK VINA RESULT:    -7.619      2.153      3.568
REMARK INTER + INTRA:         -11.515
REMARK INTER:                 -10.459
REMARK INTRA:                  -1.056
REMARK UNBOUND:                -1.224
REMARK  Name = 
REMARK  7 active torsions:
REMARK  status: ('A' for Active; 'I' for Inactive)
REMARK    1  A    between atoms: C_1  and  O_2
REMARK    2  A    between atoms: O_2  and  C_3
REMARK    3  A    between atoms: C_5  and  C_6
REMARK    4  A    between atoms: C_6  and  O_7
REMARK    5  A    between atoms: O_7  and  C_8
REMARK    6  A    between atoms: C_11  and  C_12
REMARK    7  A    between atoms: C_18  and  N_19
REMARK                            x       y       z     vdW  Elec       q    Type
REMARK                         _______ _______ _______ _____ _____    ______ ____
ROOT
ATOM      1  C   UNL     1      44.104   7.662  11.456  0.00  0.00    +0.000 A 
ATOM      2  C   UNL     1      43.686   6.340  11.317  0.00  0.00    +0.000 A 
ATOM      3  C   UNL     1      44.448   5.303  11.867  0.00  0.00    +0.000 A 
ATOM      4  C   UNL     1      45.642   5.612  12.539  0.00  0.00    +0.000 A 
ATOM      5  C   UNL     1      46.090   6.930  12.699  0.00  0.00    +0.000 A 
ATOM      6  C   UNL     1      45.289   7.940  12.151  0.00  0.00    +0.000 A 
ENDROOT
BRANCH   5   7
ATOM      7  N   UNL     1      47.299   7.189  13.322  0.00  0.00    +0.000 N 
ATOM      8  C   UNL     1      48.119   6.115  13.881  0.00  0.00    +0.000 C 
ATOM      9  C   UNL     1      48.591   6.558  15.258  0.00  0.00    +0.000 C 
ATOM     10  C   UNL     1      49.273   7.907  15.163  0.00  0.00    +0.000 C 
ATOM     11  F   UNL     1      49.601   8.331  16.413  0.00  0.00    +0.000 F 
ATOM     12  F   UNL     1      50.453   7.764  14.498  0.00  0.00    +0.000 F 
ATOM     13  C   UNL     1      48.443   8.975  14.479  0.00  0.00    +0.000 C 
ATOM     14  C   UNL     1      47.982   8.468  13.124  0.00  0.00    +0.000 C 
ENDBRANCH   5   7
BRANCH   1  16
ATOM     15  C   UNL     1      44.204   9.977  10.915  0.00  0.00    +0.000 C 
ATOM     16  O   UNL     1      43.463   8.766  10.963  0.00  0.00    +0.000 OA
ENDBRANCH   1  16
BRANCH   3  17
ATOM     17  C   UNL     1      44.022   3.863  11.715  0.00  0.00    +0.000 C 
BRANCH  17  18
ATOM     18  O   UNL     1      43.551   3.653  10.385  0.00  0.00    +0.000 OA
BRANCH  18  19
ATOM     19  C   UNL     1      44.498   3.391   9.431  0.00  0.00    +0.000 A 
ATOM     20  C   UNL     1      45.050   4.325   8.554  0.00  0.00    +0.000 A 
ATOM     21  C   UNL     1      46.016   3.928   7.622  0.00  0.00    +0.000 A 
ATOM     22  C   UNL     1      46.446   2.599   7.564  0.00  0.00    +0.000 A 
ATOM     23  C   UNL     1      45.884   1.657   8.432  0.00  0.00    +0.000 A 
ATOM     24  C   UNL     1      44.914   2.058   9.361  0.00  0.00    +0.000 A 
BRANCH  22  25
ATOM     25  C   UNL     1      47.474   2.243   6.552  0.00  0.00    +0.000 C 
ATOM     26  N   UNL     1      47.517   2.988   5.406  0.00  0.00    +0.000 N 
ATOM     27  O   UNL     1      48.236   1.299   6.714  0.00  0.00    +0.000 OA
ATOM     28  H   UNL     1      46.770   3.609   5.128  0.00  0.00    +0.000 HD
ATOM     29  H   UNL     1      48.147   2.660   4.684  0.00  0.00    +0.000 HD
ENDBRANCH  22  25
ENDBRANCH  18  19
ENDBRANCH  17  18
ENDBRANCH   3  17
TORSDOF 6
ENDMDL
MODEL 5
REMARK VINA RESULT:    -6.810      4.251      7.791
REMARK INTER + INTRA:         -10.422
REMARK INTER:                  -9.330
REMARK INTRA:                  -1.093
REMARK UNBOUND:                -1.224
REMARK  Name = 
REMARK  7 active torsions:
REMARK  status: ('A' for Active; 'I' for Inactive)
REMARK    1  A    between atoms: C_1  and  O_2
REMARK    2  A    between atoms: O_2  and  C_3
REMARK    3  A    between atoms: C_5  and  C_6
REMARK    4  A    between atoms: C_6  and  O_7
REMARK    5  A    between atoms: O_7  and  C_8
REMARK    6  A    between atoms: C_11  and  C_12
REMARK    7  A    between atoms: C_18  and  N_19
REMARK                            x       y       z     vdW  Elec       q    Type
REMARK                         _______ _______ _______ _____ _____    ______ ____
ROOT
ATOM      1  C   UNL     1      49.406   7.466  12.723  0.00  0.00    +0.000 A 
ATOM      2  C   UNL     1      49.574   7.389  14.104  0.00  0.00    +0.000 A 
ATOM      3  C   UNL     1      48.635   6.709  14.888  0.00  0.00    +0.000 A 
ATOM      4  C   UNL     1      47.517   6.127  14.266  0.00  0.00    +0.000 A 
ATOM      5  C   UNL     1      47.319   6.183  12.880  0.00  0.00    +0.000 A 
ATOM      6  C   UNL     1      48.292   6.856  12.129  0.00  0.00    +0.000 A 
ENDROOT
BRANCH   5   7
ATOM      7  N   UNL     1      46.179   5.641  12.312  0.00  0.00    +0.000 N 
ATOM      8  C   UNL     1      45.297   4.750  13.065  0.00  0.00    +0.000 C 
ATOM      9  C   UNL     1      44.950   3.571  12.167  0.00  0.00    +0.000 C 
ATOM     10  C   UNL     1      44.392   4.069  10.850  0.00  0.00    +0.000 C 
ATOM     11  F   UNL     1      44.180   3.009  10.025  0.00  0.00    +0.000 F 
ATOM     12  F   UNL     1      43.167   4.624  11.066  0.00  0.00    +0.000 F 
ATOM     13  C   UNL     1      45.276   5.078  10.144  0.00  0.00    +0.000 C 
ATOM     14  C   UNL     1      45.607   6.215  11.094  0.00  0.00    +0.000 C 
ENDBRANCH   5   7
BRANCH   1  16
ATOM     15  C   UNL     1      51.452   8.628  12.365  0.00  0.00    +0.000 C 
ATOM     16  O   UNL     1      50.239   8.103  11.844  0.00  0.00    +0.000 OA
ENDBRANCH   1  16
BRANCH   3  17
ATOM     17  C   UNL     1      48.788   6.628  16.386  0.00  0.00    +0.000 C 
BRANCH  17  18
ATOM     18  O   UNL     1      48.233   5.398  16.847  0.00  0.00    +0.000 OA
BRANCH  18  19
ATOM     19  C   UNL     1      49.105   4.357  17.023  0.00  0.00    +0.000 A 
ATOM     20  C   UNL     1      48.813   3.008  16.818  0.00  0.00    +0.000 A 
ATOM     21  C   UNL     1      49.798   2.036  17.031  0.00  0.00    +0.000 A 
ATOM     22  C   UNL     1      51.084   2.402  17.441  0.00  0.00    +0.000 A 
ATOM     23  C   UNL     1      51.376   3.753  17.661  0.00  0.00    +0.000 A 
ATOM     24  C   UNL     1      50.385   4.721  17.450  0.00  0.00    +0.000 A 
BRANCH  22  25
ATOM     25  C   UNL     1      52.083   1.322  17.649  0.00  0.00    +0.000 C 
ATOM     26  N   UNL     1      51.634   0.138  18.165  0.00  0.00    +0.000 N 
ATOM     27  O   UNL     1      53.271   1.488  17.404  0.00  0.00    +0.000 OA
ATOM     28  H   UNL     1      50.727   0.037  18.598  0.00  0.00    +0.000 HD
ATOM     29  H   UNL     1      52.346  -0.542  18.403  0.00  0.00    +0.000 HD
ENDBRANCH  22  25
ENDBRANCH  18  19
ENDBRANCH  17  18
ENDBRANCH   3  17
TORSDOF 6
ENDMDL
MODEL 6
REMARK VINA RESULT:    -6.765      4.371      7.927
REMARK INTER + INTRA:         -10.361
REMARK INTER:                  -9.395
REMARK INTRA:                  -0.966
REMARK UNBOUND:                -1.224
REMARK  Name = 
REMARK  7 active torsions:
REMARK  status: ('A' for Active; 'I' for Inactive)
REMARK    1  A    between atoms: C_1  and  O_2
REMARK    2  A    between atoms: O_2  and  C_3
REMARK    3  A    between atoms: C_5  and  C_6
REMARK    4  A    between atoms: C_6  and  O_7
REMARK    5  A    between atoms: O_7  and  C_8
REMARK    6  A    between atoms: C_11  and  C_12
REMARK    7  A    between atoms: C_18  and  N_19
REMARK                            x       y       z     vdW  Elec       q    Type
REMARK                         _______ _______ _______ _____ _____    ______ ____
ROOT
ATOM      1  C   UNL     1      48.244   7.040  13.896  0.00  0.00    +0.000 A 
ATOM      2  C   UNL     1      48.243   6.278  15.063  0.00  0.00    +0.000 A 
ATOM      3  C   UNL     1      47.459   5.121  15.143  0.00  0.00    +0.000 A 
ATOM      4  C   UNL     1      46.663   4.756  14.044  0.00  0.00    +0.000 A 
ATOM      5  C   UNL     1      46.642   5.498  12.856  0.00  0.00    +0.000 A 
ATOM      6  C   UNL     1      47.456   6.637  12.809  0.00  0.00    +0.000 A 
ENDROOT
BRANCH   5   7
ATOM      7  N   UNL     1      45.806   5.133  11.816  0.00  0.00    +0.000 N 
ATOM      8  C   UNL     1      44.785   4.099  11.979  0.00  0.00    +0.000 C 
ATOM      9  C   UNL     1      44.850   3.184  10.764  0.00  0.00    +0.000 C 
ATOM     10  C   UNL     1      44.741   4.002   9.495  0.00  0.00    +0.000 C 
ATOM     11  F   UNL     1      44.898   3.183   8.420  0.00  0.00    +0.000 F 
ATOM     12  F   UNL     1      43.480   4.506   9.396  0.00  0.00    +0.000 F 
ATOM     13  C   UNL     1      45.739   5.139   9.401  0.00  0.00    +0.000 C 
ATOM     14  C   UNL     1      45.645   6.000  10.648  0.00  0.00    +0.000 C 
ENDBRANCH   5   7
BRANCH   1  16
ATOM     15  C   UNL     1      50.217   8.067  13.050  0.00  0.00    +0.000 C 
ATOM     16  O   UNL     1      48.953   8.192  13.687  0.00  0.00    +0.000 OA
ENDBRANCH   1  16
BRANCH   3  17
ATOM     17  C   UNL     1      47.430   4.290  16.402  0.00  0.00    +0.000 C 
BRANCH  17  18
ATOM     18  O   UNL     1      48.438   4.758  17.295  0.00  0.00    +0.000 OA
BRANCH  18  19
ATOM     19  C   UNL     1      49.555   3.976  17.426  0.00  0.00    +0.000 A 
ATOM     20  C   UNL     1      50.805   4.411  17.868  0.00  0.00    +0.000 A 
ATOM     21  C   UNL     1      51.870   3.507  17.961  0.00  0.00    +0.000 A 
ATOM     22  C   UNL     1      51.695   2.162  17.621  0.00  0.00    +0.000 A 
ATOM     23  C   UNL     1      50.446   1.726  17.165  0.00  0.00    +0.000 A 
ATOM     24  C   UNL     1      49.384   2.635  17.070  0.00  0.00    +0.000 A 
BRANCH  22  25
ATOM     25  C   UNL     1      52.865   1.255  17.743  0.00  0.00    +0.000 C 
ATOM     26  N   UNL     1      52.638  -0.010  18.211  0.00  0.00    +0.000 N 
ATOM     27  O   UNL     1      53.999   1.628  17.471  0.00  0.00    +0.000 OA
ATOM     28  H   UNL     1      51.777  -0.280  18.666  0.00  0.00    +0.000 HD
ATOM     29  H   UNL     1      53.461  -0.572  18.393  0.00  0.00    +0.000 HD
ENDBRANCH  22  25
ENDBRANCH  18  19
ENDBRANCH  17  18
ENDBRANCH   3  17
TORSDOF 6
ENDMDL
MODEL 7
REMARK VINA RESULT:    -6.479      4.310      8.480
REMARK INTER + INTRA:          -9.975
REMARK INTER:                  -8.982
REMARK INTRA:                  -0.993
REMARK UNBOUND:                -1.224
REMARK  Name = 
REMARK  7 active torsions:
REMARK  status: ('A' for Active; 'I' for Inactive)
REMARK    1  A    between atoms: C_1  and  O_2
REMARK    2  A    between atoms: O_2  and  C_3
REMARK    3  A    between atoms: C_5  and  C_6
REMARK    4  A    between atoms: C_6  and  O_7
REMARK    5  A    between atoms: O_7  and  C_8
REMARK    6  A    between atoms: C_11  and  C_12
REMARK    7  A    between atoms: C_18  and  N_19
REMARK                            x       y       z     vdW  Elec       q    Type
REMARK                         _______ _______ _______ _____ _____    ______ ____
ROOT
ATOM      1  C   UNL     1      45.811   9.107  12.413  0.00  0.00    +0.000 A 
ATOM      2  C   UNL     1      46.992   8.998  13.145  0.00  0.00    +0.000 A 
ATOM      3  C   UNL     1      47.488   7.735  13.490  0.00  0.00    +0.000 A 
ATOM      4  C   UNL     1      46.771   6.589  13.105  0.00  0.00    +0.000 A 
ATOM      5  C   UNL     1      45.583   6.664  12.367  0.00  0.00    +0.000 A 
ATOM      6  C   UNL     1      45.130   7.945  12.025  0.00  0.00    +0.000 A 
ENDROOT
BRANCH   5   7
ATOM      7  N   UNL     1      44.880   5.513  12.053  0.00  0.00    +0.000 N 
ATOM      8  C   UNL     1      45.072   4.269  12.797  0.00  0.00    +0.000 C 
ATOM      9  C   UNL     1      45.183   3.135  11.788  0.00  0.00    +0.000 C 
ATOM     10  C   UNL     1      43.989   3.151  10.858  0.00  0.00    +0.000 C 
ATOM     11  F   UNL     1      44.152   2.195   9.905  0.00  0.00    +0.000 F 
ATOM     12  F   UNL     1      42.875   2.795  11.555  0.00  0.00    +0.000 F 
ATOM     13  C   UNL     1      43.746   4.486  10.183  0.00  0.00    +0.000 C 
ATOM     14  C   UNL     1      43.668   5.579  11.235  0.00  0.00    +0.000 C 
ENDBRANCH   5   7
BRANCH   1  16
ATOM     15  C   UNL     1      46.052  11.279  11.470  0.00  0.00    +0.000 C 
ATOM     16  O   UNL     1      45.212  10.273  12.019  0.00  0.00    +0.000 OA
ENDBRANCH   1  16
BRANCH   3  17
ATOM     17  C   UNL     1      48.755   7.594  14.296  0.00  0.00    +0.000 C 
BRANCH  17  18
ATOM     18  O   UNL     1      48.923   6.228  14.669  0.00  0.00    +0.000 OA
BRANCH  18  19
ATOM     19  C   UNL     1      48.669   5.912  15.977  0.00  0.00    +0.000 A 
ATOM     20  C   UNL     1      47.854   4.869  16.419  0.00  0.00    +0.000 A 
ATOM     21  C   UNL     1      47.677   4.649  17.791  0.00  0.00    +0.000 A 
ATOM     22  C   UNL     1      48.319   5.461  18.732  0.00  0.00    +0.000 A 
ATOM     23  C   UNL     1      49.126   6.516  18.291  0.00  0.00    +0.000 A 
ATOM     24  C   UNL     1      49.296   6.735  16.917  0.00  0.00    +0.000 A 
BRANCH  22  25
ATOM     25  C   UNL     1      48.090   5.173  20.171  0.00  0.00    +0.000 C 
ATOM     26  N   UNL     1      48.590   4.001  20.668  0.00  0.00    +0.000 N 
ATOM     27  O   UNL     1      47.449   5.933  20.885  0.00  0.00    +0.000 OA
ATOM     28  H   UNL     1      48.909   3.247  20.075  0.00  0.00    +0.000 HD
ATOM     29  H   UNL     1      48.327   3.772  21.618  0.00  0.00    +0.000 HD
ENDBRANCH  22  25
ENDBRANCH  18  19
ENDBRANCH  17  18
ENDBRANCH   3  17
TORSDOF 6
ENDMDL
MODEL 8
REMARK VINA RESULT:    -6.234      4.186      6.427
REMARK INTER + INTRA:          -9.644
REMARK INTER:                  -8.582
REMARK INTRA:                  -1.062
REMARK UNBOUND:                -1.224
REMARK  Name = 
REMARK  7 active torsions:
REMARK  status: ('A' for Active; 'I' for Inactive)
REMARK    1  A    between atoms: C_1  and  O_2
REMARK    2  A    between atoms: O_2  and  C_3
REMARK    3  A    between atoms: C_5  and  C_6
REMARK    4  A    between atoms: C_6  and  O_7
REMARK    5  A    between atoms: O_7  and  C_8
REMARK    6  A    between atoms: C_11  and  C_12
REMARK    7  A    between atoms: C_18  and  N_19
REMARK                            x       y       z     vdW  Elec       q    Type
REMARK                         _______ _______ _______ _____ _____    ______ ____
ROOT
ATOM      1  C   UNL     1      49.585   9.057  15.478  0.00  0.00    +0.000 A 
ATOM      2  C   UNL     1      49.055   9.026  14.190  0.00  0.00    +0.000 A 
ATOM      3  C   UNL     1      48.446   7.861  13.710  0.00  0.00    +0.000 A 
ATOM      4  C   UNL     1      48.395   6.725  14.535  0.00  0.00    +0.000 A 
ATOM      5  C   UNL     1      48.916   6.723  15.836  0.00  0.00    +0.000 A 
ATOM      6  C   UNL     1      49.499   7.914  16.286  0.00  0.00    +0.000 A 
ENDROOT
BRANCH   5   7
ATOM      7  N   UNL     1      48.892   5.567  16.599  0.00  0.00    +0.000 N 
ATOM      8  C   UNL     1      49.825   5.358  17.705  0.00  0.00    +0.000 C 
ATOM      9  C   UNL     1      50.365   3.939  17.597  0.00  0.00    +0.000 C 
ATOM     10  C   UNL     1      49.219   2.953  17.526  0.00  0.00    +0.000 C 
ATOM     11  F   UNL     1      49.717   1.702  17.332  0.00  0.00    +0.000 F 
ATOM     12  F   UNL     1      48.585   2.918  18.731  0.00  0.00    +0.000 F 
ATOM     13  C   UNL     1      48.205   3.256  16.441  0.00  0.00    +0.000 C 
ATOM     14  C   UNL     1      47.721   4.689  16.585  0.00  0.00    +0.000 C 
ENDBRANCH   5   7
BRANCH   1  16
ATOM     15  C   UNL     1      49.599  10.676  17.222  0.00  0.00    +0.000 C 
ATOM     16  O   UNL     1      50.212  10.121  16.067  0.00  0.00    +0.000 OA
ENDBRANCH   1  16
BRANCH   3  17
ATOM     17  C   UNL     1      47.881   7.800  12.312  0.00  0.00    +0.000 C 
BRANCH  17  18
ATOM     18  O   UNL     1      46.458   7.756  12.385  0.00  0.00    +0.000 OA
BRANCH  18  19
ATOM     19  C   UNL     1      45.857   6.594  11.980  0.00  0.00    +0.000 A 
ATOM     20  C   UNL     1      45.846   6.095  10.677  0.00  0.00    +0.000 A 
ATOM     21  C   UNL     1      45.195   4.889  10.392  0.00  0.00    +0.000 A 
ATOM     22  C   UNL     1      44.558   4.166  11.407  0.00  0.00    +0.000 A 
ATOM     23  C   UNL     1      44.556   4.671  12.712  0.00  0.00    +0.000 A 
ATOM     24  C   UNL     1      45.205   5.881  12.990  0.00  0.00    +0.000 A 
BRANCH  22  25
ATOM     25  C   UNL     1      43.887   2.893  11.039  0.00  0.00    +0.000 C 
ATOM     26  N   UNL     1      44.382   2.206   9.965  0.00  0.00    +0.000 N 
ATOM     27  O   UNL     1      42.904   2.485  11.645  0.00  0.00    +0.000 OA
ATOM     28  H   UNL     1      45.025   2.615   9.302  0.00  0.00    +0.000 HD
ATOM     29  H   UNL     1      43.843   1.403   9.663  0.00  0.00    +0.000 HD
ENDBRANCH  22  25
ENDBRANCH  18  19
ENDBRANCH  17  18
ENDBRANCH   3  17
TORSDOF 6
ENDMDL
