MODEL 1
REMARK VINA RESULT:    -9.212      0.000      0.000
REMARK INTER + INTRA:         -12.354
REMARK INTER:                 -11.366
REMARK INTRA:                  -0.988
REMARK UNBOUND:                -0.988
REMARK  Name = 
REMARK  4 active torsions:
REMARK  status: ('A' for Active; 'I' for Inactive)
REMARK    1  A    between atoms: C_2  and  C_4
REMARK    2  A    between atoms: N_8  and  C_9
REMARK    3  A    between atoms: C_9  and  C_10
REMARK    4  A    between atoms: C_14  and  C_15
REMARK                            x       y       z     vdW  Elec       q    Type
REMARK                         _______ _______ _______ _____ _____    ______ ____
ROOT
ATOM      1  C   UNL     1      43.851   4.919  11.365  0.00  0.00    +0.000 C 
ATOM      2  C   UNL     1      42.494   5.154  12.025  0.00  0.00    +0.000 C 
ATOM      3  C   UNL     1      43.020   6.150  11.048  0.00  0.00    +0.000 C 
ENDROOT
BRANCH   1   8
ATOM      4  C   UNL     1      46.568   2.740   7.492  0.00  0.00    +0.000 A 
ATOM      5  C   UNL     1      46.223   4.076   7.669  0.00  0.00    +0.000 A 
ATOM      6  C   UNL     1      45.350   4.426   8.700  0.00  0.00    +0.000 A 
ATOM      7  C   UNL     1      44.846   3.443   9.538  0.00  0.00    +0.000 A 
ATOM      8  N   UNL     1      43.891   3.697  10.528  0.00  0.00    +0.000 N 
ATOM      9  N   UNL     1      45.164   2.138   9.368  0.00  0.00    +0.000 NA
ATOM     10  C   UNL     1      46.007   1.811   8.350  0.00  0.00    +0.000 A 
ATOM     11  H   UNL     1      43.805   2.817  11.034  0.00  0.00    +0.000 HD
BRANCH   4  13
ATOM     12  N   UNL     1      47.381   2.986   5.223  0.00  0.00    +0.000 N 
ATOM     13  C   UNL     1      47.465   2.304   6.405  0.00  0.00    +0.000 C 
ATOM     14  O   UNL     1      48.274   1.393   6.562  0.00  0.00    +0.000 OA
ATOM     15  H   UNL     1      48.037   2.732   4.496  0.00  0.00    +0.000 HD
ATOM     16  H   UNL     1      46.893   3.867   5.126  0.00  0.00    +0.000 HD
ENDBRANCH   4  13
ENDBRANCH   1   8
BRANCH   1  17
ATOM     17  C   UNL     1      45.130   5.137  12.187  0.00  0.00    +0.000 A 
ATOM     18  C   UNL     1      45.586   4.161  13.074  0.00  0.00    +0.000 A 
ATOM     19  C   UNL     1      46.813   4.320  13.703  0.00  0.00    +0.000 A 
ATOM     20  C   UNL     1      47.568   5.453  13.434  0.00  0.00    +0.000 A 
ATOM     21  C   UNL     1      47.064   6.416  12.563  0.00  0.00    +0.000 A 
ATOM     22  N   UNL     1      45.856   6.264  11.959  0.00  0.00    +0.000 NA
BRANCH  21  23
ATOM     23  C   UNL     1      47.816   7.634  12.191  0.00  0.00    +0.000 A 
ATOM     24  C   UNL     1      49.171   7.552  11.815  0.00  0.00    +0.000 A 
ATOM     25  C   UNL     1      49.907   8.691  11.477  0.00  0.00    +0.000 A 
ATOM     26  C   UNL     1      49.301   9.943  11.507  0.00  0.00    +0.000 A 
ATOM     27  C   UNL     1      47.963  10.055  11.871  0.00  0.00    +0.000 A 
ATOM     28  C   UNL     1      47.229   8.913  12.207  0.00  0.00    +0.000 A 
ENDBRANCH  21  23
ENDBRANCH   1  17
TORSDOF 4
ENDMDL
MODEL 2
REMARK VINA RESULT:    -8.557      1.552      3.322
REMARK INTER + INTRA:         -11.546
REMARK INTER:                 -11.107
REMARK INTRA:                  -0.439
REMARK UNBOUND:                -0.988
REMARK  Name = 
REMARK  4 active torsions:
REMARK  status: ('A' for Active; 'I' for Inactive)
REMARK    1  A    between atoms: C_2  and  C_4
REMARK    2  A    between atoms: N_8  and  C_9
REMARK    3  A    between atoms: C_9  and  C_10
REMARK    4  A    between atoms: C_14  and  C_15
REMARK                            x       y       z     vdW  Elec       q    Type
REMARK                         _______ _______ _______ _____ _____    ______ ____
ROOT
ATOM      1  C   UNL     1      44.007   4.988  11.516  0.00  0.00    +0.000 C 
ATOM      2  C   UNL     1      42.867   5.056  12.530  0.00  0.00    +0.000 C 
ATOM      3  C   UNL     1      42.914   6.037  11.410  0.00  0.00    +0.000 C 
ENDROOT
BRANCH   1   8
ATOM      4  C   UNL     1      46.451   2.715   7.517  0.00  0.00    +0.000 A 
ATOM      5  C   UNL     1      46.055   4.042   7.655  0.00  0.00    +0.000 A 
ATOM      6  C   UNL     1      45.268   4.410   8.747  0.00  0.00    +0.000 A 
ATOM      7  C   UNL     1      44.898   3.456   9.682  0.00  0.00    +0.000 A 
ATOM      8  N   UNL     1      44.030   3.722  10.746  0.00  0.00    +0.000 N 
ATOM      9  N   UNL     1      45.266   2.159   9.551  0.00  0.00    +0.000 NA
ATOM     10  C   UNL     1      46.024   1.813   8.475  0.00  0.00    +0.000 A 
ATOM     11  H   UNL     1      44.038   2.870  11.304  0.00  0.00    +0.000 HD
BRANCH   4  13
ATOM     12  N   UNL     1      47.143   2.969   5.209  0.00  0.00    +0.000 N 
ATOM     13  C   UNL     1      47.262   2.260   6.372  0.00  0.00    +0.000 C 
ATOM     14  O   UNL     1      48.033   1.307   6.466  0.00  0.00    +0.000 OA
ATOM     15  H   UNL     1      47.744   2.698   4.441  0.00  0.00    +0.000 HD
ATOM     16  H   UNL     1      46.695   3.874   5.157  0.00  0.00    +0.000 HD
ENDBRANCH   4  13
ENDBRANCH   1   8
BRANCH   1  17
ATOM     17  C   UNL     1      45.403   5.477  11.927  0.00  0.00    +0.000 A 
ATOM     18  C   UNL     1      46.075   6.440  11.172  0.00  0.00    +0.000 A 
ATOM     19  C   UNL     1      47.273   6.967  11.634  0.00  0.00    +0.000 A 
ATOM     20  C   UNL     1      47.782   6.522  12.847  0.00  0.00    +0.000 A 
ATOM     21  C   UNL     1      47.094   5.540  13.555  0.00  0.00    +0.000 A 
ATOM     22  N   UNL     1      45.928   5.017  13.093  0.00  0.00    +0.000 NA
BRANCH  21  23
ATOM     23  C   UNL     1      47.544   5.037  14.871  0.00  0.00    +0.000 A 
ATOM     24  C   UNL     1      47.201   3.739  15.297  0.00  0.00    +0.000 A 
ATOM     25  C   UNL     1      47.599   3.249  16.544  0.00  0.00    +0.000 A 
ATOM     26  C   UNL     1      48.354   4.049  17.396  0.00  0.00    +0.000 A 
ATOM     27  C   UNL     1      48.712   5.334  17.001  0.00  0.00    +0.000 A 
ATOM     28  C   UNL     1      48.313   5.821  15.752  0.00  0.00    +0.000 A 
ENDBRANCH  21  23
ENDBRANCH   1  17
TORSDOF 4
ENDMDL
MODEL 3
REMARK VINA RESULT:    -7.003      2.683      6.783
REMARK INTER + INTRA:          -9.629
REMARK INTER:                  -8.724
REMARK INTRA:                  -0.906
REMARK UNBOUND:                -0.988
REMARK  Name = 
REMARK  4 active torsions:
REMARK  status: ('A' for Active; 'I' for Inactive)
REMARK    1  A    between atoms: C_2  and  C_4
REMARK    2  A    between atoms: N_8  and  C_9
REMARK    3  A    between atoms: C_9  and  C_10
REMARK    4  A    between atoms: C_14  and  C_15
REMARK                            x       y       z     vdW  Elec       q    Type
REMARK                         _______ _______ _______ _____ _____    ______ ____
ROOT
ATOM      1  C   UNL     1      46.123   5.083  13.346  0.00  0.00    +0.000 C 
ATOM      2  C   UNL     1      46.065   4.186  14.580  0.00  0.00    +0.000 C 
ATOM      3  C   UNL     1      47.204   4.053  13.628  0.00  0.00    +0.000 C 
ENDROOT
BRANCH   1   8
ATOM      4  C   UNL     1      48.374   9.469  11.663  0.00  0.00    +0.000 A 
ATOM      5  C   UNL     1      48.893   8.178  11.687  0.00  0.00    +0.000 A 
ATOM      6  C   UNL     1      48.178   7.166  12.329  0.00  0.00    +0.000 A 
ATOM      7  C   UNL     1      46.961   7.456  12.926  0.00  0.00    +0.000 A 
ATOM      8  N   UNL     1      46.234   6.524  13.674  0.00  0.00    +0.000 N 
ATOM      9  N   UNL     1      46.452   8.711  12.921  0.00  0.00    +0.000 NA
ATOM     10  C   UNL     1      47.166   9.689  12.300  0.00  0.00    +0.000 A 
ATOM     11  H   UNL     1      45.354   6.993  13.886  0.00  0.00    +0.000 HD
BRANCH   4  13
ATOM     12  N   UNL     1      48.334  11.516  10.368  0.00  0.00    +0.000 N 
ATOM     13  C   UNL     1      49.093  10.585  11.021  0.00  0.00    +0.000 C 
ATOM     14  O   UNL     1      50.315  10.693  11.095  0.00  0.00    +0.000 OA
ATOM     15  H   UNL     1      48.817  12.316   9.980  0.00  0.00    +0.000 HD
ATOM     16  H   UNL     1      47.330  11.580  10.470  0.00  0.00    +0.000 HD
ENDBRANCH   4  13
ENDBRANCH   1   8
BRANCH   1  17
ATOM     17  C   UNL     1      45.181   4.797  12.169  0.00  0.00    +0.000 A 
ATOM     18  C   UNL     1      43.883   5.309  12.149  0.00  0.00    +0.000 A 
ATOM     19  C   UNL     1      43.096   5.153  11.017  0.00  0.00    +0.000 A 
ATOM     20  C   UNL     1      43.621   4.487   9.917  0.00  0.00    +0.000 A 
ATOM     21  C   UNL     1      44.911   3.968   9.987  0.00  0.00    +0.000 A 
ATOM     22  N   UNL     1      45.673   4.111  11.103  0.00  0.00    +0.000 NA
BRANCH  21  23
ATOM     23  C   UNL     1      45.561   3.279   8.852  0.00  0.00    +0.000 A 
ATOM     24  C   UNL     1      45.719   1.880   8.858  0.00  0.00    +0.000 A 
ATOM     25  C   UNL     1      46.347   1.209   7.805  0.00  0.00    +0.000 A 
ATOM     26  C   UNL     1      46.831   1.926   6.715  0.00  0.00    +0.000 A 
ATOM     27  C   UNL     1      46.686   3.309   6.679  0.00  0.00    +0.000 A 
ATOM     28  C   UNL     1      46.057   3.977   7.734  0.00  0.00    +0.000 A 
ENDBRANCH  21  23
ENDBRANCH   1  17
TORSDOF 4
ENDMDL
MODEL 4
REMARK VINA RESULT:    -6.651      4.296      8.242
REMARK INTER + INTRA:          -9.194
REMARK INTER:                  -8.332
REMARK INTRA:                  -0.862
REMARK UNBOUND:                -0.988
REMARK  Name = 
REMARK  4 active torsions:
REMARK  status: ('A' for Active; 'I' for Inactive)
REMARK    1  A    between atoms: C_2  and  C_4
REMARK    2  A    between atoms: N_8  and  C_9
REMARK    3  A    between atoms: C_9  and  C_10
REMARK    4  A    between atoms: C_14  and  C_15
REMARK                            x       y       z     vdW  Elec       q    Type
REMARK                         _______ _______ _______ _____ _____    ______ ____
ROOT
ATOM      1  C   UNL     1      48.775   7.628  12.778  0.00  0.00    +0.000 C 
ATOM      2  C   UNL     1      49.804   7.840  11.670  0.00  0.00    +0.000 C 
ATOM      3  C   UNL     1      49.425   8.981  12.550  0.00  0.00    +0.000 C 
ENDROOT
BRANCH   1   8
ATOM      4  C   UNL     1      48.417   6.671  17.886  0.00  0.00    +0.000 A 
ATOM      5  C   UNL     1      48.562   7.893  17.237  0.00  0.00    +0.000 A 
ATOM      6  C   UNL     1      48.799   7.913  15.862  0.00  0.00    +0.000 A 
ATOM      7  C   UNL     1      48.878   6.720  15.160  0.00  0.00    +0.000 A 
ATOM      8  N   UNL     1      49.212   6.651  13.803  0.00  0.00    +0.000 N 
ATOM      9  N   UNL     1      48.751   5.524  15.782  0.00  0.00    +0.000 NA
ATOM     10  C   UNL     1      48.532   5.521  17.125  0.00  0.00    +0.000 A 
ATOM     11  H   UNL     1      49.085   5.671  13.556  0.00  0.00    +0.000 HD
BRANCH   4  13
ATOM     12  N   UNL     1      47.380   5.572  19.780  0.00  0.00    +0.000 N 
ATOM     13  C   UNL     1      48.189   6.584  19.340  0.00  0.00    +0.000 C 
ATOM     14  O   UNL     1      48.723   7.363  20.125  0.00  0.00    +0.000 OA
ATOM     15  H   UNL     1      47.271   5.471  20.781  0.00  0.00    +0.000 HD
ATOM     16  H   UNL     1      47.103   4.793  19.197  0.00  0.00    +0.000 HD
ENDBRANCH   4  13
ENDBRANCH   1   8
BRANCH   1  17
ATOM     17  C   UNL     1      47.292   7.497  12.406  0.00  0.00    +0.000 A 
ATOM     18  C   UNL     1      46.389   8.524  12.688  0.00  0.00    +0.000 A 
ATOM     19  C   UNL     1      45.084   8.443  12.222  0.00  0.00    +0.000 A 
ATOM     20  C   UNL     1      44.700   7.335  11.479  0.00  0.00    +0.000 A 
ATOM     21  C   UNL     1      45.624   6.320  11.243  0.00  0.00    +0.000 A 
ATOM     22  N   UNL     1      46.897   6.396  11.712  0.00  0.00    +0.000 NA
BRANCH  21  23
ATOM     23  C   UNL     1      45.311   5.124  10.431  0.00  0.00    +0.000 A 
ATOM     24  C   UNL     1      45.698   5.056   9.079  0.00  0.00    +0.000 A 
ATOM     25  C   UNL     1      45.398   3.945   8.286  0.00  0.00    +0.000 A 
ATOM     26  C   UNL     1      44.702   2.870   8.832  0.00  0.00    +0.000 A 
ATOM     27  C   UNL     1      44.310   2.907  10.167  0.00  0.00    +0.000 A 
ATOM     28  C   UNL     1      44.614   4.021  10.956  0.00  0.00    +0.000 A 
ENDBRANCH  21  23
ENDBRANCH   1  17
TORSDOF 4
ENDMDL
MODEL 5
REMARK VINA RESULT:    -6.568      3.510      7.466
REMARK INTER + INTRA:          -9.092
REMARK INTER:                  -9.055
REMARK INTRA:                  -0.038
REMARK UNBOUND:                -0.988
REMARK  Name = 
REMARK  4 active torsions:
REMARK  status: ('A' for Active; 'I' for Inactive)
REMARK    1  A    between atoms: C_2  and  C_4
REMARK    2  A    between atoms: N_8  and  C_9
REMARK    3  A    between atoms: C_9  and  C_10
REMARK    4  A    between atoms: C_14  and  C_15
REMARK                            x       y       z     vdW  Elec       q    Type
REMARK                         _______ _______ _______ _____ _____    ______ ____
ROOT
ATOM      1  C   UNL     1      48.332   7.701  12.764  0.00  0.00    +0.000 C 
ATOM      2  C   UNL     1      49.482   7.014  12.031  0.00  0.00    +0.000 C 
ATOM      3  C   UNL     1      49.281   8.482  11.871  0.00  0.00    +0.000 C 
ENDROOT
BRANCH   1   8
ATOM      4  C   UNL     1      47.950   4.293  16.685  0.00  0.00    +0.000 A 
ATOM      5  C   UNL     1      47.174   4.386  15.534  0.00  0.00    +0.000 A 
ATOM      6  C   UNL     1      47.344   5.478  14.682  0.00  0.00    +0.000 A 
ATOM      7  C   UNL     1      48.287   6.448  14.986  0.00  0.00    +0.000 A 
ATOM      8  N   UNL     1      48.448   7.620  14.239  0.00  0.00    +0.000 N 
ATOM      9  N   UNL     1      49.039   6.375  16.109  0.00  0.00    +0.000 NA
ATOM     10  C   UNL     1      48.853   5.310  16.936  0.00  0.00    +0.000 A 
ATOM     11  H   UNL     1      49.271   8.069  14.639  0.00  0.00    +0.000 HD
BRANCH   4  13
ATOM     12  N   UNL     1      48.855   2.927  18.469  0.00  0.00    +0.000 N 
ATOM     13  C   UNL     1      47.799   3.176  17.637  0.00  0.00    +0.000 C 
ATOM     14  O   UNL     1      46.763   2.519  17.702  0.00  0.00    +0.000 OA
ATOM     15  H   UNL     1      48.732   2.203  19.166  0.00  0.00    +0.000 HD
ATOM     16  H   UNL     1      49.624   3.572  18.594  0.00  0.00    +0.000 HD
ENDBRANCH   4  13
ENDBRANCH   1   8
BRANCH   1  17
ATOM     17  C   UNL     1      46.898   7.507  12.253  0.00  0.00    +0.000 A 
ATOM     18  C   UNL     1      45.954   8.530  12.363  0.00  0.00    +0.000 A 
ATOM     19  C   UNL     1      44.706   8.383  11.774  0.00  0.00    +0.000 A 
ATOM     20  C   UNL     1      44.420   7.215  11.082  0.00  0.00    +0.000 A 
ATOM     21  C   UNL     1      45.379   6.208  11.019  0.00  0.00    +0.000 A 
ATOM     22  N   UNL     1      46.596   6.349  11.608  0.00  0.00    +0.000 NA
BRANCH  21  23
ATOM     23  C   UNL     1      45.173   4.948  10.272  0.00  0.00    +0.000 A 
ATOM     24  C   UNL     1      45.627   4.820   8.945  0.00  0.00    +0.000 A 
ATOM     25  C   UNL     1      45.427   3.646   8.213  0.00  0.00    +0.000 A 
ATOM     26  C   UNL     1      44.766   2.568   8.795  0.00  0.00    +0.000 A 
ATOM     27  C   UNL     1      44.310   2.664  10.106  0.00  0.00    +0.000 A 
ATOM     28  C   UNL     1      44.513   3.840  10.836  0.00  0.00    +0.000 A 
ENDBRANCH  21  23
ENDBRANCH   1  17
TORSDOF 4
ENDMDL
MODEL 6
REMARK VINA RESULT:    -6.498      3.287      5.870
REMARK INTER + INTRA:          -9.006
REMARK INTER:                  -8.667
REMARK INTRA:                  -0.339
REMARK UNBOUND:                -0.988
REMARK  Name = 
REMARK  4 active torsions:
REMARK  status: ('A' for Active; 'I' for Inactive)
REMARK    1  A    between atoms: C_2  and  C_4
REMARK    2  A    between atoms: N_8  and  C_9
REMARK    3  A    between atoms: C_9  and  C_10
REMARK    4  A    between atoms: C_14  and  C_15
REMARK                            x       y       z     vdW  Elec       q    Type
REMARK                         _______ _______ _______ _____ _____    ______ ____
ROOT
ATOM      1  C   UNL     1      47.296   8.320  13.187  0.00  0.00    +0.000 C 
ATOM      2  C   UNL     1      47.426   9.646  12.439  0.00  0.00    +0.000 C 
ATOM      3  C   UNL     1      48.157   8.446  11.941  0.00  0.00    +0.000 C 
ENDROOT
BRANCH   1   8
ATOM      4  C   UNL     1      44.517   4.208  11.607  0.00  0.00    +0.000 A 
ATOM      5  C   UNL     1      45.559   4.857  10.954  0.00  0.00    +0.000 A 
ATOM      6  C   UNL     1      46.065   6.044  11.485  0.00  0.00    +0.000 A 
ATOM      7  C   UNL     1      45.532   6.556  12.658  0.00  0.00    +0.000 A 
ATOM      8  N   UNL     1      45.913   7.788  13.198  0.00  0.00    +0.000 N 
ATOM      9  N   UNL     1      44.509   5.940  13.296  0.00  0.00    +0.000 NA
ATOM     10  C   UNL     1      44.018   4.789  12.760  0.00  0.00    +0.000 A 
ATOM     11  H   UNL     1      45.434   7.835  14.096  0.00  0.00    +0.000 HD
BRANCH   4  13
ATOM     12  N   UNL     1      44.565   2.367  10.033  0.00  0.00    +0.000 N 
ATOM     13  C   UNL     1      43.923   2.964  11.083  0.00  0.00    +0.000 C 
ATOM     14  O   UNL     1      42.917   2.467  11.584  0.00  0.00    +0.000 OA
ATOM     15  H   UNL     1      44.197   1.481   9.711  0.00  0.00    +0.000 HD
ATOM     16  H   UNL     1      45.499   2.620   9.741  0.00  0.00    +0.000 HD
ENDBRANCH   4  13
ENDBRANCH   1   8
BRANCH   1  17
ATOM     17  C   UNL     1      48.029   8.141  14.523  0.00  0.00    +0.000 A 
ATOM     18  C   UNL     1      48.345   9.242  15.321  0.00  0.00    +0.000 A 
ATOM     19  C   UNL     1      48.884   9.046  16.585  0.00  0.00    +0.000 A 
ATOM     20  C   UNL     1      49.100   7.750  17.034  0.00  0.00    +0.000 A 
ATOM     21  C   UNL     1      48.797   6.680  16.196  0.00  0.00    +0.000 A 
ATOM     22  N   UNL     1      48.281   6.876  14.953  0.00  0.00    +0.000 NA
BRANCH  21  23
ATOM     23  C   UNL     1      48.959   5.269  16.606  0.00  0.00    +0.000 A 
ATOM     24  C   UNL     1      50.131   4.843  17.260  0.00  0.00    +0.000 A 
ATOM     25  C   UNL     1      50.315   3.511  17.640  0.00  0.00    +0.000 A 
ATOM     26  C   UNL     1      49.324   2.570  17.377  0.00  0.00    +0.000 A 
ATOM     27  C   UNL     1      48.152   2.962  16.736  0.00  0.00    +0.000 A 
ATOM     28  C   UNL     1      47.972   4.297  16.357  0.00  0.00    +0.000 A 
ENDBRANCH  21  23
ENDBRANCH   1  17
TORSDOF 4
ENDMDL
MODEL 7
REMARK VINA RESULT:    -6.470      5.658      8.418
REMARK INTER + INTRA:          -8.972
REMARK INTER:                  -8.271
REMARK INTRA:                  -0.701
REMARK UNBOUND:                -0.988
REMARK  Name = 
REMARK  4 active torsions:
REMARK  status: ('A' for Active; 'I' for Inactive)
REMARK    1  A    between atoms: C_2  and  C_4
REMARK    2  A    between atoms: N_8  and  C_9
REMARK    3  A    between atoms: C_9  and  C_10
REMARK    4  A    between atoms: C_14  and  C_15
REMARK                            x       y       z     vdW  Elec       q    Type
REMARK                         _______ _______ _______ _____ _____    ______ ____
ROOT
ATOM      1  C   UNL     1      48.324   4.830  17.275  0.00  0.00    +0.000 C 
ATOM      2  C   UNL     1      47.151   5.036  18.230  0.00  0.00    +0.000 C 
ATOM      3  C   UNL     1      47.207   3.808  17.388  0.00  0.00    +0.000 C 
ENDROOT
BRANCH   1   8
ATOM      4  C   UNL     1      52.502   1.737  17.602  0.00  0.00    +0.000 A 
ATOM      5  C   UNL     1      51.163   1.381  17.480  0.00  0.00    +0.000 A 
ATOM      6  C   UNL     1      50.182   2.370  17.569  0.00  0.00    +0.000 A 
ATOM      7  C   UNL     1      50.553   3.691  17.767  0.00  0.00    +0.000 A 
ATOM      8  N   UNL     1      49.630   4.723  17.967  0.00  0.00    +0.000 N 
ATOM      9  N   UNL     1      51.853   4.048  17.900  0.00  0.00    +0.000 NA
ATOM     10  C   UNL     1      52.797   3.071  17.822  0.00  0.00    +0.000 A 
ATOM     11  H   UNL     1      50.192   5.573  17.975  0.00  0.00    +0.000 HD
BRANCH   4  13
ATOM     12  N   UNL     1      53.378  -0.437  18.215  0.00  0.00    +0.000 N 
ATOM     13  C   UNL     1      53.583   0.735  17.541  0.00  0.00    +0.000 C 
ATOM     14  O   UNL     1      54.608   0.929  16.891  0.00  0.00    +0.000 OA
ATOM     15  H   UNL     1      54.089  -1.151  18.125  0.00  0.00    +0.000 HD
ATOM     16  H   UNL     1      52.475  -0.718  18.572  0.00  0.00    +0.000 HD
ENDBRANCH   4  13
ENDBRANCH   1   8
BRANCH   1  17
ATOM     17  C   UNL     1      48.387   5.651  15.980  0.00  0.00    +0.000 A 
ATOM     18  C   UNL     1      49.372   6.623  15.794  0.00  0.00    +0.000 A 
ATOM     19  C   UNL     1      49.494   7.256  14.565  0.00  0.00    +0.000 A 
ATOM     20  C   UNL     1      48.629   6.907  13.537  0.00  0.00    +0.000 A 
ATOM     21  C   UNL     1      47.643   5.953  13.772  0.00  0.00    +0.000 A 
ATOM     22  N   UNL     1      47.518   5.344  14.981  0.00  0.00    +0.000 NA
BRANCH  21  23
ATOM     23  C   UNL     1      46.704   5.494  12.725  0.00  0.00    +0.000 A 
ATOM     24  C   UNL     1      46.000   4.284  12.874  0.00  0.00    +0.000 A 
ATOM     25  C   UNL     1      45.123   3.821  11.889  0.00  0.00    +0.000 A 
ATOM     26  C   UNL     1      44.927   4.564  10.729  0.00  0.00    +0.000 A 
ATOM     27  C   UNL     1      45.606   5.766  10.555  0.00  0.00    +0.000 A 
ATOM     28  C   UNL     1      46.483   6.226  11.543  0.00  0.00    +0.000 A 
ENDBRANCH  21  23
ENDBRANCH   1  17
TORSDOF 4
ENDMDL
