MODEL 1
REMARK VINA RESULT:    -9.316      0.000      0.000
REMARK INTER + INTRA:         -12.839
REMARK INTER:                 -12.039
REMARK INTRA:                  -0.800
REMARK UNBOUND:                -0.800
REMARK  Name = 
REMARK  5 active torsions:
REMARK  status: ('A' for Active; 'I' for Inactive)
REMARK    1  A    between atoms: C_2  and  C_4
REMARK    2  A    between atoms: N_8  and  C_9
REMARK    3  A    between atoms: C_9  and  C_10
REMARK    4  A    between atoms: C_10  and  C_11
REMARK    5  A    between atoms: C_15  and  C_16
REMARK                            x       y       z     vdW  Elec       q    Type
REMARK                         _______ _______ _______ _____ _____    ______ ____
ROOT
ATOM      1  C   UNL     1      43.675   5.632  12.185  0.00  0.00    +0.000 C 
ENDROOT
BRANCH   1   2
ATOM      2  C   UNL     1      45.154   5.775  12.461  0.00  0.00    +0.000 A 
ATOM      3  C   UNL     1      45.963   6.549  11.626  0.00  0.00    +0.000 A 
ATOM      4  C   UNL     1      47.315   6.710  11.920  0.00  0.00    +0.000 A 
ATOM      5  C   UNL     1      47.856   6.120  13.062  0.00  0.00    +0.000 A 
ATOM      6  C   UNL     1      47.065   5.370  13.952  0.00  0.00    +0.000 A 
ATOM      7  C   UNL     1      45.711   5.192  13.609  0.00  0.00    +0.000 A 
BRANCH   6   8
ATOM      8  C   UNL     1      47.627   4.805  15.202  0.00  0.00    +0.000 A 
ATOM      9  C   UNL     1      47.512   3.431  15.500  0.00  0.00    +0.000 A 
ATOM     10  C   UNL     1      48.054   2.882  16.670  0.00  0.00    +0.000 A 
ATOM     11  C   UNL     1      48.734   3.696  17.569  0.00  0.00    +0.000 A 
ATOM     12  C   UNL     1      48.842   5.053  17.305  0.00  0.00    +0.000 A 
ATOM     13  F   UNL     1      49.488   5.840  18.178  0.00  0.00    +0.000 F 
ATOM     14  C   UNL     1      48.289   5.604  16.152  0.00  0.00    +0.000 A 
ATOM     15  F   UNL     1      48.393   6.932  15.978  0.00  0.00    +0.000 F 
ENDBRANCH   6   8
ENDBRANCH   1   2
BRANCH   1  16
ATOM     16  C   UNL     1      43.404   4.431  11.273  0.00  0.00    +0.000 C 
BRANCH  16  21
ATOM     17  C   UNL     1      46.452   2.501   7.696  0.00  0.00    +0.000 A 
ATOM     18  C   UNL     1      45.658   1.845   8.630  0.00  0.00    +0.000 A 
ATOM     19  C   UNL     1      44.759   2.586   9.400  0.00  0.00    +0.000 A 
ATOM     20  C   UNL     1      44.674   3.965   9.232  0.00  0.00    +0.000 A 
ATOM     21  N   UNL     1      43.744   4.751   9.895  0.00  0.00    +0.000 N 
ATOM     22  N   UNL     1      45.456   4.613   8.345  0.00  0.00    +0.000 NA
ATOM     23  C   UNL     1      46.330   3.879   7.606  0.00  0.00    +0.000 A 
ATOM     24  H   UNL     1      43.980   5.722   9.703  0.00  0.00    +0.000 HD
BRANCH  17  26
ATOM     25  N   UNL     1      48.513   2.501   6.410  0.00  0.00    +0.000 N 
ATOM     26  C   UNL     1      47.418   1.796   6.828  0.00  0.00    +0.000 C 
ATOM     27  O   UNL     1      47.264   0.621   6.524  0.00  0.00    +0.000 OA
ATOM     28  H   UNL     1      49.217   1.978   5.904  0.00  0.00    +0.000 HD
ATOM     29  H   UNL     1      48.803   3.365   6.849  0.00  0.00    +0.000 HD
ENDBRANCH  17  26
ENDBRANCH  16  21
ENDBRANCH   1  16
TORSDOF 5
ENDMDL
MODEL 2
REMARK VINA RESULT:    -9.278      2.256      4.073
REMARK INTER + INTRA:         -12.789
REMARK INTER:                 -11.941
REMARK INTRA:                  -0.848
REMARK UNBOUND:                -0.800
REMARK  Name = 
REMARK  5 active torsions:
REMARK  status: ('A' for Active; 'I' for Inactive)
REMARK    1  A    between atoms: C_2  and  C_4
REMARK    2  A    between atoms: N_8  and  C_9
REMARK    3  A    between atoms: C_9  and  C_10
REMARK    4  A    between atoms: C_10  and  C_11
REMARK    5  A    between atoms: C_15  and  C_16
REMARK                            x       y       z     vdW  Elec       q    Type
REMARK                         _______ _______ _______ _____ _____    ______ ____
ROOT
ATOM      1  C   UNL     1      43.374   5.602  12.143  0.00  0.00    +0.000 C 
ENDROOT
BRANCH   1   2
ATOM      2  C   UNL     1      44.784   5.800  12.648  0.00  0.00    +0.000 A 
ATOM      3  C   UNL     1      45.408   4.819  13.422  0.00  0.00    +0.000 A 
ATOM      4  C   UNL     1      46.725   4.994  13.840  0.00  0.00    +0.000 A 
ATOM      5  C   UNL     1      47.430   6.138  13.463  0.00  0.00    +0.000 A 
ATOM      6  C   UNL     1      46.852   7.127  12.647  0.00  0.00    +0.000 A 
ATOM      7  C   UNL     1      45.508   6.942  12.273  0.00  0.00    +0.000 A 
BRANCH   6   8
ATOM      8  C   UNL     1      47.627   8.306  12.190  0.00  0.00    +0.000 A 
ATOM      9  C   UNL     1      47.045   9.590  12.142  0.00  0.00    +0.000 A 
ATOM     10  C   UNL     1      47.772  10.713  11.727  0.00  0.00    +0.000 A 
ATOM     11  C   UNL     1      49.106  10.581  11.358  0.00  0.00    +0.000 A 
ATOM     12  C   UNL     1      49.692   9.325  11.380  0.00  0.00    +0.000 A 
ATOM     13  F   UNL     1      50.975   9.195  11.014  0.00  0.00    +0.000 F 
ATOM     14  C   UNL     1      48.967   8.203  11.775  0.00  0.00    +0.000 A 
ATOM     15  F   UNL     1      49.583   7.010  11.733  0.00  0.00    +0.000 F 
ENDBRANCH   6   8
ENDBRANCH   1   2
BRANCH   1  16
ATOM     16  C   UNL     1      43.292   4.384  11.217  0.00  0.00    +0.000 C 
BRANCH  16  21
ATOM     17  C   UNL     1      46.468   2.527   7.713  0.00  0.00    +0.000 A 
ATOM     18  C   UNL     1      45.625   1.852   8.588  0.00  0.00    +0.000 A 
ATOM     19  C   UNL     1      44.703   2.581   9.343  0.00  0.00    +0.000 A 
ATOM     20  C   UNL     1      44.645   3.966   9.218  0.00  0.00    +0.000 A 
ATOM     21  N   UNL     1      43.697   4.744   9.866  0.00  0.00    +0.000 N 
ATOM     22  N   UNL     1      45.474   4.631   8.389  0.00  0.00    +0.000 NA
ATOM     23  C   UNL     1      46.370   3.908   7.664  0.00  0.00    +0.000 A 
ATOM     24  H   UNL     1      43.955   5.717   9.717  0.00  0.00    +0.000 HD
BRANCH  17  26
ATOM     25  N   UNL     1      48.541   2.564   6.447  0.00  0.00    +0.000 N 
ATOM     26  C   UNL     1      47.461   1.836   6.865  0.00  0.00    +0.000 C 
ATOM     27  O   UNL     1      47.342   0.653   6.576  0.00  0.00    +0.000 OA
ATOM     28  H   UNL     1      49.264   2.053   5.956  0.00  0.00    +0.000 HD
ATOM     29  H   UNL     1      48.803   3.442   6.876  0.00  0.00    +0.000 HD
ENDBRANCH  17  26
ENDBRANCH  16  21
ENDBRANCH   1  16
TORSDOF 5
ENDMDL
MODEL 3
REMARK VINA RESULT:    -9.140      1.925      3.556
REMARK INTER + INTRA:         -12.612
REMARK INTER:                 -11.609
REMARK INTRA:                  -1.003
REMARK UNBOUND:                -0.800
REMARK  Name = 
REMARK  5 active torsions:
REMARK  status: ('A' for Active; 'I' for Inactive)
REMARK    1  A    between atoms: C_2  and  C_4
REMARK    2  A    between atoms: N_8  and  C_9
REMARK    3  A    between atoms: C_9  and  C_10
REMARK    4  A    between atoms: C_10  and  C_11
REMARK    5  A    between atoms: C_15  and  C_16
REMARK                            x       y       z     vdW  Elec       q    Type
REMARK                         _______ _______ _______ _____ _____    ______ ____
ROOT
ATOM      1  C   UNL     1      43.529   5.733  12.137  0.00  0.00    +0.000 C 
ENDROOT
BRANCH   1   2
ATOM      2  C   UNL     1      44.912   5.755  12.744  0.00  0.00    +0.000 A 
ATOM      3  C   UNL     1      45.434   4.620  13.370  0.00  0.00    +0.000 A 
ATOM      4  C   UNL     1      46.729   4.641  13.882  0.00  0.00    +0.000 A 
ATOM      5  C   UNL     1      47.515   5.786  13.747  0.00  0.00    +0.000 A 
ATOM      6  C   UNL     1      47.042   6.933  13.083  0.00  0.00    +0.000 A 
ATOM      7  C   UNL     1      45.717   6.897  12.610  0.00  0.00    +0.000 A 
BRANCH   6   8
ATOM      8  C   UNL     1      47.904   8.122  12.878  0.00  0.00    +0.000 A 
ATOM      9  C   UNL     1      48.618   8.308  11.676  0.00  0.00    +0.000 A 
ATOM     10  C   UNL     1      49.423   9.436  11.464  0.00  0.00    +0.000 A 
ATOM     11  C   UNL     1      49.526  10.411  12.449  0.00  0.00    +0.000 A 
ATOM     12  C   UNL     1      48.847  10.238  13.646  0.00  0.00    +0.000 A 
ATOM     13  F   UNL     1      48.955  11.174  14.600  0.00  0.00    +0.000 F 
ATOM     14  C   UNL     1      48.061   9.111  13.867  0.00  0.00    +0.000 A 
ATOM     15  F   UNL     1      47.465   8.985  15.064  0.00  0.00    +0.000 F 
ENDBRANCH   6   8
ENDBRANCH   1   2
BRANCH   1  16
ATOM     16  C   UNL     1      43.358   4.523  11.212  0.00  0.00    +0.000 C 
BRANCH  16  21
ATOM     17  C   UNL     1      46.465   2.541   7.714  0.00  0.00    +0.000 A 
ATOM     18  C   UNL     1      45.608   1.899   8.600  0.00  0.00    +0.000 A 
ATOM     19  C   UNL     1      44.710   2.661   9.351  0.00  0.00    +0.000 A 
ATOM     20  C   UNL     1      44.689   4.046   9.212  0.00  0.00    +0.000 A 
ATOM     21  N   UNL     1      43.767   4.857   9.856  0.00  0.00    +0.000 N 
ATOM     22  N   UNL     1      45.533   4.679   8.372  0.00  0.00    +0.000 NA
ATOM     23  C   UNL     1      46.405   3.924   7.650  0.00  0.00    +0.000 A 
ATOM     24  H   UNL     1      44.051   5.821   9.696  0.00  0.00    +0.000 HD
BRANCH  17  26
ATOM     25  N   UNL     1      48.532   2.508   6.438  0.00  0.00    +0.000 N 
ATOM     26  C   UNL     1      47.435   1.814   6.869  0.00  0.00    +0.000 C 
ATOM     27  O   UNL     1      47.282   0.632   6.594  0.00  0.00    +0.000 OA
ATOM     28  H   UNL     1      49.238   1.972   5.949  0.00  0.00    +0.000 HD
ATOM     29  H   UNL     1      48.820   3.383   6.856  0.00  0.00    +0.000 HD
ENDBRANCH  17  26
ENDBRANCH  16  21
ENDBRANCH   1  16
TORSDOF 5
ENDMDL
MODEL 4
REMARK VINA RESULT:    -8.871      2.500      4.179
REMARK INTER + INTRA:         -12.263
REMARK INTER:                 -11.539
REMARK INTRA:                  -0.725
REMARK UNBOUND:                -0.800
REMARK  Name = 
REMARK  5 active torsions:
REMARK  status: ('A' for Active; 'I' for Inactive)
REMARK    1  A    between atoms: C_2  and  C_4
REMARK    2  A    between atoms: N_8  and  C_9
REMARK    3  A    between atoms: C_9  and  C_10
REMARK    4  A    between atoms: C_10  and  C_11
REMARK    5  A    between atoms: C_15  and  C_16
REMARK                            x       y       z     vdW  Elec       q    Type
REMARK                         _______ _______ _______ _____ _____    ______ ____
ROOT
ATOM      1  C   UNL     1      43.475   4.684  12.580  0.00  0.00    +0.000 C 
ENDROOT
BRANCH   1   2
ATOM      2  C   UNL     1      44.896   5.095  12.886  0.00  0.00    +0.000 A 
ATOM      3  C   UNL     1      45.801   4.180  13.431  0.00  0.00    +0.000 A 
ATOM      4  C   UNL     1      47.121   4.560  13.663  0.00  0.00    +0.000 A 
ATOM      5  C   UNL     1      47.546   5.845  13.328  0.00  0.00    +0.000 A 
ATOM      6  C   UNL     1      46.678   6.781  12.737  0.00  0.00    +0.000 A 
ATOM      7  C   UNL     1      45.341   6.382  12.549  0.00  0.00    +0.000 A 
BRANCH   6   8
ATOM      8  C   UNL     1      47.151   8.121  12.317  0.00  0.00    +0.000 A 
ATOM      9  C   UNL     1      48.496   8.341  11.953  0.00  0.00    +0.000 A 
ATOM     10  C   UNL     1      48.952   9.599  11.538  0.00  0.00    +0.000 A 
ATOM     11  C   UNL     1      48.068  10.670  11.467  0.00  0.00    +0.000 A 
ATOM     12  C   UNL     1      46.745  10.481  11.838  0.00  0.00    +0.000 A 
ATOM     13  F   UNL     1      45.895  11.516  11.780  0.00  0.00    +0.000 F 
ATOM     14  C   UNL     1      46.293   9.236  12.268  0.00  0.00    +0.000 A 
ATOM     15  F   UNL     1      45.011   9.131  12.653  0.00  0.00    +0.000 F 
ENDBRANCH   6   8
ENDBRANCH   1   2
BRANCH   1  16
ATOM     16  C   UNL     1      43.443   3.593  11.504  0.00  0.00    +0.000 C 
BRANCH  16  21
ATOM     17  C   UNL     1      46.497   2.597   7.568  0.00  0.00    +0.000 A 
ATOM     18  C   UNL     1      45.814   1.719   8.401  0.00  0.00    +0.000 A 
ATOM     19  C   UNL     1      44.883   2.228   9.309  0.00  0.00    +0.000 A 
ATOM     20  C   UNL     1      44.658   3.600   9.377  0.00  0.00    +0.000 A 
ATOM     21  N   UNL     1      43.687   4.167  10.189  0.00  0.00    +0.000 N 
ATOM     22  N   UNL     1      45.332   4.461   8.589  0.00  0.00    +0.000 NA
ATOM     23  C   UNL     1      46.239   3.951   7.712  0.00  0.00    +0.000 A 
ATOM     24  H   UNL     1      43.819   5.176  10.156  0.00  0.00    +0.000 HD
BRANCH  17  26
ATOM     25  N   UNL     1      47.860   3.048   5.608  0.00  0.00    +0.000 N 
ATOM     26  C   UNL     1      47.486   2.147   6.566  0.00  0.00    +0.000 C 
ATOM     27  O   UNL     1      47.976   1.026   6.612  0.00  0.00    +0.000 OA
ATOM     28  H   UNL     1      48.613   2.763   4.993  0.00  0.00    +0.000 HD
ATOM     29  H   UNL     1      47.684   4.040   5.697  0.00  0.00    +0.000 HD
ENDBRANCH  17  26
ENDBRANCH  16  21
ENDBRANCH   1  16
TORSDOF 5
ENDMDL
MODEL 5
REMARK VINA RESULT:    -8.526      2.511      3.171
REMARK INTER + INTRA:         -11.818
REMARK INTER:                 -11.081
REMARK INTRA:                  -0.737
REMARK UNBOUND:                -0.800
REMARK  Name = 
REMARK  5 active torsions:
REMARK  status: ('A' for Active; 'I' for Inactive)
REMARK    1  A    between atoms: C_2  and  C_4
REMARK    2  A    between atoms: N_8  and  C_9
REMARK    3  A    between atoms: C_9  and  C_10
REMARK    4  A    between atoms: C_10  and  C_11
REMARK    5  A    between atoms: C_15  and  C_16
REMARK                            x       y       z     vdW  Elec       q    Type
REMARK                         _______ _______ _______ _____ _____    ______ ____
ROOT
ATOM      1  C   UNL     1      44.758   4.781  12.011  0.00  0.00    +0.000 C 
ENDROOT
BRANCH   1   2
ATOM      2  C   UNL     1      45.323   6.183  12.004  0.00  0.00    +0.000 A 
ATOM      3  C   UNL     1      44.479   7.291  11.902  0.00  0.00    +0.000 A 
ATOM      4  C   UNL     1      45.010   8.578  11.945  0.00  0.00    +0.000 A 
ATOM      5  C   UNL     1      46.382   8.761  12.117  0.00  0.00    +0.000 A 
ATOM      6  C   UNL     1      47.260   7.672  12.268  0.00  0.00    +0.000 A 
ATOM      7  C   UNL     1      46.701   6.384  12.182  0.00  0.00    +0.000 A 
BRANCH   6   8
ATOM      8  C   UNL     1      48.707   7.872  12.523  0.00  0.00    +0.000 A 
ATOM      9  C   UNL     1      49.629   7.974  11.460  0.00  0.00    +0.000 A 
ATOM     10  C   UNL     1      50.996   8.179  11.688  0.00  0.00    +0.000 A 
ATOM     11  C   UNL     1      51.475   8.297  12.987  0.00  0.00    +0.000 A 
ATOM     12  C   UNL     1      50.588   8.182  14.047  0.00  0.00    +0.000 A 
ATOM     13  F   UNL     1      51.051   8.285  15.301  0.00  0.00    +0.000 F 
ATOM     14  C   UNL     1      49.231   7.960  13.825  0.00  0.00    +0.000 A 
ATOM     15  F   UNL     1      48.435   7.815  14.897  0.00  0.00    +0.000 F 
ENDBRANCH   6   8
ENDBRANCH   1   2
BRANCH   1  16
ATOM     16  C   UNL     1      43.517   4.689  11.117  0.00  0.00    +0.000 C 
BRANCH  16  21
ATOM     17  C   UNL     1      46.470   2.465   7.632  0.00  0.00    +0.000 A 
ATOM     18  C   UNL     1      45.646   1.887   8.591  0.00  0.00    +0.000 A 
ATOM     19  C   UNL     1      44.783   2.702   9.327  0.00  0.00    +0.000 A 
ATOM     20  C   UNL     1      44.764   4.076   9.100  0.00  0.00    +0.000 A 
ATOM     21  N   UNL     1      43.872   4.933   9.727  0.00  0.00    +0.000 N 
ATOM     22  N   UNL     1      45.575   4.648   8.188  0.00  0.00    +0.000 NA
ATOM     23  C   UNL     1      46.413   3.841   7.482  0.00  0.00    +0.000 A 
ATOM     24  H   UNL     1      44.153   5.883   9.494  0.00  0.00    +0.000 HD
BRANCH  17  26
ATOM     25  N   UNL     1      48.484   2.335   6.280  0.00  0.00    +0.000 N 
ATOM     26  C   UNL     1      47.401   1.678   6.797  0.00  0.00    +0.000 C 
ATOM     27  O   UNL     1      47.230   0.482   6.603  0.00  0.00    +0.000 OA
ATOM     28  H   UNL     1      49.167   1.763   5.798  0.00  0.00    +0.000 HD
ATOM     29  H   UNL     1      48.793   3.231   6.630  0.00  0.00    +0.000 HD
ENDBRANCH  17  26
ENDBRANCH  16  21
ENDBRANCH   1  16
TORSDOF 5
ENDMDL
MODEL 6
REMARK VINA RESULT:    -8.348      4.695      8.427
REMARK INTER + INTRA:         -11.588
REMARK INTER:                 -10.825
REMARK INTRA:                  -0.763
REMARK UNBOUND:                -0.800
REMARK  Name = 
REMARK  5 active torsions:
REMARK  status: ('A' for Active; 'I' for Inactive)
REMARK    1  A    between atoms: C_2  and  C_4
REMARK    2  A    between atoms: N_8  and  C_9
REMARK    3  A    between atoms: C_9  and  C_10
REMARK    4  A    between atoms: C_10  and  C_11
REMARK    5  A    between atoms: C_15  and  C_16
REMARK                            x       y       z     vdW  Elec       q    Type
REMARK                         _______ _______ _______ _____ _____    ______ ____
ROOT
ATOM      1  C   UNL     1      46.184   7.117  11.925  0.00  0.00    +0.000 C 
ENDROOT
BRANCH   1   2
ATOM      2  C   UNL     1      45.349   6.085  11.203  0.00  0.00    +0.000 A 
ATOM      3  C   UNL     1      43.971   6.009  11.414  0.00  0.00    +0.000 A 
ATOM      4  C   UNL     1      43.207   5.085  10.705  0.00  0.00    +0.000 A 
ATOM      5  C   UNL     1      43.815   4.252   9.765  0.00  0.00    +0.000 A 
ATOM      6  C   UNL     1      45.193   4.328   9.491  0.00  0.00    +0.000 A 
ATOM      7  C   UNL     1      45.945   5.245  10.250  0.00  0.00    +0.000 A 
BRANCH   6   8
ATOM      8  C   UNL     1      45.822   3.492   8.441  0.00  0.00    +0.000 A 
ATOM      9  C   UNL     1      46.416   4.074   7.302  0.00  0.00    +0.000 A 
ATOM     10  C   UNL     1      47.028   3.295   6.311  0.00  0.00    +0.000 A 
ATOM     11  C   UNL     1      47.070   1.912   6.441  0.00  0.00    +0.000 A 
ATOM     12  C   UNL     1      46.477   1.318   7.544  0.00  0.00    +0.000 A 
ATOM     13  F   UNL     1      46.508  -0.017   7.664  0.00  0.00    +0.000 F 
ATOM     14  C   UNL     1      45.851   2.088   8.522  0.00  0.00    +0.000 A 
ATOM     15  F   UNL     1      45.259   1.447   9.543  0.00  0.00    +0.000 F 
ENDBRANCH   6   8
ENDBRANCH   1   2
BRANCH   1  16
ATOM     16  C   UNL     1      47.226   6.444  12.824  0.00  0.00    +0.000 C 
BRANCH  16  21
ATOM     17  C   UNL     1      48.555   4.404  17.283  0.00  0.00    +0.000 A 
ATOM     18  C   UNL     1      48.906   5.631  16.733  0.00  0.00    +0.000 A 
ATOM     19  C   UNL     1      48.271   6.060  15.565  0.00  0.00    +0.000 A 
ATOM     20  C   UNL     1      47.307   5.256  14.965  0.00  0.00    +0.000 A 
ATOM     21  N   UNL     1      46.572   5.655  13.858  0.00  0.00    +0.000 N 
ATOM     22  N   UNL     1      46.976   4.054  15.478  0.00  0.00    +0.000 NA
ATOM     23  C   UNL     1      47.606   3.648  16.614  0.00  0.00    +0.000 A 
ATOM     24  H   UNL     1      46.044   4.845  13.540  0.00  0.00    +0.000 HD
BRANCH  17  26
ATOM     25  N   UNL     1      48.390   3.058  19.299  0.00  0.00    +0.000 N 
ATOM     26  C   UNL     1      49.162   3.879  18.524  0.00  0.00    +0.000 C 
ATOM     27  O   UNL     1      50.319   4.138  18.829  0.00  0.00    +0.000 OA
ATOM     28  H   UNL     1      48.851   2.623  20.089  0.00  0.00    +0.000 HD
ATOM     29  H   UNL     1      47.548   2.618  18.953  0.00  0.00    +0.000 HD
ENDBRANCH  17  26
ENDBRANCH  16  21
ENDBRANCH   1  16
TORSDOF 5
ENDMDL
MODEL 7
REMARK VINA RESULT:    -7.877      4.526      7.782
REMARK INTER + INTRA:         -10.979
REMARK INTER:                  -9.872
REMARK INTRA:                  -1.107
REMARK UNBOUND:                -0.800
REMARK  Name = 
REMARK  5 active torsions:
REMARK  status: ('A' for Active; 'I' for Inactive)
REMARK    1  A    between atoms: C_2  and  C_4
REMARK    2  A    between atoms: N_8  and  C_9
REMARK    3  A    between atoms: C_9  and  C_10
REMARK    4  A    between atoms: C_10  and  C_11
REMARK    5  A    between atoms: C_15  and  C_16
REMARK                            x       y       z     vdW  Elec       q    Type
REMARK                         _______ _______ _______ _____ _____    ______ ____
ROOT
ATOM      1  C   UNL     1      49.052   8.022  12.370  0.00  0.00    +0.000 C 
ENDROOT
BRANCH   1   2
ATOM      2  C   UNL     1      47.576   7.830  12.113  0.00  0.00    +0.000 A 
ATOM      3  C   UNL     1      46.665   8.853  12.390  0.00  0.00    +0.000 A 
ATOM      4  C   UNL     1      45.314   8.679  12.102  0.00  0.00    +0.000 A 
ATOM      5  C   UNL     1      44.872   7.494  11.513  0.00  0.00    +0.000 A 
ATOM      6  C   UNL     1      45.764   6.458  11.178  0.00  0.00    +0.000 A 
ATOM      7  C   UNL     1      47.117   6.646  11.515  0.00  0.00    +0.000 A 
BRANCH   6   8
ATOM      8  C   UNL     1      45.302   5.231  10.487  0.00  0.00    +0.000 A 
ATOM      9  C   UNL     1      45.634   4.981   9.140  0.00  0.00    +0.000 A 
ATOM     10  C   UNL     1      45.217   3.816   8.481  0.00  0.00    +0.000 A 
ATOM     11  C   UNL     1      44.464   2.866   9.160  0.00  0.00    +0.000 A 
ATOM     12  C   UNL     1      44.110   3.100  10.480  0.00  0.00    +0.000 A 
ATOM     13  F   UNL     1      43.374   2.188  11.132  0.00  0.00    +0.000 F 
ATOM     14  C   UNL     1      44.508   4.265  11.132  0.00  0.00    +0.000 A 
ATOM     15  F   UNL     1      44.095   4.448  12.397  0.00  0.00    +0.000 F 
ENDBRANCH   6   8
ENDBRANCH   1   2
BRANCH   1  16
ATOM     16  C   UNL     1      49.308   8.379  13.838  0.00  0.00    +0.000 C 
BRANCH  16  21
ATOM     17  C   UNL     1      48.183   4.464  16.874  0.00  0.00    +0.000 A 
ATOM     18  C   UNL     1      47.489   4.959  15.776  0.00  0.00    +0.000 A 
ATOM     19  C   UNL     1      48.086   5.938  14.979  0.00  0.00    +0.000 A 
ATOM     20  C   UNL     1      49.357   6.411  15.295  0.00  0.00    +0.000 A 
ATOM     21  N   UNL     1      50.046   7.314  14.500  0.00  0.00    +0.000 N 
ATOM     22  N   UNL     1      50.028   5.954  16.371  0.00  0.00    +0.000 NA
ATOM     23  C   UNL     1      49.432   5.003  17.141  0.00  0.00    +0.000 A 
ATOM     24  H   UNL     1      50.877   7.596  15.017  0.00  0.00    +0.000 HD
BRANCH  17  26
ATOM     25  N   UNL     1      48.337   3.137  18.903  0.00  0.00    +0.000 N 
ATOM     26  C   UNL     1      47.636   3.417  17.762  0.00  0.00    +0.000 C 
ATOM     27  O   UNL     1      46.583   2.848  17.506  0.00  0.00    +0.000 OA
ATOM     28  H   UNL     1      47.899   2.494  19.552  0.00  0.00    +0.000 HD
ATOM     29  H   UNL     1      49.046   3.756  19.271  0.00  0.00    +0.000 HD
ENDBRANCH  17  26
ENDBRANCH  16  21
ENDBRANCH   1  16
TORSDOF 5
ENDMDL
MODEL 8
REMARK VINA RESULT:    -7.717      4.363      7.863
REMARK INTER + INTRA:         -10.773
REMARK INTER:                  -9.882
REMARK INTRA:                  -0.891
REMARK UNBOUND:                -0.800
REMARK  Name = 
REMARK  5 active torsions:
REMARK  status: ('A' for Active; 'I' for Inactive)
REMARK    1  A    between atoms: C_2  and  C_4
REMARK    2  A    between atoms: N_8  and  C_9
REMARK    3  A    between atoms: C_9  and  C_10
REMARK    4  A    between atoms: C_10  and  C_11
REMARK    5  A    between atoms: C_15  and  C_16
REMARK                            x       y       z     vdW  Elec       q    Type
REMARK                         _______ _______ _______ _____ _____    ______ ____
ROOT
ATOM      1  C   UNL     1      45.402   7.021  11.021  0.00  0.00    +0.000 C 
ENDROOT
BRANCH   1   2
ATOM      2  C   UNL     1      44.953   5.603  10.753  0.00  0.00    +0.000 A 
ATOM      3  C   UNL     1      43.816   5.085  11.378  0.00  0.00    +0.000 A 
ATOM      4  C   UNL     1      43.387   3.794  11.084  0.00  0.00    +0.000 A 
ATOM      5  C   UNL     1      44.077   3.025  10.145  0.00  0.00    +0.000 A 
ATOM      6  C   UNL     1      45.200   3.527   9.461  0.00  0.00    +0.000 A 
ATOM      7  C   UNL     1      45.633   4.821   9.807  0.00  0.00    +0.000 A 
BRANCH   6   8
ATOM      8  C   UNL     1      45.887   2.735   8.414  0.00  0.00    +0.000 A 
ATOM      9  C   UNL     1      46.041   1.338   8.535  0.00  0.00    +0.000 A 
ATOM     10  C   UNL     1      46.674   0.577   7.544  0.00  0.00    +0.000 A 
ATOM     11  C   UNL     1      47.161   1.195   6.398  0.00  0.00    +0.000 A 
ATOM     12  C   UNL     1      47.037   2.570   6.266  0.00  0.00    +0.000 A 
ATOM     13  F   UNL     1      47.516   3.168   5.166  0.00  0.00    +0.000 F 
ATOM     14  C   UNL     1      46.424   3.332   7.258  0.00  0.00    +0.000 A 
ATOM     15  F   UNL     1      46.374   4.663   7.087  0.00  0.00    +0.000 F 
ENDBRANCH   6   8
ENDBRANCH   1   2
BRANCH   1  16
ATOM     16  C   UNL     1      45.468   7.296  12.527  0.00  0.00    +0.000 C 
BRANCH  16  21
ATOM     17  C   UNL     1      47.701   4.053  15.738  0.00  0.00    +0.000 A 
ATOM     18  C   UNL     1      46.699   3.822  14.802  0.00  0.00    +0.000 A 
ATOM     19  C   UNL     1      46.366   4.833  13.898  0.00  0.00    +0.000 A 
ATOM     20  C   UNL     1      47.030   6.055  13.948  0.00  0.00    +0.000 A 
ATOM     21  N   UNL     1      46.815   7.070  13.028  0.00  0.00    +0.000 N 
ATOM     22  N   UNL     1      47.986   6.297  14.867  0.00  0.00    +0.000 NA
ATOM     23  C   UNL     1      48.297   5.304  15.744  0.00  0.00    +0.000 A 
ATOM     24  H   UNL     1      47.314   7.891  13.364  0.00  0.00    +0.000 HD
BRANCH  17  26
ATOM     25  N   UNL     1      47.399   2.933  17.872  0.00  0.00    +0.000 N 
ATOM     26  C   UNL     1      48.130   3.036  16.720  0.00  0.00    +0.000 C 
ATOM     27  O   UNL     1      49.077   2.294  16.500  0.00  0.00    +0.000 OA
ATOM     28  H   UNL     1      47.639   2.165  18.488  0.00  0.00    +0.000 HD
ATOM     29  H   UNL     1      46.475   3.333  17.967  0.00  0.00    +0.000 HD
ENDBRANCH  17  26
ENDBRANCH  16  21
ENDBRANCH   1  16
TORSDOF 5
ENDMDL
MODEL 9
REMARK VINA RESULT:    -7.686      4.818      8.040
REMARK INTER + INTRA:         -10.732
REMARK INTER:                  -9.818
REMARK INTRA:                  -0.914
REMARK UNBOUND:                -0.800
REMARK  Name = 
REMARK  5 active torsions:
REMARK  status: ('A' for Active; 'I' for Inactive)
REMARK    1  A    between atoms: C_2  and  C_4
REMARK    2  A    between atoms: N_8  and  C_9
REMARK    3  A    between atoms: C_9  and  C_10
REMARK    4  A    between atoms: C_10  and  C_11
REMARK    5  A    between atoms: C_15  and  C_16
REMARK                            x       y       z     vdW  Elec       q    Type
REMARK                         _______ _______ _______ _____ _____    ______ ____
ROOT
ATOM      1  C   UNL     1      48.868   7.031  14.319  0.00  0.00    +0.000 C 
ENDROOT
BRANCH   1   2
ATOM      2  C   UNL     1      47.567   7.236  13.578  0.00  0.00    +0.000 A 
ATOM      3  C   UNL     1      46.965   8.496  13.530  0.00  0.00    +0.000 A 
ATOM      4  C   UNL     1      45.792   8.681  12.803  0.00  0.00    +0.000 A 
ATOM      5  C   UNL     1      45.232   7.614  12.100  0.00  0.00    +0.000 A 
ATOM      6  C   UNL     1      45.832   6.342  12.086  0.00  0.00    +0.000 A 
ATOM      7  C   UNL     1      46.995   6.175  12.860  0.00  0.00    +0.000 A 
BRANCH   6   8
ATOM      8  C   UNL     1      45.273   5.230  11.279  0.00  0.00    +0.000 A 
ATOM      9  C   UNL     1      45.539   5.123   9.899  0.00  0.00    +0.000 A 
ATOM     10  C   UNL     1      45.031   4.067   9.129  0.00  0.00    +0.000 A 
ATOM     11  C   UNL     1      44.249   3.085   9.727  0.00  0.00    +0.000 A 
ATOM     12  C   UNL     1      43.960   3.182  11.080  0.00  0.00    +0.000 A 
ATOM     13  F   UNL     1      43.198   2.240  11.654  0.00  0.00    +0.000 F 
ATOM     14  C   UNL     1      44.449   4.239  11.843  0.00  0.00    +0.000 A 
ATOM     15  F   UNL     1      44.097   4.294  13.138  0.00  0.00    +0.000 F 
ENDBRANCH   6   8
ENDBRANCH   1   2
BRANCH   1  16
ATOM     16  C   UNL     1      48.691   7.304  15.816  0.00  0.00    +0.000 C 
BRANCH  16  21
ATOM     17  C   UNL     1      50.864   3.030  17.496  0.00  0.00    +0.000 A 
ATOM     18  C   UNL     1      51.345   4.334  17.518  0.00  0.00    +0.000 A 
ATOM     19  C   UNL     1      50.491   5.380  17.163  0.00  0.00    +0.000 A 
ATOM     20  C   UNL     1      49.180   5.107  16.784  0.00  0.00    +0.000 A 
ATOM     21  N   UNL     1      48.252   6.099  16.505  0.00  0.00    +0.000 N 
ATOM     22  N   UNL     1      48.711   3.844  16.738  0.00  0.00    +0.000 NA
ATOM     23  C   UNL     1      49.556   2.835  17.083  0.00  0.00    +0.000 A 
ATOM     24  H   UNL     1      47.425   5.641  16.128  0.00  0.00    +0.000 HD
BRANCH  17  26
ATOM     25  N   UNL     1      52.801   2.105  18.634  0.00  0.00    +0.000 N 
ATOM     26  C   UNL     1      51.690   1.864  17.873  0.00  0.00    +0.000 C 
ATOM     27  O   UNL     1      51.377   0.727  17.547  0.00  0.00    +0.000 OA
ATOM     28  H   UNL     1      53.299   1.290  18.972  0.00  0.00    +0.000 HD
ATOM     29  H   UNL     1      52.939   2.973  19.134  0.00  0.00    +0.000 HD
ENDBRANCH  17  26
ENDBRANCH  16  21
ENDBRANCH   1  16
TORSDOF 5
ENDMDL
