MODEL 1
REMARK VINA RESULT:    -9.436      0.000      0.000
REMARK INTER + INTRA:         -13.936
REMARK INTER:                 -13.297
REMARK INTRA:                  -0.639
REMARK UNBOUND:                -0.639
REMARK  Name = 
REMARK  7 active torsions:
REMARK  status: ('A' for Active; 'I' for Inactive)
REMARK    1  A    between atoms: C_2  and  C_4
REMARK    2  A    between atoms: C_7  and  N_8
REMARK    3  A    between atoms: N_8  and  C_9
REMARK    4  A    between atoms: C_9  and  C_10
REMARK    5  A    between atoms: C_10  and  C_13
REMARK    6  A    between atoms: C_17  and  O_18
REMARK    7  A    between atoms: O_18  and  C_19
REMARK                            x       y       z     vdW  Elec       q    Type
REMARK                         _______ _______ _______ _____ _____    ______ ____
ROOT
ATOM      1  C   UNL     1      43.419   4.248  11.162  0.00  0.00    +0.000 C 
ENDROOT
BRANCH   1   2
ATOM      2  C   UNL     1      43.534   5.356  12.242  0.00  0.00    +0.000 C 
ATOM      3  F   UNL     1      43.063   6.517  11.685  0.00  0.00    +0.000 F 
ATOM      4  F   UNL     1      42.634   5.056  13.230  0.00  0.00    +0.000 F 
BRANCH   2   5
ATOM      5  C   UNL     1      44.938   5.518  12.782  0.00  0.00    +0.000 A 
ATOM      6  C   UNL     1      45.702   6.636  12.416  0.00  0.00    +0.000 A 
ATOM      7  C   UNL     1      46.996   6.803  12.907  0.00  0.00    +0.000 A 
ATOM      8  C   UNL     1      47.550   5.859  13.774  0.00  0.00    +0.000 A 
ATOM      9  C   UNL     1      46.807   4.742  14.146  0.00  0.00    +0.000 A 
ATOM     10  C   UNL     1      45.505   4.577  13.657  0.00  0.00    +0.000 A 
BRANCH   9  11
ATOM     11  O   UNL     1      47.231   3.774  15.024  0.00  0.00    +0.000 OA
BRANCH  11  12
ATOM     12  C   UNL     1      47.470   4.118  16.398  0.00  0.00    +0.000 C 
ATOM     13  C   UNL     1      48.757   3.589  17.064  0.00  0.00    +0.000 C 
ATOM     14  C   UNL     1      47.846   3.122  18.205  0.00  0.00    +0.000 C 
ATOM     15  N   UNL     1      46.703   3.219  17.289  0.00  0.00    +0.000 NA
ATOM     16  H   UNL     1      45.863   3.637  17.681  0.00  0.00    +0.000 HD
ENDBRANCH  11  12
ENDBRANCH   9  11
ENDBRANCH   2   5
ENDBRANCH   1   2
BRANCH   1  17
ATOM     17  N   UNL     1      43.748   4.694   9.790  0.00  0.00    +0.000 N 
ATOM     18  H   UNL     1      42.937   5.006   9.258  0.00  0.00    +0.000 HD
BRANCH  17  22
ATOM     19  C   UNL     1      46.684   2.566   7.617  0.00  0.00    +0.000 A 
ATOM     20  C   UNL     1      46.584   3.958   7.533  0.00  0.00    +0.000 A 
ATOM     21  C   UNL     1      45.573   4.632   8.231  0.00  0.00    +0.000 A 
ATOM     22  C   UNL     1      44.640   3.936   9.019  0.00  0.00    +0.000 A 
ATOM     23  C   UNL     1      44.766   2.534   9.071  0.00  0.00    +0.000 A 
ATOM     24  F   UNL     1      43.919   1.794   9.801  0.00  0.00    +0.000 F 
ATOM     25  C   UNL     1      45.756   1.852   8.370  0.00  0.00    +0.000 A 
BRANCH  19  27
ATOM     26  N   UNL     1      48.677   2.542   6.231  0.00  0.00    +0.000 N 
ATOM     27  C   UNL     1      47.764   1.810   6.936  0.00  0.00    +0.000 C 
ATOM     28  O   UNL     1      47.865   0.596   7.044  0.00  0.00    +0.000 OA
ATOM     29  H   UNL     1      49.484   2.032   5.894  0.00  0.00    +0.000 HD
ATOM     30  H   UNL     1      48.777   3.540   6.358  0.00  0.00    +0.000 HD
ENDBRANCH  19  27
ENDBRANCH  17  22
ENDBRANCH   1  17
TORSDOF 7
ENDMDL
MODEL 2
REMARK VINA RESULT:    -9.329      1.231      1.599
REMARK INTER + INTRA:         -13.785
REMARK INTER:                 -12.670
REMARK INTRA:                  -1.115
REMARK UNBOUND:                -0.639
REMARK  Name = 
REMARK  7 active torsions:
REMARK  status: ('A' for Active; 'I' for Inactive)
REMARK    1  A    between atoms: C_2  and  C_4
REMARK    2  A    between atoms: C_7  and  N_8
REMARK    3  A    between atoms: N_8  and  C_9
REMARK    4  A    between atoms: C_9  and  C_10
REMARK    5  A    between atoms: C_10  and  C_13
REMARK    6  A    between atoms: C_17  and  O_18
REMARK    7  A    between atoms: O_18  and  C_19
REMARK                            x       y       z     vdW  Elec       q    Type
REMARK                         _______ _______ _______ _____ _____    ______ ____
ROOT
ATOM      1  C   UNL     1      43.184   3.880  11.468  0.00  0.00    +0.000 C 
ENDROOT
BRANCH   1   2
ATOM      2  C   UNL     1      43.255   4.970  12.570  0.00  0.00    +0.000 C 
ATOM      3  F   UNL     1      42.262   5.879  12.305  0.00  0.00    +0.000 F 
ATOM      4  F   UNL     1      42.880   4.381  13.748  0.00  0.00    +0.000 F 
BRANCH   2   5
ATOM      5  C   UNL     1      44.613   5.629  12.669  0.00  0.00    +0.000 A 
ATOM      6  C   UNL     1      44.869   6.811  11.959  0.00  0.00    +0.000 A 
ATOM      7  C   UNL     1      46.114   7.434  12.042  0.00  0.00    +0.000 A 
ATOM      8  C   UNL     1      47.123   6.890  12.838  0.00  0.00    +0.000 A 
ATOM      9  C   UNL     1      46.887   5.716  13.549  0.00  0.00    +0.000 A 
ATOM     10  C   UNL     1      45.636   5.093  13.469  0.00  0.00    +0.000 A 
BRANCH   9  11
ATOM     11  O   UNL     1      47.788   5.116  14.395  0.00  0.00    +0.000 OA
BRANCH  11  12
ATOM     12  C   UNL     1      47.310   4.285  15.465  0.00  0.00    +0.000 C 
ATOM     13  C   UNL     1      47.992   4.413  16.843  0.00  0.00    +0.000 C 
ATOM     14  C   UNL     1      48.098   2.885  16.814  0.00  0.00    +0.000 C 
ATOM     15  N   UNL     1      47.898   2.931  15.360  0.00  0.00    +0.000 NA
ATOM     16  H   UNL     1      47.266   2.229  14.983  0.00  0.00    +0.000 HD
ENDBRANCH  11  12
ENDBRANCH   9  11
ENDBRANCH   2   5
ENDBRANCH   1   2
BRANCH   1  17
ATOM     17  N   UNL     1      43.513   4.362  10.108  0.00  0.00    +0.000 N 
ATOM     18  H   UNL     1      42.694   4.526   9.525  0.00  0.00    +0.000 HD
BRANCH  17  22
ATOM     19  C   UNL     1      46.461   2.417   7.785  0.00  0.00    +0.000 A 
ATOM     20  C   UNL     1      45.477   1.694   8.463  0.00  0.00    +0.000 A 
ATOM     21  C   UNL     1      44.539   2.363   9.260  0.00  0.00    +0.000 A 
ATOM     22  C   UNL     1      44.566   3.761   9.403  0.00  0.00    +0.000 A 
ATOM     23  C   UNL     1      45.578   4.455   8.713  0.00  0.00    +0.000 A 
ATOM     24  F   UNL     1      45.675   5.791   8.793  0.00  0.00    +0.000 F 
ATOM     25  C   UNL     1      46.525   3.801   7.931  0.00  0.00    +0.000 A 
BRANCH  19  27
ATOM     26  N   UNL     1      48.521   2.513   6.502  0.00  0.00    +0.000 N 
ATOM     27  C   UNL     1      47.448   1.762   6.891  0.00  0.00    +0.000 C 
ATOM     28  O   UNL     1      47.336   0.589   6.561  0.00  0.00    +0.000 OA
ATOM     29  H   UNL     1      49.254   2.014   6.014  0.00  0.00    +0.000 HD
ATOM     30  H   UNL     1      48.776   3.368   6.977  0.00  0.00    +0.000 HD
ENDBRANCH  19  27
ENDBRANCH  17  22
ENDBRANCH   1  17
TORSDOF 7
ENDMDL
MODEL 3
REMARK VINA RESULT:    -9.145      0.988      1.097
REMARK INTER + INTRA:         -13.525
REMARK INTER:                 -12.406
REMARK INTRA:                  -1.120
REMARK UNBOUND:                -0.639
REMARK  Name = 
REMARK  7 active torsions:
REMARK  status: ('A' for Active; 'I' for Inactive)
REMARK    1  A    between atoms: C_2  and  C_4
REMARK    2  A    between atoms: C_7  and  N_8
REMARK    3  A    between atoms: N_8  and  C_9
REMARK    4  A    between atoms: C_9  and  C_10
REMARK    5  A    between atoms: C_10  and  C_13
REMARK    6  A    between atoms: C_17  and  O_18
REMARK    7  A    between atoms: O_18  and  C_19
REMARK                            x       y       z     vdW  Elec       q    Type
REMARK                         _______ _______ _______ _____ _____    ______ ____
ROOT
ATOM      1  C   UNL     1      44.103   5.616  10.817  0.00  0.00    +0.000 C 
ENDROOT
BRANCH   1   2
ATOM      2  C   UNL     1      44.522   5.209  12.254  0.00  0.00    +0.000 C 
ATOM      3  F   UNL     1      43.554   5.676  13.107  0.00  0.00    +0.000 F 
ATOM      4  F   UNL     1      44.425   3.845  12.334  0.00  0.00    +0.000 F 
BRANCH   2   5
ATOM      5  C   UNL     1      45.899   5.706  12.636  0.00  0.00    +0.000 A 
ATOM      6  C   UNL     1      46.572   6.608  11.799  0.00  0.00    +0.000 A 
ATOM      7  C   UNL     1      47.840   7.079  12.138  0.00  0.00    +0.000 A 
ATOM      8  C   UNL     1      48.457   6.661  13.318  0.00  0.00    +0.000 A 
ATOM      9  C   UNL     1      47.805   5.764  14.159  0.00  0.00    +0.000 A 
ATOM     10  C   UNL     1      46.529   5.294  13.822  0.00  0.00    +0.000 A 
BRANCH   9  11
ATOM     11  O   UNL     1      48.294   5.318  15.363  0.00  0.00    +0.000 OA
BRANCH  11  12
ATOM     12  C   UNL     1      47.533   4.373  16.131  0.00  0.00    +0.000 C 
ATOM     13  C   UNL     1      47.578   4.483  17.669  0.00  0.00    +0.000 C 
ATOM     14  C   UNL     1      47.877   2.980  17.662  0.00  0.00    +0.000 C 
ATOM     15  N   UNL     1      48.278   3.099  16.254  0.00  0.00    +0.000 NA
ATOM     16  H   UNL     1      47.944   2.360  15.641  0.00  0.00    +0.000 HD
ENDBRANCH  11  12
ENDBRANCH   9  11
ENDBRANCH   2   5
ENDBRANCH   1   2
BRANCH   1  17
ATOM     17  N   UNL     1      43.629   4.494   9.976  0.00  0.00    +0.000 N 
ATOM     18  H   UNL     1      42.993   3.863  10.461  0.00  0.00    +0.000 HD
BRANCH  17  22
ATOM     19  C   UNL     1      46.629   2.617   7.664  0.00  0.00    +0.000 A 
ATOM     20  C   UNL     1      46.439   4.001   7.622  0.00  0.00    +0.000 A 
ATOM     21  C   UNL     1      45.408   4.590   8.366  0.00  0.00    +0.000 A 
ATOM     22  C   UNL     1      44.545   3.816   9.160  0.00  0.00    +0.000 A 
ATOM     23  C   UNL     1      44.761   2.424   9.169  0.00  0.00    +0.000 A 
ATOM     24  F   UNL     1      43.983   1.612   9.901  0.00  0.00    +0.000 F 
ATOM     25  C   UNL     1      45.770   1.825   8.422  0.00  0.00    +0.000 A 
BRANCH  19  27
ATOM     26  N   UNL     1      48.631   2.762   6.298  0.00  0.00    +0.000 N 
ATOM     27  C   UNL     1      47.734   1.950   6.933  0.00  0.00    +0.000 C 
ATOM     28  O   UNL     1      47.869   0.734   6.942  0.00  0.00    +0.000 OA
ATOM     29  H   UNL     1      49.454   2.304   5.927  0.00  0.00    +0.000 HD
ATOM     30  H   UNL     1      48.702   3.748   6.507  0.00  0.00    +0.000 HD
ENDBRANCH  19  27
ENDBRANCH  17  22
ENDBRANCH   1  17
TORSDOF 7
ENDMDL
MODEL 4
REMARK VINA RESULT:    -8.815      2.727      4.273
REMARK INTER + INTRA:         -13.060
REMARK INTER:                 -12.547
REMARK INTRA:                  -0.513
REMARK UNBOUND:                -0.639
REMARK  Name = 
REMARK  7 active torsions:
REMARK  status: ('A' for Active; 'I' for Inactive)
REMARK    1  A    between atoms: C_2  and  C_4
REMARK    2  A    between atoms: C_7  and  N_8
REMARK    3  A    between atoms: N_8  and  C_9
REMARK    4  A    between atoms: C_9  and  C_10
REMARK    5  A    between atoms: C_10  and  C_13
REMARK    6  A    between atoms: C_17  and  O_18
REMARK    7  A    between atoms: O_18  and  C_19
REMARK                            x       y       z     vdW  Elec       q    Type
REMARK                         _______ _______ _______ _____ _____    ______ ____
ROOT
ATOM      1  C   UNL     1      43.157   4.473  11.169  0.00  0.00    +0.000 C 
ENDROOT
BRANCH   1   2
ATOM      2  C   UNL     1      43.709   4.682  12.604  0.00  0.00    +0.000 C 
ATOM      3  F   UNL     1      42.668   5.124  13.379  0.00  0.00    +0.000 F 
ATOM      4  F   UNL     1      44.012   3.444  13.106  0.00  0.00    +0.000 F 
BRANCH   2   5
ATOM      5  C   UNL     1      44.892   5.623  12.656  0.00  0.00    +0.000 A 
ATOM      6  C   UNL     1      46.191   5.105  12.760  0.00  0.00    +0.000 A 
ATOM      7  C   UNL     1      47.294   5.958  12.805  0.00  0.00    +0.000 A 
ATOM      8  C   UNL     1      47.119   7.341  12.744  0.00  0.00    +0.000 A 
ATOM      9  C   UNL     1      45.837   7.873  12.642  0.00  0.00    +0.000 A 
ATOM     10  C   UNL     1      44.730   7.017  12.593  0.00  0.00    +0.000 A 
BRANCH   9  11
ATOM     11  O   UNL     1      45.548   9.212  12.532  0.00  0.00    +0.000 OA
BRANCH  11  12
ATOM     12  C   UNL     1      44.579   9.650  11.567  0.00  0.00    +0.000 C 
ATOM     13  C   UNL     1      44.897  10.914  10.742  0.00  0.00    +0.000 C 
ATOM     14  C   UNL     1      43.497  11.395  11.136  0.00  0.00    +0.000 C 
ATOM     15  N   UNL     1      43.507  10.422  12.235  0.00  0.00    +0.000 NA
ATOM     16  H   UNL     1      42.642   9.904  12.369  0.00  0.00    +0.000 HD
ENDBRANCH  11  12
ENDBRANCH   9  11
ENDBRANCH   2   5
ENDBRANCH   1   2
BRANCH   1  17
ATOM     17  N   UNL     1      44.026   5.004  10.095  0.00  0.00    +0.000 N 
ATOM     18  H   UNL     1      43.601   5.763   9.566  0.00  0.00    +0.000 HD
BRANCH  17  22
ATOM     19  C   UNL     1      46.437   2.439   7.755  0.00  0.00    +0.000 A 
ATOM     20  C   UNL     1      46.483   3.827   7.593  0.00  0.00    +0.000 A 
ATOM     21  C   UNL     1      45.640   4.649   8.353  0.00  0.00    +0.000 A 
ATOM     22  C   UNL     1      44.734   4.108   9.281  0.00  0.00    +0.000 A 
ATOM     23  C   UNL     1      44.709   2.706   9.409  0.00  0.00    +0.000 A 
ATOM     24  F   UNL     1      43.875   2.108  10.273  0.00  0.00    +0.000 F 
ATOM     25  C   UNL     1      45.529   1.877   8.649  0.00  0.00    +0.000 A 
BRANCH  19  27
ATOM     26  N   UNL     1      48.481   2.077   6.495  0.00  0.00    +0.000 N 
ATOM     27  C   UNL     1      47.341   1.528   7.010  0.00  0.00    +0.000 C 
ATOM     28  O   UNL     1      47.106   0.332   6.907  0.00  0.00    +0.000 OA
ATOM     29  H   UNL     1      49.153   1.421   6.117  0.00  0.00    +0.000 HD
ATOM     30  H   UNL     1      48.829   2.975   6.802  0.00  0.00    +0.000 HD
ENDBRANCH  19  27
ENDBRANCH  17  22
ENDBRANCH   1  17
TORSDOF 7
ENDMDL
MODEL 5
REMARK VINA RESULT:    -8.452      1.658      1.822
REMARK INTER + INTRA:         -12.550
REMARK INTER:                 -11.597
REMARK INTRA:                  -0.953
REMARK UNBOUND:                -0.639
REMARK  Name = 
REMARK  7 active torsions:
REMARK  status: ('A' for Active; 'I' for Inactive)
REMARK    1  A    between atoms: C_2  and  C_4
REMARK    2  A    between atoms: C_7  and  N_8
REMARK    3  A    between atoms: N_8  and  C_9
REMARK    4  A    between atoms: C_9  and  C_10
REMARK    5  A    between atoms: C_10  and  C_13
REMARK    6  A    between atoms: C_17  and  O_18
REMARK    7  A    between atoms: O_18  and  C_19
REMARK                            x       y       z     vdW  Elec       q    Type
REMARK                         _______ _______ _______ _____ _____    ______ ____
ROOT
ATOM      1  C   UNL     1      44.613   5.901  10.927  0.00  0.00    +0.000 C 
ENDROOT
BRANCH   1   2
ATOM      2  C   UNL     1      45.022   5.473  12.361  0.00  0.00    +0.000 C 
ATOM      3  F   UNL     1      44.017   5.870  13.205  0.00  0.00    +0.000 F 
ATOM      4  F   UNL     1      44.988   4.104  12.401  0.00  0.00    +0.000 F 
BRANCH   2   5
ATOM      5  C   UNL     1      46.367   6.022  12.785  0.00  0.00    +0.000 A 
ATOM      6  C   UNL     1      46.988   7.016  12.016  0.00  0.00    +0.000 A 
ATOM      7  C   UNL     1      48.226   7.537  12.394  0.00  0.00    +0.000 A 
ATOM      8  C   UNL     1      48.863   7.076  13.547  0.00  0.00    +0.000 A 
ATOM      9  C   UNL     1      48.261   6.088  14.322  0.00  0.00    +0.000 A 
ATOM     10  C   UNL     1      47.017   5.568  13.944  0.00  0.00    +0.000 A 
BRANCH   9  11
ATOM     11  O   UNL     1      48.773   5.590  15.495  0.00  0.00    +0.000 OA
BRANCH  11  12
ATOM     12  C   UNL     1      49.191   6.497  16.528  0.00  0.00    +0.000 C 
ATOM     13  C   UNL     1      49.933   5.916  17.748  0.00  0.00    +0.000 C 
ATOM     14  C   UNL     1      48.940   6.714  18.599  0.00  0.00    +0.000 C 
ATOM     15  N   UNL     1      48.056   6.799  17.430  0.00  0.00    +0.000 NA
ATOM     16  H   UNL     1      47.627   7.707  17.271  0.00  0.00    +0.000 HD
ENDBRANCH  11  12
ENDBRANCH   9  11
ENDBRANCH   2   5
ENDBRANCH   1   2
BRANCH   1  17
ATOM     17  N   UNL     1      43.938   4.844  10.142  0.00  0.00    +0.000 N 
ATOM     18  H   UNL     1      43.242   4.324  10.674  0.00  0.00    +0.000 HD
BRANCH  17  22
ATOM     19  C   UNL     1      46.507   2.512   7.727  0.00  0.00    +0.000 A 
ATOM     20  C   UNL     1      46.460   3.904   7.605  0.00  0.00    +0.000 A 
ATOM     21  C   UNL     1      45.567   4.646   8.389  0.00  0.00    +0.000 A 
ATOM     22  C   UNL     1      44.701   4.020   9.302  0.00  0.00    +0.000 A 
ATOM     23  C   UNL     1      44.770   2.617   9.390  0.00  0.00    +0.000 A 
ATOM     24  F   UNL     1      43.980   1.940  10.237  0.00  0.00    +0.000 F 
ATOM     25  C   UNL     1      45.641   1.866   8.606  0.00  0.00    +0.000 A 
BRANCH  19  27
ATOM     26  N   UNL     1      48.437   2.351   6.262  0.00  0.00    +0.000 N 
ATOM     27  C   UNL     1      47.467   1.684   6.956  0.00  0.00    +0.000 C 
ATOM     28  O   UNL     1      47.427   0.462   6.981  0.00  0.00    +0.000 OA
ATOM     29  H   UNL     1      49.166   1.776   5.860  0.00  0.00    +0.000 HD
ATOM     30  H   UNL     1      48.658   3.320   6.449  0.00  0.00    +0.000 HD
ENDBRANCH  19  27
ENDBRANCH  17  22
ENDBRANCH   1  17
TORSDOF 7
ENDMDL
MODEL 6
REMARK VINA RESULT:    -8.051      2.446      3.223
REMARK INTER + INTRA:         -11.984
REMARK INTER:                 -11.187
REMARK INTRA:                  -0.797
REMARK UNBOUND:                -0.639
REMARK  Name = 
REMARK  7 active torsions:
REMARK  status: ('A' for Active; 'I' for Inactive)
REMARK    1  A    between atoms: C_2  and  C_4
REMARK    2  A    between atoms: C_7  and  N_8
REMARK    3  A    between atoms: N_8  and  C_9
REMARK    4  A    between atoms: C_9  and  C_10
REMARK    5  A    between atoms: C_10  and  C_13
REMARK    6  A    between atoms: C_17  and  O_18
REMARK    7  A    between atoms: O_18  and  C_19
REMARK                            x       y       z     vdW  Elec       q    Type
REMARK                         _______ _______ _______ _____ _____    ______ ____
ROOT
ATOM      1  C   UNL     1      44.130   5.122  11.301  0.00  0.00    +0.000 C 
ENDROOT
BRANCH   1   2
ATOM      2  C   UNL     1      45.060   6.345  11.522  0.00  0.00    +0.000 C 
ATOM      3  F   UNL     1      45.690   6.597  10.331  0.00  0.00    +0.000 F 
ATOM      4  F   UNL     1      44.255   7.434  11.726  0.00  0.00    +0.000 F 
BRANCH   2   5
ATOM      5  C   UNL     1      46.045   6.146  12.653  0.00  0.00    +0.000 A 
ATOM      6  C   UNL     1      46.049   4.942  13.372  0.00  0.00    +0.000 A 
ATOM      7  C   UNL     1      46.953   4.740  14.414  0.00  0.00    +0.000 A 
ATOM      8  C   UNL     1      47.871   5.735  14.755  0.00  0.00    +0.000 A 
ATOM      9  C   UNL     1      47.881   6.937  14.053  0.00  0.00    +0.000 A 
ATOM     10  C   UNL     1      46.976   7.138  13.004  0.00  0.00    +0.000 A 
BRANCH   9  11
ATOM     11  O   UNL     1      48.764   7.966  14.271  0.00  0.00    +0.000 OA
BRANCH  11  12
ATOM     12  C   UNL     1      50.175   7.728  14.149  0.00  0.00    +0.000 C 
ATOM     13  C   UNL     1      51.134   8.914  14.376  0.00  0.00    +0.000 C 
ATOM     14  C   UNL     1      51.791   8.497  13.056  0.00  0.00    +0.000 C 
ATOM     15  N   UNL     1      50.573   7.747  12.724  0.00  0.00    +0.000 NA
ATOM     16  H   UNL     1      50.724   6.827  12.320  0.00  0.00    +0.000 HD
ENDBRANCH  11  12
ENDBRANCH   9  11
ENDBRANCH   2   5
ENDBRANCH   1   2
BRANCH   1  17
ATOM     17  N   UNL     1      43.794   4.858   9.884  0.00  0.00    +0.000 N 
ATOM     18  H   UNL     1      42.794   4.759   9.715  0.00  0.00    +0.000 HD
BRANCH  17  22
ATOM     19  C   UNL     1      46.366   2.230   7.800  0.00  0.00    +0.000 A 
ATOM     20  C   UNL     1      46.333   3.597   7.509  0.00  0.00    +0.000 A 
ATOM     21  C   UNL     1      45.439   4.436   8.187  0.00  0.00    +0.000 A 
ATOM     22  C   UNL     1      44.558   3.933   9.159  0.00  0.00    +0.000 A 
ATOM     23  C   UNL     1      44.613   2.549   9.417  0.00  0.00    +0.000 A 
ATOM     24  F   UNL     1      43.807   1.987  10.331  0.00  0.00    +0.000 F 
ATOM     25  C   UNL     1      45.484   1.702   8.740  0.00  0.00    +0.000 A 
BRANCH  19  27
ATOM     26  N   UNL     1      48.362   1.879   6.463  0.00  0.00    +0.000 N 
ATOM     27  C   UNL     1      47.326   1.307   7.145  0.00  0.00    +0.000 C 
ATOM     28  O   UNL     1      47.228   0.092   7.256  0.00  0.00    +0.000 OA
ATOM     29  H   UNL     1      49.084   1.244   6.146  0.00  0.00    +0.000 HD
ATOM     30  H   UNL     1      48.619   2.848   6.593  0.00  0.00    +0.000 HD
ENDBRANCH  19  27
ENDBRANCH  17  22
ENDBRANCH   1  17
TORSDOF 7
ENDMDL
MODEL 7
REMARK VINA RESULT:    -7.769      2.895      3.376
REMARK INTER + INTRA:         -11.586
REMARK INTER:                 -10.777
REMARK INTRA:                  -0.810
REMARK UNBOUND:                -0.639
REMARK  Name = 
REMARK  7 active torsions:
REMARK  status: ('A' for Active; 'I' for Inactive)
REMARK    1  A    between atoms: C_2  and  C_4
REMARK    2  A    between atoms: C_7  and  N_8
REMARK    3  A    between atoms: N_8  and  C_9
REMARK    4  A    between atoms: C_9  and  C_10
REMARK    5  A    between atoms: C_10  and  C_13
REMARK    6  A    between atoms: C_17  and  O_18
REMARK    7  A    between atoms: O_18  and  C_19
REMARK                            x       y       z     vdW  Elec       q    Type
REMARK                         _______ _______ _______ _____ _____    ______ ____
ROOT
ATOM      1  C   UNL     1      44.542   4.741  11.390  0.00  0.00    +0.000 C 
ENDROOT
BRANCH   1   2
ATOM      2  C   UNL     1      43.764   5.954  11.966  0.00  0.00    +0.000 C 
ATOM      3  F   UNL     1      42.659   6.140  11.176  0.00  0.00    +0.000 F 
ATOM      4  F   UNL     1      43.261   5.574  13.182  0.00  0.00    +0.000 F 
BRANCH   2   5
ATOM      5  C   UNL     1      44.605   7.208  12.065  0.00  0.00    +0.000 A 
ATOM      6  C   UNL     1      44.172   8.390  11.447  0.00  0.00    +0.000 A 
ATOM      7  C   UNL     1      44.932   9.555  11.531  0.00  0.00    +0.000 A 
ATOM      8  C   UNL     1      46.137   9.563  12.237  0.00  0.00    +0.000 A 
ATOM      9  C   UNL     1      46.584   8.398  12.855  0.00  0.00    +0.000 A 
ATOM     10  C   UNL     1      45.818   7.229  12.774  0.00  0.00    +0.000 A 
BRANCH   9  11
ATOM     11  O   UNL     1      47.727   8.299  13.609  0.00  0.00    +0.000 OA
BRANCH  11  12
ATOM     12  C   UNL     1      49.000   8.583  13.007  0.00  0.00    +0.000 C 
ATOM     13  C   UNL     1      49.143   8.384  11.484  0.00  0.00    +0.000 C 
ATOM     14  C   UNL     1      50.410   7.588  11.814  0.00  0.00    +0.000 C 
ATOM     15  N   UNL     1      49.917   7.435  13.189  0.00  0.00    +0.000 NA
ATOM     16  H   UNL     1      50.612   7.567  13.919  0.00  0.00    +0.000 HD
ENDBRANCH  11  12
ENDBRANCH   9  11
ENDBRANCH   2   5
ENDBRANCH   1   2
BRANCH   1  17
ATOM     17  N   UNL     1      43.939   4.148  10.176  0.00  0.00    +0.000 N 
ATOM     18  H   UNL     1      43.156   3.527  10.372  0.00  0.00    +0.000 HD
BRANCH  17  22
ATOM     19  C   UNL     1      46.718   2.803   7.288  0.00  0.00    +0.000 A 
ATOM     20  C   UNL     1      46.543   4.165   7.550  0.00  0.00    +0.000 A 
ATOM     21  C   UNL     1      45.584   4.583   8.481  0.00  0.00    +0.000 A 
ATOM     22  C   UNL     1      44.777   3.657   9.165  0.00  0.00    +0.000 A 
ATOM     23  C   UNL     1      44.974   2.295   8.868  0.00  0.00    +0.000 A 
ATOM     24  F   UNL     1      44.248   1.345   9.476  0.00  0.00    +0.000 F 
ATOM     25  C   UNL     1      45.912   1.868   7.933  0.00  0.00    +0.000 A 
BRANCH  19  27
ATOM     26  N   UNL     1      47.882   2.979   5.165  0.00  0.00    +0.000 N 
ATOM     27  C   UNL     1      47.752   2.306   6.347  0.00  0.00    +0.000 C 
ATOM     28  O   UNL     1      48.489   1.375   6.636  0.00  0.00    +0.000 OA
ATOM     29  H   UNL     1      48.680   2.722   4.598  0.00  0.00    +0.000 HD
ATOM     30  H   UNL     1      47.490   3.901   5.027  0.00  0.00    +0.000 HD
ENDBRANCH  19  27
ENDBRANCH  17  22
ENDBRANCH   1  17
TORSDOF 7
ENDMDL
MODEL 8
REMARK VINA RESULT:    -7.729      2.328      7.906
REMARK INTER + INTRA:         -11.530
REMARK INTER:                 -10.645
REMARK INTRA:                  -0.885
REMARK UNBOUND:                -0.639
REMARK  Name = 
REMARK  7 active torsions:
REMARK  status: ('A' for Active; 'I' for Inactive)
REMARK    1  A    between atoms: C_2  and  C_4
REMARK    2  A    between atoms: C_7  and  N_8
REMARK    3  A    between atoms: N_8  and  C_9
REMARK    4  A    between atoms: C_9  and  C_10
REMARK    5  A    between atoms: C_10  and  C_13
REMARK    6  A    between atoms: C_17  and  O_18
REMARK    7  A    between atoms: O_18  and  C_19
REMARK                            x       y       z     vdW  Elec       q    Type
REMARK                         _______ _______ _______ _____ _____    ______ ____
ROOT
ATOM      1  C   UNL     1      46.883   6.336  12.383  0.00  0.00    +0.000 C 
ENDROOT
BRANCH   1   2
ATOM      2  C   UNL     1      45.417   6.318  11.875  0.00  0.00    +0.000 C 
ATOM      3  F   UNL     1      44.605   6.267  12.979  0.00  0.00    +0.000 F 
ATOM      4  F   UNL     1      45.165   7.543  11.316  0.00  0.00    +0.000 F 
BRANCH   2   5
ATOM      5  C   UNL     1      45.134   5.185  10.913  0.00  0.00    +0.000 A 
ATOM      6  C   UNL     1      44.334   4.107  11.320  0.00  0.00    +0.000 A 
ATOM      7  C   UNL     1      44.059   3.057  10.446  0.00  0.00    +0.000 A 
ATOM      8  C   UNL     1      44.577   3.063   9.149  0.00  0.00    +0.000 A 
ATOM      9  C   UNL     1      45.375   4.124   8.729  0.00  0.00    +0.000 A 
ATOM     10  C   UNL     1      45.647   5.181   9.605  0.00  0.00    +0.000 A 
BRANCH   9  11
ATOM     11  O   UNL     1      45.902   4.258   7.467  0.00  0.00    +0.000 OA
BRANCH  11  12
ATOM     12  C   UNL     1      46.210   3.084   6.699  0.00  0.00    +0.000 C 
ATOM     13  C   UNL     1      47.354   2.174   7.192  0.00  0.00    +0.000 C 
ATOM     14  C   UNL     1      47.882   2.241   5.755  0.00  0.00    +0.000 C 
ATOM     15  N   UNL     1      47.063   3.441   5.543  0.00  0.00    +0.000 NA
ATOM     16  H   UNL     1      46.569   3.481   4.656  0.00  0.00    +0.000 HD
ENDBRANCH  11  12
ENDBRANCH   9  11
ENDBRANCH   2   5
ENDBRANCH   1   2
BRANCH   1  17
ATOM     17  N   UNL     1      47.044   6.820  13.772  0.00  0.00    +0.000 N 
ATOM     18  H   UNL     1      47.398   7.773  13.832  0.00  0.00    +0.000 HD
BRANCH  17  22
ATOM     19  C   UNL     1      48.680   4.487  16.894  0.00  0.00    +0.000 A 
ATOM     20  C   UNL     1      49.186   5.755  16.593  0.00  0.00    +0.000 A 
ATOM     21  C   UNL     1      48.651   6.486  15.524  0.00  0.00    +0.000 A 
ATOM     22  C   UNL     1      47.611   5.971  14.732  0.00  0.00    +0.000 A 
ATOM     23  C   UNL     1      47.134   4.687  15.060  0.00  0.00    +0.000 A 
ATOM     24  F   UNL     1      46.142   4.121  14.356  0.00  0.00    +0.000 F 
ATOM     25  C   UNL     1      47.667   3.943  16.108  0.00  0.00    +0.000 A 
BRANCH  19  27
ATOM     26  N   UNL     1      48.237   3.187  18.896  0.00  0.00    +0.000 N 
ATOM     27  C   UNL     1      49.178   3.691  18.043  0.00  0.00    +0.000 C 
ATOM     28  O   UNL     1      50.368   3.451  18.191  0.00  0.00    +0.000 OA
ATOM     29  H   UNL     1      48.577   2.531  19.588  0.00  0.00    +0.000 HD
ATOM     30  H   UNL     1      47.260   3.132  18.644  0.00  0.00    +0.000 HD
ENDBRANCH  19  27
ENDBRANCH  17  22
ENDBRANCH   1  17
TORSDOF 7
ENDMDL
MODEL 9
REMARK VINA RESULT:    -7.504      2.590      8.201
REMARK INTER + INTRA:         -11.214
REMARK INTER:                 -10.440
REMARK INTRA:                  -0.773
REMARK UNBOUND:                -0.639
REMARK  Name = 
REMARK  7 active torsions:
REMARK  status: ('A' for Active; 'I' for Inactive)
REMARK    1  A    between atoms: C_2  and  C_4
REMARK    2  A    between atoms: C_7  and  N_8
REMARK    3  A    between atoms: N_8  and  C_9
REMARK    4  A    between atoms: C_9  and  C_10
REMARK    5  A    between atoms: C_10  and  C_13
REMARK    6  A    between atoms: C_17  and  O_18
REMARK    7  A    between atoms: O_18  and  C_19
REMARK                            x       y       z     vdW  Elec       q    Type
REMARK                         _______ _______ _______ _____ _____    ______ ____
ROOT
ATOM      1  C   UNL     1      46.014   6.208  13.039  0.00  0.00    +0.000 C 
ENDROOT
BRANCH   1   2
ATOM      2  C   UNL     1      45.767   6.350  11.514  0.00  0.00    +0.000 C 
ATOM      3  F   UNL     1      44.904   7.401  11.339  0.00  0.00    +0.000 F 
ATOM      4  F   UNL     1      46.942   6.768  10.949  0.00  0.00    +0.000 F 
BRANCH   2   5
ATOM      5  C   UNL     1      45.248   5.081  10.875  0.00  0.00    +0.000 A 
ATOM      6  C   UNL     1      44.528   4.156  11.645  0.00  0.00    +0.000 A 
ATOM      7  C   UNL     1      44.039   2.983  11.071  0.00  0.00    +0.000 A 
ATOM      8  C   UNL     1      44.258   2.713   9.719  0.00  0.00    +0.000 A 
ATOM      9  C   UNL     1      44.973   3.619   8.940  0.00  0.00    +0.000 A 
ATOM     10  C   UNL     1      45.460   4.799   9.515  0.00  0.00    +0.000 A 
BRANCH   9  11
ATOM     11  O   UNL     1      45.213   3.480   7.595  0.00  0.00    +0.000 OA
BRANCH  11  12
ATOM     12  C   UNL     1      46.567   3.415   7.119  0.00  0.00    +0.000 C 
ATOM     13  C   UNL     1      46.798   3.063   5.635  0.00  0.00    +0.000 C 
ATOM     14  C   UNL     1      47.806   2.029   6.148  0.00  0.00    +0.000 C 
ATOM     15  N   UNL     1      47.166   2.107   7.467  0.00  0.00    +0.000 NA
ATOM     16  H   UNL     1      47.802   2.137   8.260  0.00  0.00    +0.000 HD
ENDBRANCH  11  12
ENDBRANCH   9  11
ENDBRANCH   2   5
ENDBRANCH   1   2
BRANCH   1  17
ATOM     17  N   UNL     1      47.378   5.759  13.399  0.00  0.00    +0.000 N 
ATOM     18  H   UNL     1      47.760   5.065  12.759  0.00  0.00    +0.000 HD
BRANCH  17  22
ATOM     19  C   UNL     1      48.400   4.624  17.341  0.00  0.00    +0.000 A 
ATOM     20  C   UNL     1      47.503   3.872  16.577  0.00  0.00    +0.000 A 
ATOM     21  C   UNL     1      47.150   4.297  15.290  0.00  0.00    +0.000 A 
ATOM     22  C   UNL     1      47.676   5.478  14.740  0.00  0.00    +0.000 A 
ATOM     23  C   UNL     1      48.568   6.215  15.542  0.00  0.00    +0.000 A 
ATOM     24  F   UNL     1      49.117   7.354  15.094  0.00  0.00    +0.000 F 
ATOM     25  C   UNL     1      48.914   5.813  16.829  0.00  0.00    +0.000 A 
BRANCH  19  27
ATOM     26  N   UNL     1      48.197   3.120  19.236  0.00  0.00    +0.000 N 
ATOM     27  C   UNL     1      48.842   4.194  18.690  0.00  0.00    +0.000 C 
ATOM     28  O   UNL     1      49.775   4.738  19.264  0.00  0.00    +0.000 OA
ATOM     29  H   UNL     1      48.602   2.750  20.087  0.00  0.00    +0.000 HD
ATOM     30  H   UNL     1      47.633   2.494  18.678  0.00  0.00    +0.000 HD
ENDBRANCH  19  27
ENDBRANCH  17  22
ENDBRANCH   1  17
TORSDOF 7
ENDMDL
