MODEL 1
REMARK VINA RESULT:    -9.232      0.000      0.000
REMARK INTER + INTRA:         -12.302
REMARK INTER:                 -11.391
REMARK INTRA:                  -0.911
REMARK UNBOUND:                -0.911
REMARK  Name = 
REMARK  4 active torsions:
REMARK  status: ('A' for Active; 'I' for Inactive)
REMARK    1  A    between atoms: C_2  and  C_4
REMARK    2  A    between atoms: N_8  and  C_9
REMARK    3  A    between atoms: C_9  and  C_10
REMARK    4  A    between atoms: C_14  and  C_15
REMARK                            x       y       z     vdW  Elec       q    Type
REMARK                         _______ _______ _______ _____ _____    ______ ____
ROOT
ATOM      1  C   UNL     1      43.496   4.859  11.070  0.00  0.00    +0.000 C 
ENDROOT
BRANCH   1   6
ATOM      2  C   UNL     1      46.397   2.330   7.682  0.00  0.00    +0.000 A 
ATOM      3  C   UNL     1      45.670   1.827   8.755  0.00  0.00    +0.000 A 
ATOM      4  C   UNL     1      44.812   2.680   9.452  0.00  0.00    +0.000 A 
ATOM      5  C   UNL     1      44.709   4.015   9.077  0.00  0.00    +0.000 A 
ATOM      6  N   UNL     1      43.844   4.907   9.666  0.00  0.00    +0.000 N 
ATOM      7  N   UNL     1      45.417   4.513   8.045  0.00  0.00    +0.000 NA
ATOM      8  C   UNL     1      46.251   3.673   7.378  0.00  0.00    +0.000 A 
ATOM      9  H   UNL     1      43.999   5.834   9.282  0.00  0.00    +0.000 HD
BRANCH   2  11
ATOM     10  N   UNL     1      48.467   2.082   6.432  0.00  0.00    +0.000 N 
ATOM     11  C   UNL     1      47.319   1.501   6.882  0.00  0.00    +0.000 C 
ATOM     12  O   UNL     1      47.071   0.321   6.653  0.00  0.00    +0.000 OA
ATOM     13  H   UNL     1      49.128   1.468   5.977  0.00  0.00    +0.000 HD
ATOM     14  H   UNL     1      48.817   2.950   6.810  0.00  0.00    +0.000 HD
ENDBRANCH   2  11
ENDBRANCH   1   6
BRANCH   1  15
ATOM     15  C   UNL     1      44.637   5.117  12.027  0.00  0.00    +0.000 A 
ATOM     16  C   UNL     1      45.125   4.195  12.957  0.00  0.00    +0.000 A 
ATOM     17  C   UNL     1      46.214   4.520  13.766  0.00  0.00    +0.000 A 
ATOM     18  C   UNL     1      46.855   5.752  13.628  0.00  0.00    +0.000 A 
ATOM     19  C   UNL     1      46.432   6.690  12.672  0.00  0.00    +0.000 A 
ATOM     20  C   UNL     1      45.290   6.361  11.917  0.00  0.00    +0.000 A 
BRANCH  19  21
ATOM     21  C   UNL     1      47.214   7.912  12.376  0.00  0.00    +0.000 A 
ATOM     22  C   UNL     1      48.584   7.812  12.026  0.00  0.00    +0.000 A 
ATOM     23  C   UNL     1      49.315   8.925  11.611  0.00  0.00    +0.000 A 
ATOM     24  C   UNL     1      48.699  10.169  11.530  0.00  0.00    +0.000 A 
ATOM     25  C   UNL     1      47.361  10.286  11.878  0.00  0.00    +0.000 A 
ATOM     26  F   UNL     1      46.764  11.480  11.784  0.00  0.00    +0.000 F 
ATOM     27  C   UNL     1      46.626   9.187  12.313  0.00  0.00    +0.000 A 
ENDBRANCH  19  21
ENDBRANCH   1  15
TORSDOF 4
ENDMDL
MODEL 2
REMARK VINA RESULT:    -8.311      2.610      3.861
REMARK INTER + INTRA:         -11.166
REMARK INTER:                 -10.364
REMARK INTRA:                  -0.802
REMARK UNBOUND:                -0.911
REMARK  Name = 
REMARK  4 active torsions:
REMARK  status: ('A' for Active; 'I' for Inactive)
REMARK    1  A    between atoms: C_2  and  C_4
REMARK    2  A    between atoms: N_8  and  C_9
REMARK    3  A    between atoms: C_9  and  C_10
REMARK    4  A    between atoms: C_14  and  C_15
REMARK                            x       y       z     vdW  Elec       q    Type
REMARK                         _______ _______ _______ _____ _____    ______ ____
ROOT
ATOM      1  C   UNL     1      43.957   4.875  11.222  0.00  0.00    +0.000 C 
ENDROOT
BRANCH   1   6
ATOM      2  C   UNL     1      46.390   2.235   7.562  0.00  0.00    +0.000 A 
ATOM      3  C   UNL     1      45.938   1.795   8.800  0.00  0.00    +0.000 A 
ATOM      4  C   UNL     1      45.149   2.646   9.576  0.00  0.00    +0.000 A 
ATOM      5  C   UNL     1      44.841   3.920   9.110  0.00  0.00    +0.000 A 
ATOM      6  N   UNL     1      44.021   4.797   9.778  0.00  0.00    +0.000 N 
ATOM      7  N   UNL     1      45.284   4.358   7.916  0.00  0.00    +0.000 NA
ATOM      8  C   UNL     1      46.053   3.521   7.173  0.00  0.00    +0.000 A 
ATOM      9  H   UNL     1      44.005   5.688   9.288  0.00  0.00    +0.000 HD
BRANCH   2  11
ATOM     10  N   UNL     1      48.223   2.013   5.981  0.00  0.00    +0.000 N 
ATOM     11  C   UNL     1      47.219   1.401   6.670  0.00  0.00    +0.000 C 
ATOM     12  O   UNL     1      47.026   0.192   6.575  0.00  0.00    +0.000 OA
ATOM     13  H   UNL     1      48.839   1.405   5.459  0.00  0.00    +0.000 HD
ATOM     14  H   UNL     1      48.566   2.929   6.226  0.00  0.00    +0.000 HD
ENDBRANCH   2  11
ENDBRANCH   1   6
BRANCH   1  15
ATOM     15  C   UNL     1      44.948   5.819  11.862  0.00  0.00    +0.000 A 
ATOM     16  C   UNL     1      45.027   7.191  11.606  0.00  0.00    +0.000 A 
ATOM     17  C   UNL     1      45.953   7.983  12.284  0.00  0.00    +0.000 A 
ATOM     18  C   UNL     1      46.782   7.423  13.258  0.00  0.00    +0.000 A 
ATOM     19  C   UNL     1      46.703   6.060  13.587  0.00  0.00    +0.000 A 
ATOM     20  C   UNL     1      45.806   5.274  12.837  0.00  0.00    +0.000 A 
BRANCH  19  21
ATOM     21  C   UNL     1      47.429   5.492  14.746  0.00  0.00    +0.000 A 
ATOM     22  C   UNL     1      48.434   6.249  15.396  0.00  0.00    +0.000 A 
ATOM     23  C   UNL     1      49.043   5.803  16.568  0.00  0.00    +0.000 A 
ATOM     24  C   UNL     1      48.662   4.589  17.128  0.00  0.00    +0.000 A 
ATOM     25  C   UNL     1      47.686   3.830  16.500  0.00  0.00    +0.000 A 
ATOM     26  F   UNL     1      47.307   2.669  17.048  0.00  0.00    +0.000 F 
ATOM     27  C   UNL     1      47.085   4.255  15.319  0.00  0.00    +0.000 A 
ENDBRANCH  19  21
ENDBRANCH   1  15
TORSDOF 4
ENDMDL
MODEL 3
REMARK VINA RESULT:    -8.022      4.419      7.385
REMARK INTER + INTRA:         -10.809
REMARK INTER:                 -10.552
REMARK INTRA:                  -0.257
REMARK UNBOUND:                -0.911
REMARK  Name = 
REMARK  4 active torsions:
REMARK  status: ('A' for Active; 'I' for Inactive)
REMARK    1  A    between atoms: C_2  and  C_4
REMARK    2  A    between atoms: N_8  and  C_9
REMARK    3  A    between atoms: C_9  and  C_10
REMARK    4  A    between atoms: C_14  and  C_15
REMARK                            x       y       z     vdW  Elec       q    Type
REMARK                         _______ _______ _______ _____ _____    ______ ____
ROOT
ATOM      1  C   UNL     1      46.078   7.323  11.756  0.00  0.00    +0.000 C 
ENDROOT
BRANCH   1   6
ATOM      2  C   UNL     1      47.445   4.455  15.780  0.00  0.00    +0.000 A 
ATOM      3  C   UNL     1      46.400   4.259  14.884  0.00  0.00    +0.000 A 
ATOM      4  C   UNL     1      46.311   5.078  13.757  0.00  0.00    +0.000 A 
ATOM      5  C   UNL     1      47.252   6.082  13.555  0.00  0.00    +0.000 A 
ATOM      6  N   UNL     1      47.276   6.890  12.444  0.00  0.00    +0.000 N 
ATOM      7  N   UNL     1      48.261   6.284  14.424  0.00  0.00    +0.000 NA
ATOM      8  C   UNL     1      48.335   5.483  15.517  0.00  0.00    +0.000 A 
ATOM      9  H   UNL     1      48.000   7.595  12.552  0.00  0.00    +0.000 HD
BRANCH   2  11
ATOM     10  N   UNL     1      48.817   3.719  17.647  0.00  0.00    +0.000 N 
ATOM     11  C   UNL     1      47.626   3.631  16.991  0.00  0.00    +0.000 C 
ATOM     12  O   UNL     1      46.721   2.913  17.408  0.00  0.00    +0.000 OA
ATOM     13  H   UNL     1      48.878   3.226  18.527  0.00  0.00    +0.000 HD
ATOM     14  H   UNL     1      49.468   4.472  17.485  0.00  0.00    +0.000 HD
ENDBRANCH   2  11
ENDBRANCH   1   6
BRANCH   1  15
ATOM     15  C   UNL     1      45.182   6.213  11.259  0.00  0.00    +0.000 A 
ATOM     16  C   UNL     1      43.819   6.095  11.545  0.00  0.00    +0.000 A 
ATOM     17  C   UNL     1      43.071   5.053  10.999  0.00  0.00    +0.000 A 
ATOM     18  C   UNL     1      43.665   4.139  10.127  0.00  0.00    +0.000 A 
ATOM     19  C   UNL     1      45.019   4.246   9.769  0.00  0.00    +0.000 A 
ATOM     20  C   UNL     1      45.763   5.269  10.389  0.00  0.00    +0.000 A 
BRANCH  19  21
ATOM     21  C   UNL     1      45.614   3.411   8.701  0.00  0.00    +0.000 A 
ATOM     22  C   UNL     1      46.302   4.020   7.623  0.00  0.00    +0.000 A 
ATOM     23  C   UNL     1      46.989   3.264   6.674  0.00  0.00    +0.000 A 
ATOM     24  C   UNL     1      47.013   1.877   6.777  0.00  0.00    +0.000 A 
ATOM     25  C   UNL     1      46.337   1.264   7.821  0.00  0.00    +0.000 A 
ATOM     26  F   UNL     1      46.374  -0.069   7.930  0.00  0.00    +0.000 F 
ATOM     27  C   UNL     1      45.630   2.007   8.763  0.00  0.00    +0.000 A 
ENDBRANCH  19  21
ENDBRANCH   1  15
TORSDOF 4
ENDMDL
MODEL 4
REMARK VINA RESULT:    -8.014      5.347      8.097
REMARK INTER + INTRA:         -10.799
REMARK INTER:                 -10.240
REMARK INTRA:                  -0.560
REMARK UNBOUND:                -0.911
REMARK  Name = 
REMARK  4 active torsions:
REMARK  status: ('A' for Active; 'I' for Inactive)
REMARK    1  A    between atoms: C_2  and  C_4
REMARK    2  A    between atoms: N_8  and  C_9
REMARK    3  A    between atoms: C_9  and  C_10
REMARK    4  A    between atoms: C_14  and  C_15
REMARK                            x       y       z     vdW  Elec       q    Type
REMARK                         _______ _______ _______ _____ _____    ______ ____
ROOT
ATOM      1  C   UNL     1      46.090   5.240  13.881  0.00  0.00    +0.000 C 
ENDROOT
BRANCH   1   6
ATOM      2  C   UNL     1      49.566   3.826  17.374  0.00  0.00    +0.000 A 
ATOM      3  C   UNL     1      49.079   5.098  17.093  0.00  0.00    +0.000 A 
ATOM      4  C   UNL     1      48.007   5.233  16.210  0.00  0.00    +0.000 A 
ATOM      5  C   UNL     1      47.456   4.104  15.613  0.00  0.00    +0.000 A 
ATOM      6  N   UNL     1      46.361   4.141  14.782  0.00  0.00    +0.000 N 
ATOM      7  N   UNL     1      47.929   2.870  15.871  0.00  0.00    +0.000 NA
ATOM      8  C   UNL     1      48.974   2.753  16.730  0.00  0.00    +0.000 A 
ATOM      9  H   UNL     1      46.188   3.212  14.407  0.00  0.00    +0.000 HD
BRANCH   2  11
ATOM     10  N   UNL     1      51.426   2.454  18.128  0.00  0.00    +0.000 N 
ATOM     11  C   UNL     1      50.688   3.586  18.303  0.00  0.00    +0.000 C 
ATOM     12  O   UNL     1      50.962   4.395  19.185  0.00  0.00    +0.000 OA
ATOM     13  H   UNL     1      52.248   2.364  18.709  0.00  0.00    +0.000 HD
ATOM     14  H   UNL     1      51.392   1.913  17.277  0.00  0.00    +0.000 HD
ENDBRANCH   2  11
ENDBRANCH   1   6
BRANCH   1  15
ATOM     15  C   UNL     1      45.064   4.958  12.808  0.00  0.00    +0.000 A 
ATOM     16  C   UNL     1      43.746   5.421  12.820  0.00  0.00    +0.000 A 
ATOM     17  C   UNL     1      42.889   5.139  11.756  0.00  0.00    +0.000 A 
ATOM     18  C   UNL     1      43.351   4.428  10.647  0.00  0.00    +0.000 A 
ATOM     19  C   UNL     1      44.683   3.987  10.567  0.00  0.00    +0.000 A 
ATOM     20  C   UNL     1      45.503   4.228  11.686  0.00  0.00    +0.000 A 
BRANCH  19  21
ATOM     21  C   UNL     1      45.240   3.408   9.324  0.00  0.00    +0.000 A 
ATOM     22  C   UNL     1      45.721   4.257   8.296  0.00  0.00    +0.000 A 
ATOM     23  C   UNL     1      46.375   3.749   7.174  0.00  0.00    +0.000 A 
ATOM     24  C   UNL     1      46.571   2.379   7.046  0.00  0.00    +0.000 A 
ATOM     25  C   UNL     1      46.099   1.532   8.038  0.00  0.00    +0.000 A 
ATOM     26  F   UNL     1      46.303   0.214   7.924  0.00  0.00    +0.000 F 
ATOM     27  C   UNL     1      45.427   2.024   9.154  0.00  0.00    +0.000 A 
ENDBRANCH  19  21
ENDBRANCH   1  15
TORSDOF 4
ENDMDL
MODEL 5
REMARK VINA RESULT:    -7.952      4.316      7.236
REMARK INTER + INTRA:         -10.723
REMARK INTER:                  -9.931
REMARK INTRA:                  -0.792
REMARK UNBOUND:                -0.911
REMARK  Name = 
REMARK  4 active torsions:
REMARK  status: ('A' for Active; 'I' for Inactive)
REMARK    1  A    between atoms: C_2  and  C_4
REMARK    2  A    between atoms: N_8  and  C_9
REMARK    3  A    between atoms: C_9  and  C_10
REMARK    4  A    between atoms: C_14  and  C_15
REMARK                            x       y       z     vdW  Elec       q    Type
REMARK                         _______ _______ _______ _____ _____    ______ ____
ROOT
ATOM      1  C   UNL     1      44.579   6.629  11.929  0.00  0.00    +0.000 C 
ENDROOT
BRANCH   1   6
ATOM      2  C   UNL     1      49.492   7.838  12.760  0.00  0.00    +0.000 A 
ATOM      3  C   UNL     1      48.645   8.277  11.748  0.00  0.00    +0.000 A 
ATOM      4  C   UNL     1      47.290   7.948  11.809  0.00  0.00    +0.000 A 
ATOM      5  C   UNL     1      46.811   7.177  12.863  0.00  0.00    +0.000 A 
ATOM      6  N   UNL     1      45.484   6.861  13.034  0.00  0.00    +0.000 N 
ATOM      7  N   UNL     1      47.627   6.739  13.841  0.00  0.00    +0.000 NA
ATOM      8  C   UNL     1      48.944   7.064  13.769  0.00  0.00    +0.000 A 
ATOM      9  H   UNL     1      45.385   6.230  13.824  0.00  0.00    +0.000 HD
BRANCH   2  11
ATOM     10  N   UNL     1      51.680   7.785  11.703  0.00  0.00    +0.000 N 
ATOM     11  C   UNL     1      50.935   8.147  12.785  0.00  0.00    +0.000 C 
ATOM     12  O   UNL     1      51.440   8.734  13.738  0.00  0.00    +0.000 OA
ATOM     13  H   UNL     1      52.641   8.098  11.699  0.00  0.00    +0.000 HD
ATOM     14  H   UNL     1      51.264   7.541  10.817  0.00  0.00    +0.000 HD
ENDBRANCH   2  11
ENDBRANCH   1   6
BRANCH   1  15
ATOM     15  C   UNL     1      44.347   5.179  11.576  0.00  0.00    +0.000 A 
ATOM     16  C   UNL     1      43.404   4.348  12.186  0.00  0.00    +0.000 A 
ATOM     17  C   UNL     1      43.240   3.031  11.756  0.00  0.00    +0.000 A 
ATOM     18  C   UNL     1      43.987   2.541  10.684  0.00  0.00    +0.000 A 
ATOM     19  C   UNL     1      44.910   3.354  10.006  0.00  0.00    +0.000 A 
ATOM     20  C   UNL     1      45.102   4.656  10.507  0.00  0.00    +0.000 A 
BRANCH  19  21
ATOM     21  C   UNL     1      45.564   2.917   8.752  0.00  0.00    +0.000 A 
ATOM     22  C   UNL     1      45.976   3.875   7.793  0.00  0.00    +0.000 A 
ATOM     23  C   UNL     1      46.713   3.512   6.666  0.00  0.00    +0.000 A 
ATOM     24  C   UNL     1      47.066   2.182   6.467  0.00  0.00    +0.000 A 
ATOM     25  C   UNL     1      46.663   1.229   7.391  0.00  0.00    +0.000 A 
ATOM     26  F   UNL     1      47.017  -0.049   7.209  0.00  0.00    +0.000 F 
ATOM     27  C   UNL     1      45.909   1.575   8.509  0.00  0.00    +0.000 A 
ENDBRANCH  19  21
ENDBRANCH   1  15
TORSDOF 4
ENDMDL
MODEL 6
REMARK VINA RESULT:    -7.897      4.331      7.312
REMARK INTER + INTRA:         -10.654
REMARK INTER:                 -10.046
REMARK INTRA:                  -0.608
REMARK UNBOUND:                -0.911
REMARK  Name = 
REMARK  4 active torsions:
REMARK  status: ('A' for Active; 'I' for Inactive)
REMARK    1  A    between atoms: C_2  and  C_4
REMARK    2  A    between atoms: N_8  and  C_9
REMARK    3  A    between atoms: C_9  and  C_10
REMARK    4  A    between atoms: C_14  and  C_15
REMARK                            x       y       z     vdW  Elec       q    Type
REMARK                         _______ _______ _______ _____ _____    ______ ____
ROOT
ATOM      1  C   UNL     1      44.039   6.655  11.419  0.00  0.00    +0.000 C 
ENDROOT
BRANCH   1   6
ATOM      2  C   UNL     1      48.320   7.017  14.217  0.00  0.00    +0.000 A 
ATOM      3  C   UNL     1      47.461   5.933  14.074  0.00  0.00    +0.000 A 
ATOM      4  C   UNL     1      46.439   6.000  13.125  0.00  0.00    +0.000 A 
ATOM      5  C   UNL     1      46.284   7.147  12.354  0.00  0.00    +0.000 A 
ATOM      6  N   UNL     1      45.347   7.272  11.356  0.00  0.00    +0.000 N 
ATOM      7  N   UNL     1      47.106   8.205  12.494  0.00  0.00    +0.000 NA
ATOM      8  C   UNL     1      48.094   8.128  13.423  0.00  0.00    +0.000 A 
ATOM      9  H   UNL     1      45.370   8.218  10.986  0.00  0.00    +0.000 HD
BRANCH   2  11
ATOM     10  N   UNL     1      50.674   7.356  14.721  0.00  0.00    +0.000 N 
ATOM     11  C   UNL     1      49.434   7.032  15.185  0.00  0.00    +0.000 C 
ATOM     12  O   UNL     1      49.243   6.787  16.373  0.00  0.00    +0.000 OA
ATOM     13  H   UNL     1      51.398   7.460  15.419  0.00  0.00    +0.000 HD
ATOM     14  H   UNL     1      50.816   7.803  13.828  0.00  0.00    +0.000 HD
ENDBRANCH   2  11
ENDBRANCH   1   6
BRANCH   1  15
ATOM     15  C   UNL     1      44.022   5.157  11.227  0.00  0.00    +0.000 A 
ATOM     16  C   UNL     1      43.218   4.267  11.945  0.00  0.00    +0.000 A 
ATOM     17  C   UNL     1      43.247   2.902  11.660  0.00  0.00    +0.000 A 
ATOM     18  C   UNL     1      44.048   2.414  10.626  0.00  0.00    +0.000 A 
ATOM     19  C   UNL     1      44.834   3.276   9.844  0.00  0.00    +0.000 A 
ATOM     20  C   UNL     1      44.835   4.638  10.200  0.00  0.00    +0.000 A 
BRANCH  19  21
ATOM     21  C   UNL     1      45.534   2.806   8.626  0.00  0.00    +0.000 A 
ATOM     22  C   UNL     1      45.964   3.738   7.649  0.00  0.00    +0.000 A 
ATOM     23  C   UNL     1      46.742   3.349   6.560  0.00  0.00    +0.000 A 
ATOM     24  C   UNL     1      47.117   2.017   6.416  0.00  0.00    +0.000 A 
ATOM     25  C   UNL     1      46.698   1.090   7.358  0.00  0.00    +0.000 A 
ATOM     26  F   UNL     1      47.073  -0.188   7.230  0.00  0.00    +0.000 F 
ATOM     27  C   UNL     1      45.904   1.463   8.439  0.00  0.00    +0.000 A 
ENDBRANCH  19  21
ENDBRANCH   1  15
TORSDOF 4
ENDMDL
MODEL 7
REMARK VINA RESULT:    -7.669      4.166      7.146
REMARK INTER + INTRA:         -10.374
REMARK INTER:                  -9.538
REMARK INTRA:                  -0.836
REMARK UNBOUND:                -0.911
REMARK  Name = 
REMARK  4 active torsions:
REMARK  status: ('A' for Active; 'I' for Inactive)
REMARK    1  A    between atoms: C_2  and  C_4
REMARK    2  A    between atoms: N_8  and  C_9
REMARK    3  A    between atoms: C_9  and  C_10
REMARK    4  A    between atoms: C_14  and  C_15
REMARK                            x       y       z     vdW  Elec       q    Type
REMARK                         _______ _______ _______ _____ _____    ______ ____
ROOT
ATOM      1  C   UNL     1      45.819   4.775  13.913  0.00  0.00    +0.000 C 
ENDROOT
BRANCH   1   6
ATOM      2  C   UNL     1      48.210   8.891  12.007  0.00  0.00    +0.000 A 
ATOM      3  C   UNL     1      47.020   8.827  12.724  0.00  0.00    +0.000 A 
ATOM      4  C   UNL     1      46.636   7.612  13.293  0.00  0.00    +0.000 A 
ATOM      5  C   UNL     1      47.434   6.485  13.123  0.00  0.00    +0.000 A 
ATOM      6  N   UNL     1      47.163   5.267  13.700  0.00  0.00    +0.000 N 
ATOM      7  N   UNL     1      48.582   6.536  12.421  0.00  0.00    +0.000 NA
ATOM      8  C   UNL     1      48.943   7.724  11.870  0.00  0.00    +0.000 A 
ATOM      9  H   UNL     1      47.837   4.580  13.374  0.00  0.00    +0.000 HD
BRANCH   2  11
ATOM     10  N   UNL     1      50.042  10.251  11.168  0.00  0.00    +0.000 N 
ATOM     11  C   UNL     1      48.701  10.133  11.380  0.00  0.00    +0.000 C 
ATOM     12  O   UNL     1      47.922  11.019  11.037  0.00  0.00    +0.000 OA
ATOM     13  H   UNL     1      50.341  11.063  10.646  0.00  0.00    +0.000 HD
ATOM     14  H   UNL     1      50.665   9.457  11.199  0.00  0.00    +0.000 HD
ENDBRANCH   2  11
ENDBRANCH   1   6
BRANCH   1  15
ATOM     15  C   UNL     1      44.929   4.778  12.692  0.00  0.00    +0.000 A 
ATOM     16  C   UNL     1      43.750   5.516  12.563  0.00  0.00    +0.000 A 
ATOM     17  C   UNL     1      43.022   5.481  11.374  0.00  0.00    +0.000 A 
ATOM     18  C   UNL     1      43.485   4.741  10.285  0.00  0.00    +0.000 A 
ATOM     19  C   UNL     1      44.691   4.025  10.350  0.00  0.00    +0.000 A 
ATOM     20  C   UNL     1      45.367   4.025  11.585  0.00  0.00    +0.000 A 
BRANCH  19  21
ATOM     21  C   UNL     1      45.295   3.399   9.151  0.00  0.00    +0.000 A 
ATOM     22  C   UNL     1      45.809   4.209   8.109  0.00  0.00    +0.000 A 
ATOM     23  C   UNL     1      46.503   3.661   7.031  0.00  0.00    +0.000 A 
ATOM     24  C   UNL     1      46.708   2.287   6.965  0.00  0.00    +0.000 A 
ATOM     25  C   UNL     1      46.204   1.478   7.973  0.00  0.00    +0.000 A 
ATOM     26  F   UNL     1      46.416   0.158   7.918  0.00  0.00    +0.000 F 
ATOM     27  C   UNL     1      45.492   2.011   9.043  0.00  0.00    +0.000 A 
ENDBRANCH  19  21
ENDBRANCH   1  15
TORSDOF 4
ENDMDL
MODEL 8
REMARK VINA RESULT:    -7.418      2.328      2.866
REMARK INTER + INTRA:         -10.064
REMARK INTER:                  -9.305
REMARK INTRA:                  -0.759
REMARK UNBOUND:                -0.911
REMARK  Name = 
REMARK  4 active torsions:
REMARK  status: ('A' for Active; 'I' for Inactive)
REMARK    1  A    between atoms: C_2  and  C_4
REMARK    2  A    between atoms: N_8  and  C_9
REMARK    3  A    between atoms: C_9  and  C_10
REMARK    4  A    between atoms: C_14  and  C_15
REMARK                            x       y       z     vdW  Elec       q    Type
REMARK                         _______ _______ _______ _____ _____    ______ ____
ROOT
ATOM      1  C   UNL     1      43.674   4.089  11.142  0.00  0.00    +0.000 C 
ENDROOT
BRANCH   1   6
ATOM      2  C   UNL     1      46.600   2.809   7.132  0.00  0.00    +0.000 A 
ATOM      3  C   UNL     1      46.414   4.058   7.712  0.00  0.00    +0.000 A 
ATOM      4  C   UNL     1      45.698   4.151   8.906  0.00  0.00    +0.000 A 
ATOM      5  C   UNL     1      45.170   3.003   9.488  0.00  0.00    +0.000 A 
ATOM      6  N   UNL     1      44.508   2.995  10.692  0.00  0.00    +0.000 N 
ATOM      7  N   UNL     1      45.337   1.790   8.926  0.00  0.00    +0.000 NA
ATOM      8  C   UNL     1      46.033   1.715   7.762  0.00  0.00    +0.000 A 
ATOM      9  H   UNL     1      44.148   2.063  10.876  0.00  0.00    +0.000 HD
BRANCH   2  11
ATOM     10  N   UNL     1      48.640   2.177   5.969  0.00  0.00    +0.000 N 
ATOM     11  C   UNL     1      47.352   2.613   5.877  0.00  0.00    +0.000 C 
ATOM     12  O   UNL     1      46.824   2.812   4.786  0.00  0.00    +0.000 OA
ATOM     13  H   UNL     1      49.098   1.953   5.097  0.00  0.00    +0.000 HD
ATOM     14  H   UNL     1      49.012   1.766   6.812  0.00  0.00    +0.000 HD
ENDBRANCH   2  11
ENDBRANCH   1   6
BRANCH   1  15
ATOM     15  C   UNL     1      44.404   5.220  11.826  0.00  0.00    +0.000 A 
ATOM     16  C   UNL     1      45.461   5.061  12.727  0.00  0.00    +0.000 A 
ATOM     17  C   UNL     1      46.097   6.177  13.271  0.00  0.00    +0.000 A 
ATOM     18  C   UNL     1      45.714   7.464  12.891  0.00  0.00    +0.000 A 
ATOM     19  C   UNL     1      44.692   7.672  11.951  0.00  0.00    +0.000 A 
ATOM     20  C   UNL     1      44.024   6.529  11.471  0.00  0.00    +0.000 A 
BRANCH  19  21
ATOM     21  C   UNL     1      44.406   9.013  11.391  0.00  0.00    +0.000 A 
ATOM     22  C   UNL     1      45.345  10.063  11.544  0.00  0.00    +0.000 A 
ATOM     23  C   UNL     1      45.172  11.296  10.917  0.00  0.00    +0.000 A 
ATOM     24  C   UNL     1      44.057  11.516  10.115  0.00  0.00    +0.000 A 
ATOM     25  C   UNL     1      43.123  10.502   9.961  0.00  0.00    +0.000 A 
ATOM     26  F   UNL     1      42.059  10.708   9.176  0.00  0.00    +0.000 F 
ATOM     27  C   UNL     1      43.274   9.274  10.599  0.00  0.00    +0.000 A 
ENDBRANCH  19  21
ENDBRANCH   1  15
TORSDOF 4
ENDMDL
MODEL 9
REMARK VINA RESULT:    -6.902      5.685      8.060
REMARK INTER + INTRA:          -9.427
REMARK INTER:                  -8.678
REMARK INTRA:                  -0.749
REMARK UNBOUND:                -0.911
REMARK  Name = 
REMARK  4 active torsions:
REMARK  status: ('A' for Active; 'I' for Inactive)
REMARK    1  A    between atoms: C_2  and  C_4
REMARK    2  A    between atoms: N_8  and  C_9
REMARK    3  A    between atoms: C_9  and  C_10
REMARK    4  A    between atoms: C_14  and  C_15
REMARK                            x       y       z     vdW  Elec       q    Type
REMARK                         _______ _______ _______ _____ _____    ______ ____
ROOT
ATOM      1  C   UNL     1      48.641   6.681  15.985  0.00  0.00    +0.000 C 
ENDROOT
BRANCH   1   6
ATOM      2  C   UNL     1      51.260   2.523  17.447  0.00  0.00    +0.000 A 
ATOM      3  C   UNL     1      51.627   3.860  17.537  0.00  0.00    +0.000 A 
ATOM      4  C   UNL     1      50.685   4.844  17.229  0.00  0.00    +0.000 A 
ATOM      5  C   UNL     1      49.407   4.474  16.822  0.00  0.00    +0.000 A 
ATOM      6  N   UNL     1      48.402   5.375  16.561  0.00  0.00    +0.000 N 
ATOM      7  N   UNL     1      49.047   3.180  16.722  0.00  0.00    +0.000 NA
ATOM      8  C   UNL     1      49.974   2.234  17.022  0.00  0.00    +0.000 A 
ATOM      9  H   UNL     1      47.587   4.881  16.208  0.00  0.00    +0.000 HD
BRANCH   2  11
ATOM     10  N   UNL     1      51.643   0.220  18.127  0.00  0.00    +0.000 N 
ATOM     11  C   UNL     1      52.185   1.416  17.763  0.00  0.00    +0.000 C 
ATOM     12  O   UNL     1      53.400   1.564  17.674  0.00  0.00    +0.000 OA
ATOM     13  H   UNL     1      52.291  -0.547  18.238  0.00  0.00    +0.000 HD
ATOM     14  H   UNL     1      50.673  -0.005  17.964  0.00  0.00    +0.000 HD
ENDBRANCH   2  11
ENDBRANCH   1   6
BRANCH   1  15
ATOM     15  C   UNL     1      48.355   6.797  14.506  0.00  0.00    +0.000 A 
ATOM     16  C   UNL     1      49.231   7.339  13.561  0.00  0.00    +0.000 A 
ATOM     17  C   UNL     1      48.885   7.360  12.210  0.00  0.00    +0.000 A 
ATOM     18  C   UNL     1      47.681   6.802  11.780  0.00  0.00    +0.000 A 
ATOM     19  C   UNL     1      46.792   6.199  12.686  0.00  0.00    +0.000 A 
ATOM     20  C   UNL     1      47.137   6.254  14.050  0.00  0.00    +0.000 A 
BRANCH  19  21
ATOM     21  C   UNL     1      45.610   5.433  12.229  0.00  0.00    +0.000 A 
ATOM     22  C   UNL     1      44.656   4.971  13.169  0.00  0.00    +0.000 A 
ATOM     23  C   UNL     1      43.466   4.365  12.765  0.00  0.00    +0.000 A 
ATOM     24  C   UNL     1      43.193   4.208  11.411  0.00  0.00    +0.000 A 
ATOM     25  C   UNL     1      44.120   4.646  10.478  0.00  0.00    +0.000 A 
ATOM     26  F   UNL     1      43.850   4.510   9.174  0.00  0.00    +0.000 F 
ATOM     27  C   UNL     1      45.320   5.234  10.868  0.00  0.00    +0.000 A 
ENDBRANCH  19  21
ENDBRANCH   1  15
TORSDOF 4
ENDMDL
