MODEL 1
REMARK VINA RESULT:    -9.404      0.000      0.000
REMARK INTER + INTRA:         -14.486
REMARK INTER:                 -13.252
REMARK INTRA:                  -1.234
REMARK UNBOUND:                -1.234
REMARK  Name = 
REMARK  7 active torsions:
REMARK  status: ('A' for Active; 'I' for Inactive)
REMARK    1  A    between atoms: C_2  and  C_4
REMARK    2  A    between atoms: C_7  and  N_8
REMARK    3  A    between atoms: N_8  and  C_9
REMARK    4  A    between atoms: C_9  and  C_10
REMARK    5  A    between atoms: C_10  and  C_13
REMARK    6  A    between atoms: C_17  and  C_18
REMARK    7  A    between atoms: C_22  and  C_23
REMARK                            x       y       z     vdW  Elec       q    Type
REMARK                         _______ _______ _______ _____ _____    ______ ____
ROOT
ATOM      1  C   UNL     1      43.252   4.817  12.377  0.00  0.00    +0.000 C 
ATOM      2  F   UNL     1      42.276   5.644  11.903  0.00  0.00    +0.000 F 
ATOM      3  F   UNL     1      42.806   4.383  13.594  0.00  0.00    +0.000 F 
ENDROOT
BRANCH   1   4
ATOM      4  C   UNL     1      44.598   5.520  12.465  0.00  0.00    +0.000 A 
ATOM      5  C   UNL     1      44.922   6.567  11.596  0.00  0.00    +0.000 A 
ATOM      6  C   UNL     1      46.127   7.251  11.746  0.00  0.00    +0.000 A 
ATOM      7  C   UNL     1      47.012   6.902  12.770  0.00  0.00    +0.000 A 
ATOM      8  C   UNL     1      46.714   5.869  13.676  0.00  0.00    +0.000 A 
ATOM      9  C   UNL     1      45.501   5.179  13.490  0.00  0.00    +0.000 A 
BRANCH   8  10
ATOM     10  C   UNL     1      47.610   5.546  14.805  0.00  0.00    +0.000 A 
ATOM     11  C   UNL     1      48.636   6.404  15.209  0.00  0.00    +0.000 A 
ATOM     12  N   UNL     1      49.470   6.188  16.256  0.00  0.00    +0.000 NA
ATOM     13  C   UNL     1      49.279   5.055  16.964  0.00  0.00    +0.000 A 
ATOM     14  C   UNL     1      48.299   4.123  16.670  0.00  0.00    +0.000 A 
ATOM     15  C   UNL     1      47.465   4.378  15.569  0.00  0.00    +0.000 A 
BRANCH  14  16
ATOM     16  C   UNL     1      48.128   2.895  17.508  0.00  0.00    +0.000 C 
ATOM     17  F   UNL     1      48.635   3.014  18.766  0.00  0.00    +0.000 F 
ATOM     18  F   UNL     1      46.816   2.558  17.668  0.00  0.00    +0.000 F 
ATOM     19  F   UNL     1      48.729   1.804  16.964  0.00  0.00    +0.000 F 
ENDBRANCH  14  16
ENDBRANCH   8  10
ENDBRANCH   1   4
BRANCH   1  20
ATOM     20  C   UNL     1      43.392   3.593  11.439  0.00  0.00    +0.000 C 
BRANCH  20  21
ATOM     21  N   UNL     1      43.416   3.909   9.999  0.00  0.00    +0.000 N 
ATOM     22  H   UNL     1      42.526   3.778   9.519  0.00  0.00    +0.000 HD
BRANCH  21  26
ATOM     23  C   UNL     1      46.628   2.619   7.576  0.00  0.00    +0.000 A 
ATOM     24  C   UNL     1      46.288   3.970   7.609  0.00  0.00    +0.000 A 
ATOM     25  C   UNL     1      45.239   4.407   8.420  0.00  0.00    +0.000 A 
ATOM     26  C   UNL     1      44.523   3.521   9.238  0.00  0.00    +0.000 A 
ATOM     27  C   UNL     1      44.859   2.162   9.172  0.00  0.00    +0.000 A 
ATOM     28  C   UNL     1      45.898   1.708   8.346  0.00  0.00    +0.000 A 
BRANCH  23  30
ATOM     29  N   UNL     1      48.083   2.927   5.652  0.00  0.00    +0.000 N 
ATOM     30  C   UNL     1      47.721   2.124   6.701  0.00  0.00    +0.000 C 
ATOM     31  O   UNL     1      48.294   1.065   6.916  0.00  0.00    +0.000 OA
ATOM     32  H   UNL     1      48.885   2.630   5.111  0.00  0.00    +0.000 HD
ATOM     33  H   UNL     1      47.806   3.896   5.590  0.00  0.00    +0.000 HD
ENDBRANCH  23  30
ENDBRANCH  21  26
ENDBRANCH  20  21
ENDBRANCH   1  20
TORSDOF 7
ENDMDL
MODEL 2
REMARK VINA RESULT:    -9.241      0.734      1.319
REMARK INTER + INTRA:         -14.257
REMARK INTER:                 -12.930
REMARK INTRA:                  -1.327
REMARK UNBOUND:                -1.234
REMARK  Name = 
REMARK  7 active torsions:
REMARK  status: ('A' for Active; 'I' for Inactive)
REMARK    1  A    between atoms: C_2  and  C_4
REMARK    2  A    between atoms: C_7  and  N_8
REMARK    3  A    between atoms: N_8  and  C_9
REMARK    4  A    between atoms: C_9  and  C_10
REMARK    5  A    between atoms: C_10  and  C_13
REMARK    6  A    between atoms: C_17  and  C_18
REMARK    7  A    between atoms: C_22  and  C_23
REMARK                            x       y       z     vdW  Elec       q    Type
REMARK                         _______ _______ _______ _____ _____    ______ ____
ROOT
ATOM      1  C   UNL     1      43.317   4.855  12.318  0.00  0.00    +0.000 C 
ATOM      2  F   UNL     1      42.336   5.767  12.577  0.00  0.00    +0.000 F 
ATOM      3  F   UNL     1      43.145   3.859  13.239  0.00  0.00    +0.000 F 
ENDROOT
BRANCH   1   4
ATOM      4  C   UNL     1      44.702   5.480  12.386  0.00  0.00    +0.000 A 
ATOM      5  C   UNL     1      45.112   6.427  11.443  0.00  0.00    +0.000 A 
ATOM      6  C   UNL     1      46.354   7.046  11.569  0.00  0.00    +0.000 A 
ATOM      7  C   UNL     1      47.191   6.733  12.644  0.00  0.00    +0.000 A 
ATOM      8  C   UNL     1      46.807   5.801  13.623  0.00  0.00    +0.000 A 
ATOM      9  C   UNL     1      45.558   5.173  13.461  0.00  0.00    +0.000 A 
BRANCH   8  10
ATOM     10  C   UNL     1      47.655   5.521  14.801  0.00  0.00    +0.000 A 
ATOM     11  C   UNL     1      48.613   6.428  15.259  0.00  0.00    +0.000 A 
ATOM     12  N   UNL     1      49.397   6.252  16.351  0.00  0.00    +0.000 NA
ATOM     13  C   UNL     1      49.224   5.110  17.049  0.00  0.00    +0.000 A 
ATOM     14  C   UNL     1      48.309   4.132  16.703  0.00  0.00    +0.000 A 
ATOM     15  C   UNL     1      47.526   4.346  15.557  0.00  0.00    +0.000 A 
BRANCH  14  16
ATOM     16  C   UNL     1      48.152   2.896  17.532  0.00  0.00    +0.000 C 
ATOM     17  F   UNL     1      48.771   1.802  17.008  0.00  0.00    +0.000 F 
ATOM     18  F   UNL     1      48.666   3.046  18.786  0.00  0.00    +0.000 F 
ATOM     19  F   UNL     1      46.851   2.543  17.703  0.00  0.00    +0.000 F 
ENDBRANCH  14  16
ENDBRANCH   8  10
ENDBRANCH   1   4
BRANCH   1  20
ATOM     20  C   UNL     1      43.109   4.260  10.904  0.00  0.00    +0.000 C 
BRANCH  20  21
ATOM     21  N   UNL     1      43.822   2.995  10.649  0.00  0.00    +0.000 N 
ATOM     22  H   UNL     1      44.227   2.560  11.477  0.00  0.00    +0.000 HD
BRANCH  21  26
ATOM     23  C   UNL     1      46.410   2.793   7.314  0.00  0.00    +0.000 A 
ATOM     24  C   UNL     1      46.074   1.627   7.999  0.00  0.00    +0.000 A 
ATOM     25  C   UNL     1      45.206   1.683   9.091  0.00  0.00    +0.000 A 
ATOM     26  C   UNL     1      44.629   2.889   9.511  0.00  0.00    +0.000 A 
ATOM     27  C   UNL     1      44.998   4.057   8.829  0.00  0.00    +0.000 A 
ATOM     28  C   UNL     1      45.884   4.016   7.743  0.00  0.00    +0.000 A 
BRANCH  23  30
ATOM     29  N   UNL     1      48.665   2.499   6.452  0.00  0.00    +0.000 N 
ATOM     30  C   UNL     1      47.352   2.765   6.166  0.00  0.00    +0.000 C 
ATOM     31  O   UNL     1      46.977   2.942   5.016  0.00  0.00    +0.000 OA
ATOM     32  H   UNL     1      49.287   2.393   5.661  0.00  0.00    +0.000 HD
ATOM     33  H   UNL     1      48.959   2.115   7.339  0.00  0.00    +0.000 HD
ENDBRANCH  23  30
ENDBRANCH  21  26
ENDBRANCH  20  21
ENDBRANCH   1  20
TORSDOF 7
ENDMDL
MODEL 3
REMARK VINA RESULT:    -9.106      3.698      4.678
REMARK INTER + INTRA:         -14.067
REMARK INTER:                 -12.800
REMARK INTRA:                  -1.267
REMARK UNBOUND:                -1.234
REMARK  Name = 
REMARK  7 active torsions:
REMARK  status: ('A' for Active; 'I' for Inactive)
REMARK    1  A    between atoms: C_2  and  C_4
REMARK    2  A    between atoms: C_7  and  N_8
REMARK    3  A    between atoms: N_8  and  C_9
REMARK    4  A    between atoms: C_9  and  C_10
REMARK    5  A    between atoms: C_10  and  C_13
REMARK    6  A    between atoms: C_17  and  C_18
REMARK    7  A    between atoms: C_22  and  C_23
REMARK                            x       y       z     vdW  Elec       q    Type
REMARK                         _______ _______ _______ _____ _____    ______ ____
ROOT
ATOM      1  C   UNL     1      43.483   5.665  12.191  0.00  0.00    +0.000 C 
ATOM      2  F   UNL     1      43.116   6.869  11.664  0.00  0.00    +0.000 F 
ATOM      3  F   UNL     1      42.612   5.433  13.219  0.00  0.00    +0.000 F 
ENDROOT
BRANCH   1   4
ATOM      4  C   UNL     1      44.934   5.663  12.645  0.00  0.00    +0.000 A 
ATOM      5  C   UNL     1      45.471   4.574  13.339  0.00  0.00    +0.000 A 
ATOM      6  C   UNL     1      46.824   4.558  13.675  0.00  0.00    +0.000 A 
ATOM      7  C   UNL     1      47.653   5.623  13.310  0.00  0.00    +0.000 A 
ATOM      8  C   UNL     1      47.156   6.725  12.594  0.00  0.00    +0.000 A 
ATOM      9  C   UNL     1      45.782   6.729  12.287  0.00  0.00    +0.000 A 
BRANCH   8  10
ATOM     10  C   UNL     1      48.042   7.818  12.141  0.00  0.00    +0.000 A 
ATOM     11  C   UNL     1      47.620   9.149  12.103  0.00  0.00    +0.000 A 
ATOM     12  N   UNL     1      48.390  10.203  11.734  0.00  0.00    +0.000 NA
ATOM     13  C   UNL     1      49.665   9.933  11.385  0.00  0.00    +0.000 A 
ATOM     14  C   UNL     1      50.207   8.660  11.381  0.00  0.00    +0.000 A 
ATOM     15  C   UNL     1      49.373   7.595  11.756  0.00  0.00    +0.000 A 
BRANCH  14  16
ATOM     16  C   UNL     1      51.636   8.432  11.001  0.00  0.00    +0.000 C 
ATOM     17  F   UNL     1      52.463   8.241  12.066  0.00  0.00    +0.000 F 
ATOM     18  F   UNL     1      51.792   7.333  10.210  0.00  0.00    +0.000 F 
ATOM     19  F   UNL     1      52.163   9.472  10.301  0.00  0.00    +0.000 F 
ENDBRANCH  14  16
ENDBRANCH   8  10
ENDBRANCH   1   4
BRANCH   1  20
ATOM     20  C   UNL     1      43.294   4.556  11.126  0.00  0.00    +0.000 C 
BRANCH  20  21
ATOM     21  N   UNL     1      43.786   4.895   9.779  0.00  0.00    +0.000 N 
ATOM     22  H   UNL     1      43.102   5.357   9.179  0.00  0.00    +0.000 HD
BRANCH  21  26
ATOM     23  C   UNL     1      46.394   2.207   7.822  0.00  0.00    +0.000 A 
ATOM     24  C   UNL     1      45.449   1.720   8.723  0.00  0.00    +0.000 A 
ATOM     25  C   UNL     1      44.572   2.599   9.360  0.00  0.00    +0.000 A 
ATOM     26  C   UNL     1      44.592   3.977   9.099  0.00  0.00    +0.000 A 
ATOM     27  C   UNL     1      45.567   4.455   8.211  0.00  0.00    +0.000 A 
ATOM     28  C   UNL     1      46.466   3.583   7.581  0.00  0.00    +0.000 A 
BRANCH  23  30
ATOM     29  N   UNL     1      48.375   1.883   6.450  0.00  0.00    +0.000 N 
ATOM     30  C   UNL     1      47.356   1.296   7.152  0.00  0.00    +0.000 C 
ATOM     31  O   UNL     1      47.266   0.080   7.241  0.00  0.00    +0.000 OA
ATOM     32  H   UNL     1      49.078   1.262   6.069  0.00  0.00    +0.000 HD
ATOM     33  H   UNL     1      48.616   2.857   6.556  0.00  0.00    +0.000 HD
ENDBRANCH  23  30
ENDBRANCH  21  26
ENDBRANCH  20  21
ENDBRANCH   1  20
TORSDOF 7
ENDMDL
MODEL 4
REMARK VINA RESULT:    -8.996      1.590      1.967
REMARK INTER + INTRA:         -13.912
REMARK INTER:                 -12.629
REMARK INTRA:                  -1.283
REMARK UNBOUND:                -1.234
REMARK  Name = 
REMARK  7 active torsions:
REMARK  status: ('A' for Active; 'I' for Inactive)
REMARK    1  A    between atoms: C_2  and  C_4
REMARK    2  A    between atoms: C_7  and  N_8
REMARK    3  A    between atoms: N_8  and  C_9
REMARK    4  A    between atoms: C_9  and  C_10
REMARK    5  A    between atoms: C_10  and  C_13
REMARK    6  A    between atoms: C_17  and  C_18
REMARK    7  A    between atoms: C_22  and  C_23
REMARK                            x       y       z     vdW  Elec       q    Type
REMARK                         _______ _______ _______ _____ _____    ______ ____
ROOT
ATOM      1  C   UNL     1      43.527   5.525  12.124  0.00  0.00    +0.000 C 
ATOM      2  F   UNL     1      42.977   6.600  11.488  0.00  0.00    +0.000 F 
ATOM      3  F   UNL     1      42.808   5.374  13.278  0.00  0.00    +0.000 F 
ENDROOT
BRANCH   1   4
ATOM      4  C   UNL     1      45.012   5.720  12.385  0.00  0.00    +0.000 A 
ATOM      5  C   UNL     1      45.789   6.533  11.553  0.00  0.00    +0.000 A 
ATOM      6  C   UNL     1      47.131   6.762  11.855  0.00  0.00    +0.000 A 
ATOM      7  C   UNL     1      47.703   6.191  12.995  0.00  0.00    +0.000 A 
ATOM      8  C   UNL     1      46.951   5.385  13.867  0.00  0.00    +0.000 A 
ATOM      9  C   UNL     1      45.605   5.150  13.528  0.00  0.00    +0.000 A 
BRANCH   8  10
ATOM     10  C   UNL     1      47.530   4.840  15.112  0.00  0.00    +0.000 A 
ATOM     11  C   UNL     1      47.413   3.492  15.459  0.00  0.00    +0.000 A 
ATOM     12  N   UNL     1      47.949   2.919  16.565  0.00  0.00    +0.000 NA
ATOM     13  C   UNL     1      48.658   3.723  17.385  0.00  0.00    +0.000 A 
ATOM     14  C   UNL     1      48.850   5.074  17.156  0.00  0.00    +0.000 A 
ATOM     15  C   UNL     1      48.266   5.631  16.007  0.00  0.00    +0.000 A 
BRANCH  14  16
ATOM     16  C   UNL     1      49.664   5.906  18.097  0.00  0.00    +0.000 C 
ATOM     17  F   UNL     1      49.000   6.260  19.231  0.00  0.00    +0.000 F 
ATOM     18  F   UNL     1      50.792   5.261  18.513  0.00  0.00    +0.000 F 
ATOM     19  F   UNL     1      50.088   7.068  17.533  0.00  0.00    +0.000 F 
ENDBRANCH  14  16
ENDBRANCH   8  10
ENDBRANCH   1   4
BRANCH   1  20
ATOM     20  C   UNL     1      43.337   4.258  11.256  0.00  0.00    +0.000 C 
BRANCH  20  21
ATOM     21  N   UNL     1      43.507   4.464   9.806  0.00  0.00    +0.000 N 
ATOM     22  H   UNL     1      42.642   4.427   9.266  0.00  0.00    +0.000 HD
BRANCH  21  26
ATOM     23  C   UNL     1      46.651   2.551   7.729  0.00  0.00    +0.000 A 
ATOM     24  C   UNL     1      46.501   3.934   7.634  0.00  0.00    +0.000 A 
ATOM     25  C   UNL     1      45.475   4.575   8.331  0.00  0.00    +0.000 A 
ATOM     26  C   UNL     1      44.594   3.867   9.159  0.00  0.00    +0.000 A 
ATOM     27  C   UNL     1      44.740   2.474   9.222  0.00  0.00    +0.000 A 
ATOM     28  C   UNL     1      45.754   1.816   8.511  0.00  0.00    +0.000 A 
BRANCH  23  30
ATOM     29  N   UNL     1      48.665   2.619   6.368  0.00  0.00    +0.000 N 
ATOM     30  C   UNL     1      47.716   1.842   6.976  0.00  0.00    +0.000 C 
ATOM     31  O   UNL     1      47.766   0.621   6.919  0.00  0.00    +0.000 OA
ATOM     32  H   UNL     1      49.437   2.132   5.931  0.00  0.00    +0.000 HD
ATOM     33  H   UNL     1      48.791   3.595   6.593  0.00  0.00    +0.000 HD
ENDBRANCH  23  30
ENDBRANCH  21  26
ENDBRANCH  20  21
ENDBRANCH   1  20
TORSDOF 7
ENDMDL
MODEL 5
REMARK VINA RESULT:    -8.447      3.721      4.489
REMARK INTER + INTRA:         -13.138
REMARK INTER:                 -12.159
REMARK INTRA:                  -0.979
REMARK UNBOUND:                -1.234
REMARK  Name = 
REMARK  7 active torsions:
REMARK  status: ('A' for Active; 'I' for Inactive)
REMARK    1  A    between atoms: C_2  and  C_4
REMARK    2  A    between atoms: C_7  and  N_8
REMARK    3  A    between atoms: N_8  and  C_9
REMARK    4  A    between atoms: C_9  and  C_10
REMARK    5  A    between atoms: C_10  and  C_13
REMARK    6  A    between atoms: C_17  and  C_18
REMARK    7  A    between atoms: C_22  and  C_23
REMARK                            x       y       z     vdW  Elec       q    Type
REMARK                         _______ _______ _______ _____ _____    ______ ____
ROOT
ATOM      1  C   UNL     1      44.758   4.670  12.312  0.00  0.00    +0.000 C 
ATOM      2  F   UNL     1      44.379   4.474  13.608  0.00  0.00    +0.000 F 
ATOM      3  F   UNL     1      45.704   3.716  12.058  0.00  0.00    +0.000 F 
ENDROOT
BRANCH   1   4
ATOM      4  C   UNL     1      45.276   6.081  12.081  0.00  0.00    +0.000 A 
ATOM      5  C   UNL     1      44.398   7.135  11.808  0.00  0.00    +0.000 A 
ATOM      6  C   UNL     1      44.886   8.434  11.678  0.00  0.00    +0.000 A 
ATOM      7  C   UNL     1      46.251   8.693  11.832  0.00  0.00    +0.000 A 
ATOM      8  C   UNL     1      47.162   7.664  12.127  0.00  0.00    +0.000 A 
ATOM      9  C   UNL     1      46.648   6.357  12.230  0.00  0.00    +0.000 A 
BRANCH   8  10
ATOM     10  C   UNL     1      48.594   7.942  12.364  0.00  0.00    +0.000 A 
ATOM     11  C   UNL     1      49.086   8.277  13.628  0.00  0.00    +0.000 A 
ATOM     12  N   UNL     1      50.389   8.509  13.924  0.00  0.00    +0.000 NA
ATOM     13  C   UNL     1      51.273   8.394  12.911  0.00  0.00    +0.000 A 
ATOM     14  C   UNL     1      50.917   8.066  11.615  0.00  0.00    +0.000 A 
ATOM     15  C   UNL     1      49.556   7.849  11.348  0.00  0.00    +0.000 A 
BRANCH  14  16
ATOM     16  C   UNL     1      51.951   7.936  10.542  0.00  0.00    +0.000 C 
ATOM     17  F   UNL     1      53.169   7.533  10.999  0.00  0.00    +0.000 F 
ATOM     18  F   UNL     1      51.595   7.029   9.588  0.00  0.00    +0.000 F 
ATOM     19  F   UNL     1      52.168   9.104   9.881  0.00  0.00    +0.000 F 
ENDBRANCH  14  16
ENDBRANCH   8  10
ENDBRANCH   1   4
BRANCH   1  20
ATOM     20  C   UNL     1      43.548   4.425  11.378  0.00  0.00    +0.000 C 
BRANCH  20  21
ATOM     21  N   UNL     1      43.776   4.762   9.961  0.00  0.00    +0.000 N 
ATOM     22  H   UNL     1      42.928   4.955   9.427  0.00  0.00    +0.000 HD
BRANCH  21  26
ATOM     23  C   UNL     1      46.524   2.518   7.666  0.00  0.00    +0.000 A 
ATOM     24  C   UNL     1      46.552   3.911   7.609  0.00  0.00    +0.000 A 
ATOM     25  C   UNL     1      45.659   4.660   8.377  0.00  0.00    +0.000 A 
ATOM     26  C   UNL     1      44.738   4.049   9.240  0.00  0.00    +0.000 A 
ATOM     27  C   UNL     1      44.704   2.647   9.265  0.00  0.00    +0.000 A 
ATOM     28  C   UNL     1      45.583   1.884   8.483  0.00  0.00    +0.000 A 
BRANCH  23  30
ATOM     29  N   UNL     1      48.537   2.336   6.313  0.00  0.00    +0.000 N 
ATOM     30  C   UNL     1      47.445   1.699   6.838  0.00  0.00    +0.000 C 
ATOM     31  O   UNL     1      47.258   0.504   6.651  0.00  0.00    +0.000 OA
ATOM     32  H   UNL     1      49.207   1.757   5.824  0.00  0.00    +0.000 HD
ATOM     33  H   UNL     1      48.846   3.240   6.641  0.00  0.00    +0.000 HD
ENDBRANCH  23  30
ENDBRANCH  21  26
ENDBRANCH  20  21
ENDBRANCH   1  20
TORSDOF 7
ENDMDL
MODEL 6
REMARK VINA RESULT:    -8.441      1.513      2.107
REMARK INTER + INTRA:         -13.130
REMARK INTER:                 -12.467
REMARK INTRA:                  -0.663
REMARK UNBOUND:                -1.234
REMARK  Name = 
REMARK  7 active torsions:
REMARK  status: ('A' for Active; 'I' for Inactive)
REMARK    1  A    between atoms: C_2  and  C_4
REMARK    2  A    between atoms: C_7  and  N_8
REMARK    3  A    between atoms: N_8  and  C_9
REMARK    4  A    between atoms: C_9  and  C_10
REMARK    5  A    between atoms: C_10  and  C_13
REMARK    6  A    between atoms: C_17  and  C_18
REMARK    7  A    between atoms: C_22  and  C_23
REMARK                            x       y       z     vdW  Elec       q    Type
REMARK                         _______ _______ _______ _____ _____    ______ ____
ROOT
ATOM      1  C   UNL     1      43.996   4.429  12.479  0.00  0.00    +0.000 C 
ATOM      2  F   UNL     1      43.189   4.398  13.578  0.00  0.00    +0.000 F 
ATOM      3  F   UNL     1      44.750   3.290  12.545  0.00  0.00    +0.000 F 
ENDROOT
BRANCH   1   4
ATOM      4  C   UNL     1      44.846   5.689  12.436  0.00  0.00    +0.000 A 
ATOM      5  C   UNL     1      44.387   6.846  11.798  0.00  0.00    +0.000 A 
ATOM      6  C   UNL     1      45.147   8.014  11.839  0.00  0.00    +0.000 A 
ATOM      7  C   UNL     1      46.364   8.039  12.526  0.00  0.00    +0.000 A 
ATOM      8  C   UNL     1      46.849   6.903  13.197  0.00  0.00    +0.000 A 
ATOM      9  C   UNL     1      46.076   5.730  13.121  0.00  0.00    +0.000 A 
BRANCH   8  10
ATOM     10  C   UNL     1      48.097   6.945  13.987  0.00  0.00    +0.000 A 
ATOM     11  C   UNL     1      49.193   7.723  13.606  0.00  0.00    +0.000 A 
ATOM     12  N   UNL     1      50.352   7.835  14.301  0.00  0.00    +0.000 NA
ATOM     13  C   UNL     1      50.440   7.144  15.456  0.00  0.00    +0.000 A 
ATOM     14  C   UNL     1      49.427   6.338  15.946  0.00  0.00    +0.000 A 
ATOM     15  C   UNL     1      48.249   6.237  15.189  0.00  0.00    +0.000 A 
BRANCH  14  16
ATOM     16  C   UNL     1      49.582   5.612  17.245  0.00  0.00    +0.000 C 
ATOM     17  F   UNL     1      48.568   5.840  18.125  0.00  0.00    +0.000 F 
ATOM     18  F   UNL     1      49.631   4.259  17.079  0.00  0.00    +0.000 F 
ATOM     19  F   UNL     1      50.726   5.947  17.898  0.00  0.00    +0.000 F 
ENDBRANCH  14  16
ENDBRANCH   8  10
ENDBRANCH   1   4
BRANCH   1  20
ATOM     20  C   UNL     1      43.128   4.372  11.198  0.00  0.00    +0.000 C 
BRANCH  20  21
ATOM     21  N   UNL     1      43.794   4.842   9.971  0.00  0.00    +0.000 N 
ATOM     22  H   UNL     1      43.229   5.460   9.389  0.00  0.00    +0.000 HD
BRANCH  21  26
ATOM     23  C   UNL     1      46.328   2.206   7.851  0.00  0.00    +0.000 A 
ATOM     24  C   UNL     1      45.361   1.691   8.713  0.00  0.00    +0.000 A 
ATOM     25  C   UNL     1      44.508   2.555   9.404  0.00  0.00    +0.000 A 
ATOM     26  C   UNL     1      44.575   3.945   9.236  0.00  0.00    +0.000 A 
ATOM     27  C   UNL     1      45.572   4.448   8.387  0.00  0.00    +0.000 A 
ATOM     28  C   UNL     1      46.446   3.591   7.703  0.00  0.00    +0.000 A 
BRANCH  23  30
ATOM     29  N   UNL     1      48.356   1.899   6.546  0.00  0.00    +0.000 N 
ATOM     30  C   UNL     1      47.265   1.310   7.127  0.00  0.00    +0.000 C 
ATOM     31  O   UNL     1      47.091   0.101   7.071  0.00  0.00    +0.000 OA
ATOM     32  H   UNL     1      49.037   1.276   6.130  0.00  0.00    +0.000 HD
ATOM     33  H   UNL     1      48.653   2.836   6.775  0.00  0.00    +0.000 HD
ENDBRANCH  23  30
ENDBRANCH  21  26
ENDBRANCH  20  21
ENDBRANCH   1  20
TORSDOF 7
ENDMDL
MODEL 7
REMARK VINA RESULT:    -8.373      3.386      4.324
REMARK INTER + INTRA:         -13.034
REMARK INTER:                 -11.756
REMARK INTRA:                  -1.278
REMARK UNBOUND:                -1.234
REMARK  Name = 
REMARK  7 active torsions:
REMARK  status: ('A' for Active; 'I' for Inactive)
REMARK    1  A    between atoms: C_2  and  C_4
REMARK    2  A    between atoms: C_7  and  N_8
REMARK    3  A    between atoms: N_8  and  C_9
REMARK    4  A    between atoms: C_9  and  C_10
REMARK    5  A    between atoms: C_10  and  C_13
REMARK    6  A    between atoms: C_17  and  C_18
REMARK    7  A    between atoms: C_22  and  C_23
REMARK                            x       y       z     vdW  Elec       q    Type
REMARK                         _______ _______ _______ _____ _____    ______ ____
ROOT
ATOM      1  C   UNL     1      43.246   4.999  12.617  0.00  0.00    +0.000 C 
ATOM      2  F   UNL     1      42.572   6.177  12.478  0.00  0.00    +0.000 F 
ATOM      3  F   UNL     1      42.609   4.327  13.623  0.00  0.00    +0.000 F 
ENDROOT
BRANCH   1   4
ATOM      4  C   UNL     1      44.722   5.221  12.907  0.00  0.00    +0.000 A 
ATOM      5  C   UNL     1      45.584   4.141  13.122  0.00  0.00    +0.000 A 
ATOM      6  C   UNL     1      46.948   4.362  13.307  0.00  0.00    +0.000 A 
ATOM      7  C   UNL     1      47.463   5.661  13.266  0.00  0.00    +0.000 A 
ATOM      8  C   UNL     1      46.632   6.771  13.033  0.00  0.00    +0.000 A 
ATOM      9  C   UNL     1      45.255   6.523  12.872  0.00  0.00    +0.000 A 
BRANCH   8  10
ATOM     10  C   UNL     1      47.180   8.138  12.915  0.00  0.00    +0.000 A 
ATOM     11  C   UNL     1      46.680   9.062  11.993  0.00  0.00    +0.000 A 
ATOM     12  N   UNL     1      47.111  10.340  11.857  0.00  0.00    +0.000 NA
ATOM     13  C   UNL     1      48.094  10.745  12.688  0.00  0.00    +0.000 A 
ATOM     14  C   UNL     1      48.673   9.931  13.644  0.00  0.00    +0.000 A 
ATOM     15  C   UNL     1      48.209   8.609  13.744  0.00  0.00    +0.000 A 
BRANCH  14  16
ATOM     16  C   UNL     1      49.748  10.448  14.548  0.00  0.00    +0.000 C 
ATOM     17  F   UNL     1      50.863  10.867  13.890  0.00  0.00    +0.000 F 
ATOM     18  F   UNL     1      49.331  11.515  15.288  0.00  0.00    +0.000 F 
ATOM     19  F   UNL     1      50.169   9.517  15.444  0.00  0.00    +0.000 F 
ENDBRANCH  14  16
ENDBRANCH   8  10
ENDBRANCH   1   4
BRANCH   1  20
ATOM     20  C   UNL     1      43.115   4.173  11.314  0.00  0.00    +0.000 C 
BRANCH  20  21
ATOM     21  N   UNL     1      43.792   4.749  10.138  0.00  0.00    +0.000 N 
ATOM     22  H   UNL     1      43.227   5.407   9.601  0.00  0.00    +0.000 HD
BRANCH  21  26
ATOM     23  C   UNL     1      46.386   2.339   7.831  0.00  0.00    +0.000 A 
ATOM     24  C   UNL     1      45.504   1.741   8.730  0.00  0.00    +0.000 A 
ATOM     25  C   UNL     1      44.632   2.529   9.483  0.00  0.00    +0.000 A 
ATOM     26  C   UNL     1      44.593   3.923   9.343  0.00  0.00    +0.000 A 
ATOM     27  C   UNL     1      45.505   4.512   8.456  0.00  0.00    +0.000 A 
ATOM     28  C   UNL     1      46.400   3.732   7.709  0.00  0.00    +0.000 A 
BRANCH  23  30
ATOM     29  N   UNL     1      48.426   2.181   6.518  0.00  0.00    +0.000 N 
ATOM     30  C   UNL     1      47.343   1.525   7.039  0.00  0.00    +0.000 C 
ATOM     31  O   UNL     1      47.192   0.322   6.879  0.00  0.00    +0.000 OA
ATOM     32  H   UNL     1      49.120   1.608   6.054  0.00  0.00    +0.000 HD
ATOM     33  H   UNL     1      48.704   3.100   6.828  0.00  0.00    +0.000 HD
ENDBRANCH  23  30
ENDBRANCH  21  26
ENDBRANCH  20  21
ENDBRANCH   1  20
TORSDOF 7
ENDMDL
MODEL 8
REMARK VINA RESULT:    -7.896      4.236      7.991
REMARK INTER + INTRA:         -12.361
REMARK INTER:                 -10.953
REMARK INTRA:                  -1.408
REMARK UNBOUND:                -1.234
REMARK  Name = 
REMARK  7 active torsions:
REMARK  status: ('A' for Active; 'I' for Inactive)
REMARK    1  A    between atoms: C_2  and  C_4
REMARK    2  A    between atoms: C_7  and  N_8
REMARK    3  A    between atoms: N_8  and  C_9
REMARK    4  A    between atoms: C_9  and  C_10
REMARK    5  A    between atoms: C_10  and  C_13
REMARK    6  A    between atoms: C_17  and  C_18
REMARK    7  A    between atoms: C_22  and  C_23
REMARK                            x       y       z     vdW  Elec       q    Type
REMARK                         _______ _______ _______ _____ _____    ______ ____
ROOT
ATOM      1  C   UNL     1      49.096   8.186  12.073  0.00  0.00    +0.000 C 
ATOM      2  F   UNL     1      49.512   9.478  12.210  0.00  0.00    +0.000 F 
ATOM      3  F   UNL     1      49.654   7.742  10.906  0.00  0.00    +0.000 F 
ENDROOT
BRANCH   1   4
ATOM      4  C   UNL     1      47.579   8.077  12.072  0.00  0.00    +0.000 A 
ATOM      5  C   UNL     1      46.775   9.219  12.146  0.00  0.00    +0.000 A 
ATOM      6  C   UNL     1      45.388   9.103  12.063  0.00  0.00    +0.000 A 
ATOM      7  C   UNL     1      44.795   7.849  11.893  0.00  0.00    +0.000 A 
ATOM      8  C   UNL     1      45.570   6.680  11.795  0.00  0.00    +0.000 A 
ATOM      9  C   UNL     1      46.966   6.821  11.905  0.00  0.00    +0.000 A 
BRANCH   8  10
ATOM     10  C   UNL     1      44.953   5.361  11.541  0.00  0.00    +0.000 A 
ATOM     11  C   UNL     1      44.036   4.787  12.425  0.00  0.00    +0.000 A 
ATOM     12  N   UNL     1      43.407   3.601  12.237  0.00  0.00    +0.000 NA
ATOM     13  C   UNL     1      43.689   2.934  11.099  0.00  0.00    +0.000 A 
ATOM     14  C   UNL     1      44.577   3.392  10.142  0.00  0.00    +0.000 A 
ATOM     15  C   UNL     1      45.219   4.618  10.381  0.00  0.00    +0.000 A 
BRANCH  14  16
ATOM     16  C   UNL     1      44.832   2.612   8.891  0.00  0.00    +0.000 C 
ATOM     17  F   UNL     1      44.453   3.259   7.754  0.00  0.00    +0.000 F 
ATOM     18  F   UNL     1      46.153   2.316   8.726  0.00  0.00    +0.000 F 
ATOM     19  F   UNL     1      44.179   1.420   8.877  0.00  0.00    +0.000 F 
ENDBRANCH  14  16
ENDBRANCH   8  10
ENDBRANCH   1   4
BRANCH   1  20
ATOM     20  C   UNL     1      49.654   7.336  13.241  0.00  0.00    +0.000 C 
BRANCH  20  21
ATOM     21  N   UNL     1      49.146   7.700  14.576  0.00  0.00    +0.000 N 
ATOM     22  H   UNL     1      49.664   8.445  15.041  0.00  0.00    +0.000 HD
BRANCH  21  26
ATOM     23  C   UNL     1      47.977   4.488  17.062  0.00  0.00    +0.000 A 
ATOM     24  C   UNL     1      48.888   5.431  17.534  0.00  0.00    +0.000 A 
ATOM     25  C   UNL     1      49.266   6.505  16.726  0.00  0.00    +0.000 A 
ATOM     26  C   UNL     1      48.730   6.684  15.443  0.00  0.00    +0.000 A 
ATOM     27  C   UNL     1      47.835   5.713  14.972  0.00  0.00    +0.000 A 
ATOM     28  C   UNL     1      47.463   4.620  15.768  0.00  0.00    +0.000 A 
BRANCH  23  30
ATOM     29  N   UNL     1      48.352   3.055  18.989  0.00  0.00    +0.000 N 
ATOM     30  C   UNL     1      47.579   3.323  17.891  0.00  0.00    +0.000 C 
ATOM     31  O   UNL     1      46.595   2.646  17.628  0.00  0.00    +0.000 OA
ATOM     32  H   UNL     1      48.028   2.316  19.600  0.00  0.00    +0.000 HD
ATOM     33  H   UNL     1      49.011   3.721  19.365  0.00  0.00    +0.000 HD
ENDBRANCH  23  30
ENDBRANCH  21  26
ENDBRANCH  20  21
ENDBRANCH   1  20
TORSDOF 7
ENDMDL
MODEL 9
REMARK VINA RESULT:    -7.863      2.310      3.040
REMARK INTER + INTRA:         -12.314
REMARK INTER:                 -11.193
REMARK INTRA:                  -1.121
REMARK UNBOUND:                -1.234
REMARK  Name = 
REMARK  7 active torsions:
REMARK  status: ('A' for Active; 'I' for Inactive)
REMARK    1  A    between atoms: C_2  and  C_4
REMARK    2  A    between atoms: C_7  and  N_8
REMARK    3  A    between atoms: N_8  and  C_9
REMARK    4  A    between atoms: C_9  and  C_10
REMARK    5  A    between atoms: C_10  and  C_13
REMARK    6  A    between atoms: C_17  and  C_18
REMARK    7  A    between atoms: C_22  and  C_23
REMARK                            x       y       z     vdW  Elec       q    Type
REMARK                         _______ _______ _______ _____ _____    ______ ____
ROOT
ATOM      1  C   UNL     1      45.051   5.795  12.217  0.00  0.00    +0.000 C 
ATOM      2  F   UNL     1      44.100   6.475  12.920  0.00  0.00    +0.000 F 
ATOM      3  F   UNL     1      44.792   4.470  12.436  0.00  0.00    +0.000 F 
ENDROOT
BRANCH   1   4
ATOM      4  C   UNL     1      46.457   6.191  12.636  0.00  0.00    +0.000 A 
ATOM      5  C   UNL     1      47.266   6.968  11.800  0.00  0.00    +0.000 A 
ATOM      6  C   UNL     1      48.522   7.388  12.236  0.00  0.00    +0.000 A 
ATOM      7  C   UNL     1      48.974   7.046  13.514  0.00  0.00    +0.000 A 
ATOM      8  C   UNL     1      48.183   6.285  14.391  0.00  0.00    +0.000 A 
ATOM      9  C   UNL     1      46.929   5.853  13.919  0.00  0.00    +0.000 A 
BRANCH   8  10
ATOM     10  C   UNL     1      48.624   5.984  15.769  0.00  0.00    +0.000 A 
ATOM     11  C   UNL     1      48.127   4.893  16.487  0.00  0.00    +0.000 A 
ATOM     12  N   UNL     1      48.513   4.538  17.737  0.00  0.00    +0.000 NA
ATOM     13  C   UNL     1      49.460   5.301  18.322  0.00  0.00    +0.000 A 
ATOM     14  C   UNL     1      50.034   6.407  17.720  0.00  0.00    +0.000 A 
ATOM     15  C   UNL     1      49.596   6.748  16.431  0.00  0.00    +0.000 A 
BRANCH  14  16
ATOM     16  C   UNL     1      51.095   7.199  18.417  0.00  0.00    +0.000 C 
ATOM     17  F   UNL     1      52.265   7.277  17.726  0.00  0.00    +0.000 F 
ATOM     18  F   UNL     1      50.712   8.488  18.643  0.00  0.00    +0.000 F 
ATOM     19  F   UNL     1      51.414   6.687  19.635  0.00  0.00    +0.000 F 
ENDBRANCH  14  16
ENDBRANCH   8  10
ENDBRANCH   1   4
BRANCH   1  20
ATOM     20  C   UNL     1      44.882   6.085  10.705  0.00  0.00    +0.000 C 
BRANCH  20  21
ATOM     21  N   UNL     1      44.083   5.093   9.964  0.00  0.00    +0.000 N 
ATOM     22  H   UNL     1      43.236   4.786  10.441  0.00  0.00    +0.000 HD
BRANCH  21  26
ATOM     23  C   UNL     1      46.256   2.057   7.984  0.00  0.00    +0.000 A 
ATOM     24  C   UNL     1      45.287   1.711   8.925  0.00  0.00    +0.000 A 
ATOM     25  C   UNL     1      44.552   2.708   9.570  0.00  0.00    +0.000 A 
ATOM     26  C   UNL     1      44.741   4.066   9.280  0.00  0.00    +0.000 A 
ATOM     27  C   UNL     1      45.739   4.399   8.352  0.00  0.00    +0.000 A 
ATOM     28  C   UNL     1      46.496   3.407   7.712  0.00  0.00    +0.000 A 
BRANCH  23  30
ATOM     29  N   UNL     1      46.821  -0.284   7.648  0.00  0.00    +0.000 N 
ATOM     30  C   UNL     1      47.070   1.018   7.304  0.00  0.00    +0.000 C 
ATOM     31  O   UNL     1      47.906   1.301   6.457  0.00  0.00    +0.000 OA
ATOM     32  H   UNL     1      47.314  -0.993   7.120  0.00  0.00    +0.000 HD
ATOM     33  H   UNL     1      45.990  -0.563   8.150  0.00  0.00    +0.000 HD
ENDBRANCH  23  30
ENDBRANCH  21  26
ENDBRANCH  20  21
ENDBRANCH   1  20
TORSDOF 7
ENDMDL
