MODEL 1
REMARK VINA RESULT:    -9.085      0.000      0.000
REMARK INTER + INTRA:         -13.669
REMARK INTER:                 -12.802
REMARK INTRA:                  -0.867
REMARK UNBOUND:                -0.867
REMARK  Name = 
REMARK  8 active torsions:
REMARK  status: ('A' for Active; 'I' for Inactive)
REMARK    1  A    between atoms: C_1  and  C_2
REMARK    2  A    between atoms: C_2  and  N_3
REMARK    3  A    between atoms: C_2  and  C_16
REMARK    4  A    between atoms: C_4  and  C_6
REMARK    5  A    between atoms: C_19  and  C_20
REMARK    6  A    between atoms: C_20  and  N_21
REMARK    7  A    between atoms: N_21  and  C_22
REMARK    8  A    between atoms: C_22  and  C_23
REMARK                            x       y       z     vdW  Elec       q    Type
REMARK                         _______ _______ _______ _____ _____    ______ ____
ROOT
ATOM      1  C   UNL     1      47.908   8.640  12.038  0.00  0.00    +0.000 C 
ATOM      2  C   UNL     1      46.803   8.139  12.978  0.00  0.00    +0.000 C 
ENDROOT
BRANCH   2   3
ATOM      3  C   UNL     1      45.977   7.007  12.390  0.00  0.00    +0.000 A 
ATOM      4  C   UNL     1      46.276   6.525  11.106  0.00  0.00    +0.000 A 
ATOM      5  C   UNL     1      45.559   5.455  10.560  0.00  0.00    +0.000 A 
ATOM      6  C   UNL     1      44.529   4.840  11.285  0.00  0.00    +0.000 A 
ATOM      7  C   UNL     1      44.189   5.359  12.539  0.00  0.00    +0.000 A 
ATOM      8  C   UNL     1      44.894   6.439  13.074  0.00  0.00    +0.000 A 
BRANCH   6   9
ATOM      9  C   UNL     1      43.805   3.631  10.739  0.00  0.00    +0.000 C 
BRANCH   9  10
ATOM     10  N   UNL     1      44.749   2.543  10.504  0.00  0.00    +0.000 NA
ATOM     11  H   UNL     1      44.644   1.854  11.250  0.00  0.00    +0.000 HD
BRANCH  10  12
ATOM     12  C   UNL     1      44.496   1.871   9.225  0.00  0.00    +0.000 C 
BRANCH  12  13
ATOM     13  C   UNL     1      45.645   2.068   8.255  0.00  0.00    +0.000 A 
ATOM     14  C   UNL     1      45.844   3.308   7.645  0.00  0.00    +0.000 A 
ATOM     15  C   UNL     1      46.929   3.475   6.790  0.00  0.00    +0.000 A 
ATOM     16  C   UNL     1      47.782   2.403   6.559  0.00  0.00    +0.000 A 
ATOM     17  C   UNL     1      47.511   1.204   7.196  0.00  0.00    +0.000 A 
ATOM     18  N   UNL     1      46.470   1.012   8.036  0.00  0.00    +0.000 NA
ENDBRANCH  12  13
ENDBRANCH  10  12
ENDBRANCH   9  10
ENDBRANCH   6   9
ENDBRANCH   2   3
BRANCH   2  19
ATOM     19  N   UNL     1      47.363   7.708  14.242  0.00  0.00    +0.000 N 
ATOM     20  C   UNL     1      48.319   6.732  14.335  0.00  0.00    +0.000 C 
ATOM     21  O   UNL     1      48.867   6.242  13.351  0.00  0.00    +0.000 OA
ATOM     22  H   UNL     1      46.844   7.975  15.072  0.00  0.00    +0.000 HD
BRANCH  20  23
ATOM     23  C   UNL     1      48.689   6.332  15.696  0.00  0.00    +0.000 A 
ATOM     24  C   UNL     1      49.598   7.086  16.423  0.00  0.00    +0.000 A 
ATOM     25  S   UNL     1      49.934   6.441  17.967  0.00  0.00    +0.000 S 
ATOM     26  C   UNL     1      48.910   5.109  17.694  0.00  0.00    +0.000 A 
ATOM     27  N   UNL     1      48.786   4.118  18.617  0.00  0.00    +0.000 NA
ATOM     28  C   UNL     1      48.007   3.150  18.259  0.00  0.00    +0.000 A 
ATOM     29  N   UNL     1      47.323   3.093  17.074  0.00  0.00    +0.000 N 
ATOM     30  C   UNL     1      47.361   4.103  16.140  0.00  0.00    +0.000 A 
ATOM     31  O   UNL     1      46.653   4.073  15.137  0.00  0.00    +0.000 OA
ATOM     32  C   UNL     1      48.279   5.179  16.469  0.00  0.00    +0.000 A 
ATOM     33  H   UNL     1      46.697   2.327  16.877  0.00  0.00    +0.000 HD
ENDBRANCH  20  23
ENDBRANCH   2  19
TORSDOF 7
ENDMDL
MODEL 2
REMARK VINA RESULT:    -8.613      1.259      1.452
REMARK INTER + INTRA:         -13.005
REMARK INTER:                 -11.548
REMARK INTRA:                  -1.457
REMARK UNBOUND:                -0.867
REMARK  Name = 
REMARK  8 active torsions:
REMARK  status: ('A' for Active; 'I' for Inactive)
REMARK    1  A    between atoms: C_1  and  C_2
REMARK    2  A    between atoms: C_2  and  N_3
REMARK    3  A    between atoms: C_2  and  C_16
REMARK    4  A    between atoms: C_4  and  C_6
REMARK    5  A    between atoms: C_19  and  C_20
REMARK    6  A    between atoms: C_20  and  N_21
REMARK    7  A    between atoms: N_21  and  C_22
REMARK    8  A    between atoms: C_22  and  C_23
REMARK                            x       y       z     vdW  Elec       q    Type
REMARK                         _______ _______ _______ _____ _____    ______ ____
ROOT
ATOM      1  C   UNL     1      48.597   7.867  11.764  0.00  0.00    +0.000 C 
ATOM      2  C   UNL     1      47.673   7.306  12.854  0.00  0.00    +0.000 C 
ENDROOT
BRANCH   2   3
ATOM      3  C   UNL     1      46.671   6.289  12.332  0.00  0.00    +0.000 A 
ATOM      4  C   UNL     1      46.400   5.134  13.081  0.00  0.00    +0.000 A 
ATOM      5  C   UNL     1      45.451   4.205  12.644  0.00  0.00    +0.000 A 
ATOM      6  C   UNL     1      44.747   4.409  11.448  0.00  0.00    +0.000 A 
ATOM      7  C   UNL     1      45.060   5.528  10.670  0.00  0.00    +0.000 A 
ATOM      8  C   UNL     1      46.021   6.445  11.099  0.00  0.00    +0.000 A 
BRANCH   6   9
ATOM      9  C   UNL     1      43.661   3.455  11.010  0.00  0.00    +0.000 C 
BRANCH   9  10
ATOM     10  N   UNL     1      43.806   3.146   9.590  0.00  0.00    +0.000 NA
ATOM     11  H   UNL     1      44.307   3.912   9.139  0.00  0.00    +0.000 HD
BRANCH  10  12
ATOM     12  C   UNL     1      44.573   1.914   9.378  0.00  0.00    +0.000 C 
BRANCH  12  13
ATOM     13  C   UNL     1      45.662   2.108   8.340  0.00  0.00    +0.000 A 
ATOM     14  C   UNL     1      45.834   3.349   7.726  0.00  0.00    +0.000 A 
ATOM     15  C   UNL     1      46.866   3.511   6.807  0.00  0.00    +0.000 A 
ATOM     16  C   UNL     1      47.694   2.434   6.519  0.00  0.00    +0.000 A 
ATOM     17  C   UNL     1      47.453   1.234   7.165  0.00  0.00    +0.000 A 
ATOM     18  N   UNL     1      46.463   1.046   8.066  0.00  0.00    +0.000 NA
ENDBRANCH  12  13
ENDBRANCH  10  12
ENDBRANCH   9  10
ENDBRANCH   6   9
ENDBRANCH   2   3
BRANCH   2  19
ATOM     19  N   UNL     1      48.445   6.703  13.920  0.00  0.00    +0.000 N 
ATOM     20  C   UNL     1      48.770   7.372  15.071  0.00  0.00    +0.000 C 
ATOM     21  O   UNL     1      48.323   8.483  15.343  0.00  0.00    +0.000 OA
ATOM     22  H   UNL     1      48.949   5.857  13.679  0.00  0.00    +0.000 HD
BRANCH  20  23
ATOM     23  C   UNL     1      49.657   6.658  15.992  0.00  0.00    +0.000 A 
ATOM     24  C   UNL     1      50.924   7.152  16.266  0.00  0.00    +0.000 A 
ATOM     25  S   UNL     1      51.825   6.163  17.327  0.00  0.00    +0.000 S 
ATOM     26  C   UNL     1      50.566   5.020  17.417  0.00  0.00    +0.000 A 
ATOM     27  N   UNL     1      50.711   3.869  18.128  0.00  0.00    +0.000 NA
ATOM     28  C   UNL     1      49.692   3.077  18.074  0.00  0.00    +0.000 A 
ATOM     29  N   UNL     1      48.532   3.338  17.396  0.00  0.00    +0.000 N 
ATOM     30  C   UNL     1      48.310   4.517  16.720  0.00  0.00    +0.000 A 
ATOM     31  O   UNL     1      47.220   4.768  16.213  0.00  0.00    +0.000 OA
ATOM     32  C   UNL     1      49.456   5.409  16.695  0.00  0.00    +0.000 A 
ATOM     33  H   UNL     1      47.758   2.693  17.432  0.00  0.00    +0.000 HD
ENDBRANCH  20  23
ENDBRANCH   2  19
TORSDOF 7
ENDMDL
MODEL 3
REMARK VINA RESULT:    -8.393      1.414      1.555
REMARK INTER + INTRA:         -12.695
REMARK INTER:                 -11.602
REMARK INTRA:                  -1.093
REMARK UNBOUND:                -0.867
REMARK  Name = 
REMARK  8 active torsions:
REMARK  status: ('A' for Active; 'I' for Inactive)
REMARK    1  A    between atoms: C_1  and  C_2
REMARK    2  A    between atoms: C_2  and  N_3
REMARK    3  A    between atoms: C_2  and  C_16
REMARK    4  A    between atoms: C_4  and  C_6
REMARK    5  A    between atoms: C_19  and  C_20
REMARK    6  A    between atoms: C_20  and  N_21
REMARK    7  A    between atoms: N_21  and  C_22
REMARK    8  A    between atoms: C_22  and  C_23
REMARK                            x       y       z     vdW  Elec       q    Type
REMARK                         _______ _______ _______ _____ _____    ______ ____
ROOT
ATOM      1  C   UNL     1      49.131   6.946  12.560  0.00  0.00    +0.000 C 
ATOM      2  C   UNL     1      47.755   7.281  13.152  0.00  0.00    +0.000 C 
ENDROOT
BRANCH   2   3
ATOM      3  C   UNL     1      46.647   6.361  12.663  0.00  0.00    +0.000 A 
ATOM      4  C   UNL     1      46.253   6.407  11.316  0.00  0.00    +0.000 A 
ATOM      5  C   UNL     1      45.268   5.540  10.832  0.00  0.00    +0.000 A 
ATOM      6  C   UNL     1      44.655   4.608  11.681  0.00  0.00    +0.000 A 
ATOM      7  C   UNL     1      45.003   4.604  13.035  0.00  0.00    +0.000 A 
ATOM      8  C   UNL     1      45.974   5.481  13.521  0.00  0.00    +0.000 A 
BRANCH   6   9
ATOM      9  C   UNL     1      43.650   3.612  11.148  0.00  0.00    +0.000 C 
BRANCH   9  10
ATOM     10  N   UNL     1      43.896   3.356   9.733  0.00  0.00    +0.000 NA
ATOM     11  H   UNL     1      44.504   4.092   9.369  0.00  0.00    +0.000 HD
BRANCH  10  12
ATOM     12  C   UNL     1      44.566   2.069   9.522  0.00  0.00    +0.000 C 
BRANCH  12  13
ATOM     13  C   UNL     1      45.607   2.156   8.422  0.00  0.00    +0.000 A 
ATOM     14  C   UNL     1      45.813   3.358   7.743  0.00  0.00    +0.000 A 
ATOM     15  C   UNL     1      46.802   3.422   6.766  0.00  0.00    +0.000 A 
ATOM     16  C   UNL     1      47.554   2.288   6.487  0.00  0.00    +0.000 A 
ATOM     17  C   UNL     1      47.283   1.133   7.199  0.00  0.00    +0.000 A 
ATOM     18  N   UNL     1      46.334   1.040   8.157  0.00  0.00    +0.000 NA
ENDBRANCH  12  13
ENDBRANCH  10  12
ENDBRANCH   9  10
ENDBRANCH   6   9
ENDBRANCH   2   3
BRANCH   2  19
ATOM     19  N   UNL     1      47.797   7.241  14.599  0.00  0.00    +0.000 N 
ATOM     20  C   UNL     1      48.618   8.050  15.340  0.00  0.00    +0.000 C 
ATOM     21  O   UNL     1      49.281   8.956  14.845  0.00  0.00    +0.000 OA
ATOM     22  H   UNL     1      47.383   6.422  15.032  0.00  0.00    +0.000 HD
BRANCH  20  23
ATOM     23  C   UNL     1      48.624   7.797  16.784  0.00  0.00    +0.000 A 
ATOM     24  C   UNL     1      48.597   8.857  17.678  0.00  0.00    +0.000 A 
ATOM     25  S   UNL     1      48.651   8.367  19.313  0.00  0.00    +0.000 S 
ATOM     26  C   UNL     1      48.759   6.726  18.874  0.00  0.00    +0.000 A 
ATOM     27  N   UNL     1      48.899   5.755  19.816  0.00  0.00    +0.000 NA
ATOM     28  C   UNL     1      49.009   4.559  19.338  0.00  0.00    +0.000 A 
ATOM     29  N   UNL     1      48.968   4.242  18.007  0.00  0.00    +0.000 N 
ATOM     30  C   UNL     1      48.759   5.180  17.021  0.00  0.00    +0.000 A 
ATOM     31  O   UNL     1      48.620   4.851  15.846  0.00  0.00    +0.000 OA
ATOM     32  C   UNL     1      48.700   6.546  17.507  0.00  0.00    +0.000 A 
ATOM     33  H   UNL     1      49.017   3.281  17.705  0.00  0.00    +0.000 HD
ENDBRANCH  20  23
ENDBRANCH   2  19
TORSDOF 7
ENDMDL
MODEL 4
REMARK VINA RESULT:    -8.287      1.893      2.605
REMARK INTER + INTRA:         -12.545
REMARK INTER:                 -11.438
REMARK INTRA:                  -1.108
REMARK UNBOUND:                -0.867
REMARK  Name = 
REMARK  8 active torsions:
REMARK  status: ('A' for Active; 'I' for Inactive)
REMARK    1  A    between atoms: C_1  and  C_2
REMARK    2  A    between atoms: C_2  and  N_3
REMARK    3  A    between atoms: C_2  and  C_16
REMARK    4  A    between atoms: C_4  and  C_6
REMARK    5  A    between atoms: C_19  and  C_20
REMARK    6  A    between atoms: C_20  and  N_21
REMARK    7  A    between atoms: N_21  and  C_22
REMARK    8  A    between atoms: C_22  and  C_23
REMARK                            x       y       z     vdW  Elec       q    Type
REMARK                         _______ _______ _______ _____ _____    ______ ____
ROOT
ATOM      1  C   UNL     1      49.031   7.021  12.615  0.00  0.00    +0.000 C 
ATOM      2  C   UNL     1      47.780   6.797  13.476  0.00  0.00    +0.000 C 
ENDROOT
BRANCH   2   3
ATOM      3  C   UNL     1      46.699   5.993  12.772  0.00  0.00    +0.000 A 
ATOM      4  C   UNL     1      46.104   4.905  13.430  0.00  0.00    +0.000 A 
ATOM      5  C   UNL     1      45.077   4.177  12.821  0.00  0.00    +0.000 A 
ATOM      6  C   UNL     1      44.618   4.520  11.541  0.00  0.00    +0.000 A 
ATOM      7  C   UNL     1      45.252   5.565  10.860  0.00  0.00    +0.000 A 
ATOM      8  C   UNL     1      46.289   6.279  11.462  0.00  0.00    +0.000 A 
BRANCH   6   9
ATOM      9  C   UNL     1      43.454   3.793  10.909  0.00  0.00    +0.000 C 
BRANCH   9  10
ATOM     10  N   UNL     1      43.774   3.431   9.532  0.00  0.00    +0.000 NA
ATOM     11  H   UNL     1      44.364   4.161   9.131  0.00  0.00    +0.000 HD
BRANCH  10  12
ATOM     12  C   UNL     1      44.509   2.164   9.461  0.00  0.00    +0.000 C 
BRANCH  12  13
ATOM     13  C   UNL     1      45.590   2.205   8.397  0.00  0.00    +0.000 A 
ATOM     14  C   UNL     1      45.830   3.382   7.685  0.00  0.00    +0.000 A 
ATOM     15  C   UNL     1      46.854   3.405   6.743  0.00  0.00    +0.000 A 
ATOM     16  C   UNL     1      47.606   2.257   6.530  0.00  0.00    +0.000 A 
ATOM     17  C   UNL     1      47.300   1.129   7.271  0.00  0.00    +0.000 A 
ATOM     18  N   UNL     1      46.316   1.076   8.197  0.00  0.00    +0.000 NA
ENDBRANCH  12  13
ENDBRANCH  10  12
ENDBRANCH   9  10
ENDBRANCH   6   9
ENDBRANCH   2   3
BRANCH   2  19
ATOM     19  N   UNL     1      48.125   6.138  14.719  0.00  0.00    +0.000 N 
ATOM     20  C   UNL     1      48.762   6.781  15.747  0.00  0.00    +0.000 C 
ATOM     21  O   UNL     1      48.970   7.990  15.747  0.00  0.00    +0.000 OA
ATOM     22  H   UNL     1      48.104   5.124  14.703  0.00  0.00    +0.000 HD
BRANCH  20  23
ATOM     23  C   UNL     1      49.144   5.938  16.883  0.00  0.00    +0.000 A 
ATOM     24  C   UNL     1      48.170   5.313  17.648  0.00  0.00    +0.000 A 
ATOM     25  S   UNL     1      48.804   4.409  18.950  0.00  0.00    +0.000 S 
ATOM     26  C   UNL     1      50.398   4.862  18.559  0.00  0.00    +0.000 A 
ATOM     27  N   UNL     1      51.448   4.472  19.330  0.00  0.00    +0.000 NA
ATOM     28  C   UNL     1      52.594   4.923  18.938  0.00  0.00    +0.000 A 
ATOM     29  N   UNL     1      52.791   5.708  17.833  0.00  0.00    +0.000 N 
ATOM     30  C   UNL     1      51.770   6.071  16.983  0.00  0.00    +0.000 A 
ATOM     31  O   UNL     1      51.993   6.684  15.943  0.00  0.00    +0.000 OA
ATOM     32  C   UNL     1      50.454   5.645  17.424  0.00  0.00    +0.000 A 
ATOM     33  H   UNL     1      53.719   5.989  17.560  0.00  0.00    +0.000 HD
ENDBRANCH  20  23
ENDBRANCH   2  19
TORSDOF 7
ENDMDL
MODEL 5
REMARK VINA RESULT:    -8.280      1.954      2.417
REMARK INTER + INTRA:         -12.536
REMARK INTER:                 -11.636
REMARK INTRA:                  -0.900
REMARK UNBOUND:                -0.867
REMARK  Name = 
REMARK  8 active torsions:
REMARK  status: ('A' for Active; 'I' for Inactive)
REMARK    1  A    between atoms: C_1  and  C_2
REMARK    2  A    between atoms: C_2  and  N_3
REMARK    3  A    between atoms: C_2  and  C_16
REMARK    4  A    between atoms: C_4  and  C_6
REMARK    5  A    between atoms: C_19  and  C_20
REMARK    6  A    between atoms: C_20  and  N_21
REMARK    7  A    between atoms: N_21  and  C_22
REMARK    8  A    between atoms: C_22  and  C_23
REMARK                            x       y       z     vdW  Elec       q    Type
REMARK                         _______ _______ _______ _____ _____    ______ ____
ROOT
ATOM      1  C   UNL     1      49.083   7.038  12.867  0.00  0.00    +0.000 C 
ATOM      2  C   UNL     1      47.764   6.917  13.644  0.00  0.00    +0.000 C 
ENDROOT
BRANCH   2   3
ATOM      3  C   UNL     1      46.691   6.143  12.895  0.00  0.00    +0.000 A 
ATOM      4  C   UNL     1      46.007   5.103  13.543  0.00  0.00    +0.000 A 
ATOM      5  C   UNL     1      44.985   4.405  12.890  0.00  0.00    +0.000 A 
ATOM      6  C   UNL     1      44.622   4.732  11.575  0.00  0.00    +0.000 A 
ATOM      7  C   UNL     1      45.345   5.726  10.908  0.00  0.00    +0.000 A 
ATOM      8  C   UNL     1      46.376   6.409  11.555  0.00  0.00    +0.000 A 
BRANCH   6   9
ATOM      9  C   UNL     1      43.466   4.040  10.892  0.00  0.00    +0.000 C 
BRANCH   9  10
ATOM     10  N   UNL     1      43.849   3.632   9.544  0.00  0.00    +0.000 NA
ATOM     11  H   UNL     1      44.472   4.340   9.153  0.00  0.00    +0.000 HD
BRANCH  10  12
ATOM     12  C   UNL     1      44.563   2.351   9.547  0.00  0.00    +0.000 C 
BRANCH  12  13
ATOM     13  C   UNL     1      45.582   2.279   8.425  0.00  0.00    +0.000 A 
ATOM     14  C   UNL     1      45.822   3.394   7.621  0.00  0.00    +0.000 A 
ATOM     15  C   UNL     1      46.791   3.314   6.625  0.00  0.00    +0.000 A 
ATOM     16  C   UNL     1      47.489   2.126   6.452  0.00  0.00    +0.000 A 
ATOM     17  C   UNL     1      47.186   1.062   7.285  0.00  0.00    +0.000 A 
ATOM     18  N   UNL     1      46.256   1.111   8.265  0.00  0.00    +0.000 NA
ENDBRANCH  12  13
ENDBRANCH  10  12
ENDBRANCH   9  10
ENDBRANCH   6   9
ENDBRANCH   2   3
BRANCH   2  19
ATOM     19  N   UNL     1      47.984   6.294  14.932  0.00  0.00    +0.000 N 
ATOM     20  C   UNL     1      48.691   6.898  15.938  0.00  0.00    +0.000 C 
ATOM     21  O   UNL     1      49.079   8.061  15.871  0.00  0.00    +0.000 OA
ATOM     22  H   UNL     1      47.812   5.295  14.977  0.00  0.00    +0.000 HD
BRANCH  20  23
ATOM     23  C   UNL     1      48.922   6.081  17.132  0.00  0.00    +0.000 A 
ATOM     24  C   UNL     1      49.593   4.871  17.031  0.00  0.00    +0.000 A 
ATOM     25  S   UNL     1      49.729   4.043  18.518  0.00  0.00    +0.000 S 
ATOM     26  C   UNL     1      48.855   5.255  19.334  0.00  0.00    +0.000 A 
ATOM     27  N   UNL     1      48.554   5.135  20.655  0.00  0.00    +0.000 NA
ATOM     28  C   UNL     1      47.851   6.109  21.133  0.00  0.00    +0.000 A 
ATOM     29  N   UNL     1      47.442   7.203  20.419  0.00  0.00    +0.000 N 
ATOM     30  C   UNL     1      47.781   7.404  19.100  0.00  0.00    +0.000 A 
ATOM     31  O   UNL     1      47.491   8.445  18.518  0.00  0.00    +0.000 OA
ATOM     32  C   UNL     1      48.511   6.300  18.502  0.00  0.00    +0.000 A 
ATOM     33  H   UNL     1      46.932   7.949  20.866  0.00  0.00    +0.000 HD
ENDBRANCH  20  23
ENDBRANCH   2  19
TORSDOF 7
ENDMDL
MODEL 6
REMARK VINA RESULT:    -7.966      2.597      3.226
REMARK INTER + INTRA:         -12.093
REMARK INTER:                 -10.950
REMARK INTRA:                  -1.142
REMARK UNBOUND:                -0.867
REMARK  Name = 
REMARK  8 active torsions:
REMARK  status: ('A' for Active; 'I' for Inactive)
REMARK    1  A    between atoms: C_1  and  C_2
REMARK    2  A    between atoms: C_2  and  N_3
REMARK    3  A    between atoms: C_2  and  C_16
REMARK    4  A    between atoms: C_4  and  C_6
REMARK    5  A    between atoms: C_19  and  C_20
REMARK    6  A    between atoms: C_20  and  N_21
REMARK    7  A    between atoms: N_21  and  C_22
REMARK    8  A    between atoms: C_22  and  C_23
REMARK                            x       y       z     vdW  Elec       q    Type
REMARK                         _______ _______ _______ _____ _____    ______ ____
ROOT
ATOM      1  C   UNL     1      49.557   8.200  14.734  0.00  0.00    +0.000 C 
ATOM      2  C   UNL     1      48.806   7.036  15.396  0.00  0.00    +0.000 C 
ENDROOT
BRANCH   2   3
ATOM      3  C   UNL     1      47.896   6.282  14.439  0.00  0.00    +0.000 A 
ATOM      4  C   UNL     1      47.294   5.084  14.853  0.00  0.00    +0.000 A 
ATOM      5  C   UNL     1      46.419   4.396  14.007  0.00  0.00    +0.000 A 
ATOM      6  C   UNL     1      46.124   4.889  12.728  0.00  0.00    +0.000 A 
ATOM      7  C   UNL     1      46.771   6.049  12.291  0.00  0.00    +0.000 A 
ATOM      8  C   UNL     1      47.658   6.725  13.130  0.00  0.00    +0.000 A 
BRANCH   6   9
ATOM      9  C   UNL     1      45.116   4.197  11.839  0.00  0.00    +0.000 C 
BRANCH   9  10
ATOM     10  N   UNL     1      44.879   4.989  10.636  0.00  0.00    +0.000 NA
ATOM     11  H   UNL     1      45.778   5.311  10.275  0.00  0.00    +0.000 HD
BRANCH  10  12
ATOM     12  C   UNL     1      44.225   4.200   9.586  0.00  0.00    +0.000 C 
BRANCH  12  13
ATOM     13  C   UNL     1      45.238   3.470   8.726  0.00  0.00    +0.000 A 
ATOM     14  C   UNL     1      45.420   2.093   8.869  0.00  0.00    +0.000 A 
ATOM     15  C   UNL     1      46.326   1.440   8.039  0.00  0.00    +0.000 A 
ATOM     16  C   UNL     1      47.032   2.174   7.096  0.00  0.00    +0.000 A 
ATOM     17  C   UNL     1      46.802   3.537   7.022  0.00  0.00    +0.000 A 
ATOM     18  N   UNL     1      45.924   4.199   7.809  0.00  0.00    +0.000 NA
ENDBRANCH  12  13
ENDBRANCH  10  12
ENDBRANCH   9  10
ENDBRANCH   6   9
ENDBRANCH   2   3
BRANCH   2  19
ATOM     19  N   UNL     1      49.736   6.103  15.998  0.00  0.00    +0.000 N 
ATOM     20  C   UNL     1      49.909   5.998  17.352  0.00  0.00    +0.000 C 
ATOM     21  O   UNL     1      49.199   6.589  18.161  0.00  0.00    +0.000 OA
ATOM     22  H   UNL     1      50.433   5.709  15.376  0.00  0.00    +0.000 HD
BRANCH  20  23
ATOM     23  C   UNL     1      50.974   5.091  17.788  0.00  0.00    +0.000 A 
ATOM     24  C   UNL     1      52.111   5.594  18.403  0.00  0.00    +0.000 A 
ATOM     25  S   UNL     1      53.257   4.392  18.800  0.00  0.00    +0.000 S 
ATOM     26  C   UNL     1      52.288   3.167  18.121  0.00  0.00    +0.000 A 
ATOM     27  N   UNL     1      52.718   1.878  18.073  0.00  0.00    +0.000 NA
ATOM     28  C   UNL     1      51.898   1.064  17.494  0.00  0.00    +0.000 A 
ATOM     29  N   UNL     1      50.678   1.414  16.980  0.00  0.00    +0.000 N 
ATOM     30  C   UNL     1      50.170   2.691  17.067  0.00  0.00    +0.000 A 
ATOM     31  O   UNL     1      49.029   2.951  16.693  0.00  0.00    +0.000 OA
ATOM     32  C   UNL     1      51.087   3.655  17.647  0.00  0.00    +0.000 A 
ATOM     33  H   UNL     1      50.069   0.719  16.579  0.00  0.00    +0.000 HD
ENDBRANCH  20  23
ENDBRANCH   2  19
TORSDOF 7
ENDMDL
MODEL 7
REMARK VINA RESULT:    -7.899      2.487      3.235
REMARK INTER + INTRA:         -11.999
REMARK INTER:                 -10.714
REMARK INTRA:                  -1.285
REMARK UNBOUND:                -0.867
REMARK  Name = 
REMARK  8 active torsions:
REMARK  status: ('A' for Active; 'I' for Inactive)
REMARK    1  A    between atoms: C_1  and  C_2
REMARK    2  A    between atoms: C_2  and  N_3
REMARK    3  A    between atoms: C_2  and  C_16
REMARK    4  A    between atoms: C_4  and  C_6
REMARK    5  A    between atoms: C_19  and  C_20
REMARK    6  A    between atoms: C_20  and  N_21
REMARK    7  A    between atoms: N_21  and  C_22
REMARK    8  A    between atoms: C_22  and  C_23
REMARK                            x       y       z     vdW  Elec       q    Type
REMARK                         _______ _______ _______ _____ _____    ______ ____
ROOT
ATOM      1  C   UNL     1      47.535   3.513  15.890  0.00  0.00    +0.000 C 
ATOM      2  C   UNL     1      47.704   4.664  14.888  0.00  0.00    +0.000 C 
ENDROOT
BRANCH   2   3
ATOM      3  C   UNL     1      46.654   4.666  13.788  0.00  0.00    +0.000 A 
ATOM      4  C   UNL     1      46.207   3.448  13.254  0.00  0.00    +0.000 A 
ATOM      5  C   UNL     1      45.210   3.422  12.273  0.00  0.00    +0.000 A 
ATOM      6  C   UNL     1      44.635   4.612  11.805  0.00  0.00    +0.000 A 
ATOM      7  C   UNL     1      45.124   5.829  12.292  0.00  0.00    +0.000 A 
ATOM      8  C   UNL     1      46.131   5.854  13.258  0.00  0.00    +0.000 A 
BRANCH   6   9
ATOM      9  C   UNL     1      43.501   4.591  10.807  0.00  0.00    +0.000 C 
BRANCH   9  10
ATOM     10  N   UNL     1      43.820   3.692   9.702  0.00  0.00    +0.000 NA
ATOM     11  H   UNL     1      42.960   3.484   9.192  0.00  0.00    +0.000 HD
BRANCH  10  12
ATOM     12  C   UNL     1      44.769   4.299   8.764  0.00  0.00    +0.000 C 
BRANCH  12  13
ATOM     13  C   UNL     1      45.618   3.250   8.072  0.00  0.00    +0.000 A 
ATOM     14  C   UNL     1      46.359   3.582   6.937  0.00  0.00    +0.000 A 
ATOM     15  C   UNL     1      47.162   2.612   6.345  0.00  0.00    +0.000 A 
ATOM     16  C   UNL     1      47.200   1.337   6.893  0.00  0.00    +0.000 A 
ATOM     17  C   UNL     1      46.429   1.084   8.015  0.00  0.00    +0.000 A 
ATOM     18  N   UNL     1      45.645   2.007   8.617  0.00  0.00    +0.000 NA
ENDBRANCH  12  13
ENDBRANCH  10  12
ENDBRANCH   9  10
ENDBRANCH   6   9
ENDBRANCH   2   3
BRANCH   2  19
ATOM     19  N   UNL     1      47.679   5.942  15.568  0.00  0.00    +0.000 N 
ATOM     20  C   UNL     1      48.817   6.628  15.900  0.00  0.00    +0.000 C 
ATOM     21  O   UNL     1      49.935   6.278  15.532  0.00  0.00    +0.000 OA
ATOM     22  H   UNL     1      46.802   6.191  16.012  0.00  0.00    +0.000 HD
BRANCH  20  23
ATOM     23  C   UNL     1      48.617   7.845  16.691  0.00  0.00    +0.000 A 
ATOM     24  C   UNL     1      48.915   9.087  16.149  0.00  0.00    +0.000 A 
ATOM     25  S   UNL     1      48.658  10.381  17.232  0.00  0.00    +0.000 S 
ATOM     26  C   UNL     1      48.184   9.317  18.474  0.00  0.00    +0.000 A 
ATOM     27  N   UNL     1      47.881   9.780  19.717  0.00  0.00    +0.000 NA
ATOM     28  C   UNL     1      47.579   8.857  20.570  0.00  0.00    +0.000 A 
ATOM     29  N   UNL     1      47.527   7.518  20.290  0.00  0.00    +0.000 N 
ATOM     30  C   UNL     1      47.756   7.008  19.032  0.00  0.00    +0.000 A 
ATOM     31  O   UNL     1      47.597   5.816  18.788  0.00  0.00    +0.000 OA
ATOM     32  C   UNL     1      48.169   8.002  18.058  0.00  0.00    +0.000 A 
ATOM     33  H   UNL     1      47.240   6.855  20.994  0.00  0.00    +0.000 HD
ENDBRANCH  20  23
ENDBRANCH   2  19
TORSDOF 7
ENDMDL
MODEL 8
REMARK VINA RESULT:    -7.797      2.159      3.156
REMARK INTER + INTRA:         -11.855
REMARK INTER:                 -10.503
REMARK INTRA:                  -1.352
REMARK UNBOUND:                -0.867
REMARK  Name = 
REMARK  8 active torsions:
REMARK  status: ('A' for Active; 'I' for Inactive)
REMARK    1  A    between atoms: C_1  and  C_2
REMARK    2  A    between atoms: C_2  and  N_3
REMARK    3  A    between atoms: C_2  and  C_16
REMARK    4  A    between atoms: C_4  and  C_6
REMARK    5  A    between atoms: C_19  and  C_20
REMARK    6  A    between atoms: C_20  and  N_21
REMARK    7  A    between atoms: N_21  and  C_22
REMARK    8  A    between atoms: C_22  and  C_23
REMARK                            x       y       z     vdW  Elec       q    Type
REMARK                         _______ _______ _______ _____ _____    ______ ____
ROOT
ATOM      1  C   UNL     1      47.571   8.773  12.240  0.00  0.00    +0.000 C 
ATOM      2  C   UNL     1      47.004   7.825  13.306  0.00  0.00    +0.000 C 
ENDROOT
BRANCH   2   3
ATOM      3  C   UNL     1      46.194   6.678  12.723  0.00  0.00    +0.000 A 
ATOM      4  C   UNL     1      45.885   5.569  13.526  0.00  0.00    +0.000 A 
ATOM      5  C   UNL     1      45.104   4.522  13.028  0.00  0.00    +0.000 A 
ATOM      6  C   UNL     1      44.611   4.559  11.715  0.00  0.00    +0.000 A 
ATOM      7  C   UNL     1      44.969   5.634  10.896  0.00  0.00    +0.000 A 
ATOM      8  C   UNL     1      45.764   6.669  11.389  0.00  0.00    +0.000 A 
BRANCH   6   9
ATOM      9  C   UNL     1      43.697   3.473  11.195  0.00  0.00    +0.000 C 
BRANCH   9  10
ATOM     10  N   UNL     1      43.850   3.337   9.749  0.00  0.00    +0.000 NA
ATOM     11  H   UNL     1      44.471   4.077   9.416  0.00  0.00    +0.000 HD
BRANCH  10  12
ATOM     12  C   UNL     1      44.445   2.047   9.385  0.00  0.00    +0.000 C 
BRANCH  12  13
ATOM     13  C   UNL     1      45.555   2.213   8.366  0.00  0.00    +0.000 A 
ATOM     14  C   UNL     1      45.735   3.435   7.714  0.00  0.00    +0.000 A 
ATOM     15  C   UNL     1      46.786   3.573   6.813  0.00  0.00    +0.000 A 
ATOM     16  C   UNL     1      47.625   2.492   6.580  0.00  0.00    +0.000 A 
ATOM     17  C   UNL     1      47.376   1.312   7.259  0.00  0.00    +0.000 A 
ATOM     18  N   UNL     1      46.368   1.148   8.145  0.00  0.00    +0.000 NA
ENDBRANCH  12  13
ENDBRANCH  10  12
ENDBRANCH   9  10
ENDBRANCH   6   9
ENDBRANCH   2   3
BRANCH   2  19
ATOM     19  N   UNL     1      48.067   7.283  14.127  0.00  0.00    +0.000 N 
ATOM     20  C   UNL     1      48.506   7.895  15.271  0.00  0.00    +0.000 C 
ATOM     21  O   UNL     1      47.948   8.874  15.757  0.00  0.00    +0.000 OA
ATOM     22  H   UNL     1      48.643   6.570  13.693  0.00  0.00    +0.000 HD
BRANCH  20  23
ATOM     23  C   UNL     1      49.668   7.277  15.916  0.00  0.00    +0.000 A 
ATOM     24  C   UNL     1      49.522   6.599  17.117  0.00  0.00    +0.000 A 
ATOM     25  S   UNL     1      50.991   5.986  17.734  0.00  0.00    +0.000 S 
ATOM     26  C   UNL     1      51.874   6.647  16.438  0.00  0.00    +0.000 A 
ATOM     27  N   UNL     1      53.229   6.539  16.384  0.00  0.00    +0.000 NA
ATOM     28  C   UNL     1      53.771   7.124  15.366  0.00  0.00    +0.000 A 
ATOM     29  N   UNL     1      53.082   7.785  14.385  0.00  0.00    +0.000 N 
ATOM     30  C   UNL     1      51.707   7.862  14.359  0.00  0.00    +0.000 A 
ATOM     31  O   UNL     1      51.114   8.368  13.410  0.00  0.00    +0.000 OA
ATOM     32  C   UNL     1      51.060   7.279  15.520  0.00  0.00    +0.000 A 
ATOM     33  H   UNL     1      53.565   8.182  13.594  0.00  0.00    +0.000 HD
ENDBRANCH  20  23
ENDBRANCH   2  19
TORSDOF 7
ENDMDL
MODEL 9
REMARK VINA RESULT:    -7.619      3.202      4.135
REMARK INTER + INTRA:         -11.604
REMARK INTER:                 -10.431
REMARK INTRA:                  -1.173
REMARK UNBOUND:                -0.867
REMARK  Name = 
REMARK  8 active torsions:
REMARK  status: ('A' for Active; 'I' for Inactive)
REMARK    1  A    between atoms: C_1  and  C_2
REMARK    2  A    between atoms: C_2  and  N_3
REMARK    3  A    between atoms: C_2  and  C_16
REMARK    4  A    between atoms: C_4  and  C_6
REMARK    5  A    between atoms: C_19  and  C_20
REMARK    6  A    between atoms: C_20  and  N_21
REMARK    7  A    between atoms: N_21  and  C_22
REMARK    8  A    between atoms: C_22  and  C_23
REMARK                            x       y       z     vdW  Elec       q    Type
REMARK                         _______ _______ _______ _____ _____    ______ ____
ROOT
ATOM      1  C   UNL     1      45.411   9.915  12.031  0.00  0.00    +0.000 C 
ATOM      2  C   UNL     1      46.051   8.828  12.907  0.00  0.00    +0.000 C 
ENDROOT
BRANCH   2   3
ATOM      3  C   UNL     1      45.608   7.420  12.541  0.00  0.00    +0.000 A 
ATOM      4  C   UNL     1      46.064   6.331  13.300  0.00  0.00    +0.000 A 
ATOM      5  C   UNL     1      45.636   5.031  13.012  0.00  0.00    +0.000 A 
ATOM      6  C   UNL     1      44.741   4.789  11.960  0.00  0.00    +0.000 A 
ATOM      7  C   UNL     1      44.335   5.865  11.165  0.00  0.00    +0.000 A 
ATOM      8  C   UNL     1      44.777   7.160  11.443  0.00  0.00    +0.000 A 
BRANCH   6   9
ATOM      9  C   UNL     1      44.208   3.400  11.693  0.00  0.00    +0.000 C 
BRANCH   9  10
ATOM     10  N   UNL     1      45.128   2.665  10.830  0.00  0.00    +0.000 NA
ATOM     11  H   UNL     1      45.376   1.788  11.290  0.00  0.00    +0.000 HD
BRANCH  10  12
ATOM     12  C   UNL     1      44.519   2.343   9.536  0.00  0.00    +0.000 C 
BRANCH  12  13
ATOM     13  C   UNL     1      45.557   2.276   8.432  0.00  0.00    +0.000 A 
ATOM     14  C   UNL     1      45.812   3.396   7.638  0.00  0.00    +0.000 A 
ATOM     15  C   UNL     1      46.797   3.321   6.659  0.00  0.00    +0.000 A 
ATOM     16  C   UNL     1      47.498   2.133   6.491  0.00  0.00    +0.000 A 
ATOM     17  C   UNL     1      47.180   1.066   7.313  0.00  0.00    +0.000 A 
ATOM     18  N   UNL     1      46.233   1.109   8.277  0.00  0.00    +0.000 NA
ENDBRANCH  12  13
ENDBRANCH  10  12
ENDBRANCH   9  10
ENDBRANCH   6   9
ENDBRANCH   2   3
BRANCH   2  19
ATOM     19  N   UNL     1      47.496   8.901  12.839  0.00  0.00    +0.000 N 
ATOM     20  C   UNL     1      48.285   9.030  13.951  0.00  0.00    +0.000 C 
ATOM     21  O   UNL     1      47.840   8.962  15.093  0.00  0.00    +0.000 OA
ATOM     22  H   UNL     1      47.887   9.105  11.926  0.00  0.00    +0.000 HD
BRANCH  20  23
ATOM     23  C   UNL     1      49.717   9.210  13.697  0.00  0.00    +0.000 A 
ATOM     24  C   UNL     1      50.451  10.116  14.448  0.00  0.00    +0.000 A 
ATOM     25  S   UNL     1      52.089  10.217  13.980  0.00  0.00    +0.000 S 
ATOM     26  C   UNL     1      51.858   9.087  12.728  0.00  0.00    +0.000 A 
ATOM     27  N   UNL     1      52.870   8.760  11.881  0.00  0.00    +0.000 NA
ATOM     28  C   UNL     1      52.540   7.922  10.954  0.00  0.00    +0.000 A 
ATOM     29  N   UNL     1      51.300   7.361  10.810  0.00  0.00    +0.000 N 
ATOM     30  C   UNL     1      50.263   7.607  11.683  0.00  0.00    +0.000 A 
ATOM     31  O   UNL     1      49.195   7.007  11.591  0.00  0.00    +0.000 OA
ATOM     32  C   UNL     1      50.567   8.598  12.699  0.00  0.00    +0.000 A 
ATOM     33  H   UNL     1      51.122   6.679  10.089  0.00  0.00    +0.000 HD
ENDBRANCH  20  23
ENDBRANCH   2  19
TORSDOF 7
ENDMDL
