MODEL 1
REMARK VINA RESULT:    -9.140      0.000      0.000
REMARK INTER + INTRA:         -12.642
REMARK INTER:                 -12.346
REMARK INTRA:                  -0.296
REMARK UNBOUND:                -0.296
REMARK  Name = 
REMARK  6 active torsions:
REMARK  status: ('A' for Active; 'I' for Inactive)
REMARK    1  A    between atoms: C_2  and  C_4
REMARK    2  A    between atoms: C_7  and  N_8
REMARK    3  A    between atoms: N_8  and  C_9
REMARK    4  A    between atoms: C_9  and  C_10
REMARK    5  A    between atoms: C_14  and  C_15
REMARK    6  A    between atoms: C_20  and  C_21
REMARK                            x       y       z     vdW  Elec       q    Type
REMARK                         _______ _______ _______ _____ _____    ______ ____
ROOT
ATOM      1  C   UNL     1      43.964   4.979  11.233  0.00  0.00    +0.000 C 
ATOM      2  C   UNL     1      42.990   3.887  11.674  0.00  0.00    +0.000 C 
ATOM      3  C   UNL     1      42.548   5.308  11.708  0.00  0.00    +0.000 C 
ENDROOT
BRANCH   1   4
ATOM      4  C   UNL     1      45.133   5.204  12.213  0.00  0.00    +0.000 A 
ATOM      5  C   UNL     1      45.441   4.265  13.198  0.00  0.00    +0.000 A 
ATOM      6  C   UNL     1      46.646   4.347  13.884  0.00  0.00    +0.000 A 
ATOM      7  C   UNL     1      47.511   5.391  13.596  0.00  0.00    +0.000 A 
ATOM      8  C   UNL     1      47.122   6.358  12.671  0.00  0.00    +0.000 A 
ATOM      9  N   UNL     1      45.957   6.265  11.983  0.00  0.00    +0.000 NA
BRANCH   8  10
ATOM     10  C   UNL     1      48.009   7.475  12.295  0.00  0.00    +0.000 A 
ATOM     11  N   UNL     1      49.314   7.096  12.117  0.00  0.00    +0.000 NA
ATOM     12  C   UNL     1      50.201   8.007  11.669  0.00  0.00    +0.000 A 
ATOM     13  C   UNL     1      49.869   9.312  11.385  0.00  0.00    +0.000 A 
ATOM     14  C   UNL     1      48.554   9.705  11.599  0.00  0.00    +0.000 A 
ATOM     15  C   UNL     1      47.595   8.789  12.082  0.00  0.00    +0.000 A 
BRANCH  15  16
ATOM     16  C   UNL     1      46.210   9.309  12.347  0.00  0.00    +0.000 C 
ATOM     17  F   UNL     1      45.611   8.946  13.510  0.00  0.00    +0.000 F 
ATOM     18  F   UNL     1      46.218  10.680  12.398  0.00  0.00    +0.000 F 
ATOM     19  F   UNL     1      45.337   9.009  11.343  0.00  0.00    +0.000 F 
ENDBRANCH  15  16
ENDBRANCH   8  10
ENDBRANCH   1   4
BRANCH   1  20
ATOM     20  N   UNL     1      44.265   5.199   9.783  0.00  0.00    +0.000 N 
ATOM     21  H   UNL     1      44.706   6.087   9.571  0.00  0.00    +0.000 HD
BRANCH  20  25
ATOM     22  C   UNL     1      46.294   2.125   7.930  0.00  0.00    +0.000 A 
ATOM     23  C   UNL     1      46.435   3.429   7.509  0.00  0.00    +0.000 A 
ATOM     24  N   UNL     1      45.753   4.438   8.083  0.00  0.00    +0.000 NA
ATOM     25  C   UNL     1      44.907   4.141   9.099  0.00  0.00    +0.000 A 
ATOM     26  C   UNL     1      44.768   2.811   9.499  0.00  0.00    +0.000 A 
ATOM     27  N   UNL     1      45.437   1.767   8.927  0.00  0.00    +0.000 NA
BRANCH  22  29
ATOM     28  N   UNL     1      46.889  -0.204   7.659  0.00  0.00    +0.000 N 
ATOM     29  C   UNL     1      47.147   1.087   7.298  0.00  0.00    +0.000 C 
ATOM     30  O   UNL     1      48.038   1.368   6.505  0.00  0.00    +0.000 OA
ATOM     31  H   UNL     1      47.479  -0.941   7.297  0.00  0.00    +0.000 HD
ATOM     32  H   UNL     1      46.171  -0.408   8.340  0.00  0.00    +0.000 HD
ENDBRANCH  22  29
ENDBRANCH  20  25
ENDBRANCH   1  20
TORSDOF 6
ENDMDL
MODEL 2
REMARK VINA RESULT:    -8.810      2.128      2.822
REMARK INTER + INTRA:         -12.196
REMARK INTER:                 -11.161
REMARK INTRA:                  -1.035
REMARK UNBOUND:                -0.296
REMARK  Name = 
REMARK  6 active torsions:
REMARK  status: ('A' for Active; 'I' for Inactive)
REMARK    1  A    between atoms: C_2  and  C_4
REMARK    2  A    between atoms: C_7  and  N_8
REMARK    3  A    between atoms: N_8  and  C_9
REMARK    4  A    between atoms: C_9  and  C_10
REMARK    5  A    between atoms: C_14  and  C_15
REMARK    6  A    between atoms: C_20  and  C_21
REMARK                            x       y       z     vdW  Elec       q    Type
REMARK                         _______ _______ _______ _____ _____    ______ ____
ROOT
ATOM      1  C   UNL     1      44.589   5.051  11.494  0.00  0.00    +0.000 C 
ATOM      2  C   UNL     1      45.270   3.937  12.287  0.00  0.00    +0.000 C 
ATOM      3  C   UNL     1      43.909   4.385  12.690  0.00  0.00    +0.000 C 
ENDROOT
BRANCH   1   4
ATOM      4  C   UNL     1      45.227   6.440  11.697  0.00  0.00    +0.000 A 
ATOM      5  C   UNL     1      44.530   7.608  11.386  0.00  0.00    +0.000 A 
ATOM      6  C   UNL     1      45.004   8.838  11.824  0.00  0.00    +0.000 A 
ATOM      7  C   UNL     1      46.191   8.882  12.539  0.00  0.00    +0.000 A 
ATOM      8  C   UNL     1      46.901   7.701  12.748  0.00  0.00    +0.000 A 
ATOM      9  N   UNL     1      46.426   6.498  12.341  0.00  0.00    +0.000 NA
BRANCH   8  10
ATOM     10  C   UNL     1      48.152   7.674  13.529  0.00  0.00    +0.000 A 
ATOM     11  N   UNL     1      47.965   7.327  14.841  0.00  0.00    +0.000 NA
ATOM     12  C   UNL     1      49.045   7.166  15.631  0.00  0.00    +0.000 A 
ATOM     13  C   UNL     1      50.338   7.338  15.192  0.00  0.00    +0.000 A 
ATOM     14  C   UNL     1      50.525   7.725  13.872  0.00  0.00    +0.000 A 
ATOM     15  C   UNL     1      49.423   7.921  13.013  0.00  0.00    +0.000 A 
BRANCH  15  16
ATOM     16  C   UNL     1      49.708   8.401  11.617  0.00  0.00    +0.000 C 
ATOM     17  F   UNL     1      49.189   9.597  11.241  0.00  0.00    +0.000 F 
ATOM     18  F   UNL     1      51.059   8.559  11.434  0.00  0.00    +0.000 F 
ATOM     19  F   UNL     1      49.338   7.495  10.667  0.00  0.00    +0.000 F 
ENDBRANCH  15  16
ENDBRANCH   8  10
ENDBRANCH   1   4
BRANCH   1  20
ATOM     20  N   UNL     1      44.004   4.784  10.141  0.00  0.00    +0.000 N 
ATOM     21  H   UNL     1      43.616   5.598   9.679  0.00  0.00    +0.000 HD
BRANCH  20  25
ATOM     22  C   UNL     1      46.452   2.556   7.684  0.00  0.00    +0.000 A 
ATOM     23  C   UNL     1      46.428   3.930   7.610  0.00  0.00    +0.000 A 
ATOM     24  N   UNL     1      45.609   4.669   8.383  0.00  0.00    +0.000 NA
ATOM     25  C   UNL     1      44.791   4.021   9.248  0.00  0.00    +0.000 A 
ATOM     26  C   UNL     1      44.821   2.627   9.295  0.00  0.00    +0.000 A 
ATOM     27  N   UNL     1      45.631   1.853   8.514  0.00  0.00    +0.000 NA
BRANCH  22  29
ATOM     28  N   UNL     1      48.535   2.544   6.452  0.00  0.00    +0.000 N 
ATOM     29  C   UNL     1      47.445   1.825   6.855  0.00  0.00    +0.000 C 
ATOM     30  O   UNL     1      47.296   0.650   6.541  0.00  0.00    +0.000 OA
ATOM     31  H   UNL     1      49.211   2.105   5.841  0.00  0.00    +0.000 HD
ATOM     32  H   UNL     1      48.620   3.520   6.696  0.00  0.00    +0.000 HD
ENDBRANCH  22  29
ENDBRANCH  20  25
ENDBRANCH   1  20
TORSDOF 6
ENDMDL
MODEL 3
REMARK VINA RESULT:    -8.790      2.323      3.634
REMARK INTER + INTRA:         -12.169
REMARK INTER:                 -12.626
REMARK INTRA:                   0.457
REMARK UNBOUND:                -0.296
REMARK  Name = 
REMARK  6 active torsions:
REMARK  status: ('A' for Active; 'I' for Inactive)
REMARK    1  A    between atoms: C_2  and  C_4
REMARK    2  A    between atoms: C_7  and  N_8
REMARK    3  A    between atoms: N_8  and  C_9
REMARK    4  A    between atoms: C_9  and  C_10
REMARK    5  A    between atoms: C_14  and  C_15
REMARK    6  A    between atoms: C_20  and  C_21
REMARK                            x       y       z     vdW  Elec       q    Type
REMARK                         _______ _______ _______ _____ _____    ______ ____
ROOT
ATOM      1  C   UNL     1      44.182   4.824  11.539  0.00  0.00    +0.000 C 
ATOM      2  C   UNL     1      43.610   3.736  12.448  0.00  0.00    +0.000 C 
ATOM      3  C   UNL     1      43.010   5.098  12.482  0.00  0.00    +0.000 C 
ENDROOT
BRANCH   1   4
ATOM      4  C   UNL     1      45.584   5.310  11.956  0.00  0.00    +0.000 A 
ATOM      5  C   UNL     1      46.272   6.264  11.205  0.00  0.00    +0.000 A 
ATOM      6  C   UNL     1      47.396   6.885  11.732  0.00  0.00    +0.000 A 
ATOM      7  C   UNL     1      47.837   6.515  12.993  0.00  0.00    +0.000 A 
ATOM      8  C   UNL     1      47.174   5.493  13.669  0.00  0.00    +0.000 A 
ATOM      9  N   UNL     1      46.062   4.903  13.165  0.00  0.00    +0.000 NA
BRANCH   8  10
ATOM     10  C   UNL     1      47.571   5.075  15.027  0.00  0.00    +0.000 A 
ATOM     11  N   UNL     1      47.067   3.853  15.388  0.00  0.00    +0.000 NA
ATOM     12  C   UNL     1      47.446   3.315  16.564  0.00  0.00    +0.000 A 
ATOM     13  C   UNL     1      48.312   3.933  17.437  0.00  0.00    +0.000 A 
ATOM     14  C   UNL     1      48.794   5.188  17.087  0.00  0.00    +0.000 A 
ATOM     15  C   UNL     1      48.413   5.796  15.873  0.00  0.00    +0.000 A 
BRANCH  15  16
ATOM     16  C   UNL     1      48.928   7.182  15.598  0.00  0.00    +0.000 C 
ATOM     17  F   UNL     1      48.029   8.129  15.230  0.00  0.00    +0.000 F 
ATOM     18  F   UNL     1      49.511   7.705  16.725  0.00  0.00    +0.000 F 
ATOM     19  F   UNL     1      49.921   7.195  14.663  0.00  0.00    +0.000 F 
ENDBRANCH  15  16
ENDBRANCH   8  10
ENDBRANCH   1   4
BRANCH   1  20
ATOM     20  N   UNL     1      43.890   4.828  10.070  0.00  0.00    +0.000 N 
ATOM     21  H   UNL     1      43.824   5.750   9.654  0.00  0.00    +0.000 HD
BRANCH  20  25
ATOM     22  C   UNL     1      46.312   2.320   7.870  0.00  0.00    +0.000 A 
ATOM     23  C   UNL     1      46.301   3.678   7.646  0.00  0.00    +0.000 A 
ATOM     24  N   UNL     1      45.491   4.505   8.334  0.00  0.00    +0.000 NA
ATOM     25  C   UNL     1      44.668   3.964   9.265  0.00  0.00    +0.000 A 
ATOM     26  C   UNL     1      44.684   2.583   9.464  0.00  0.00    +0.000 A 
ATOM     27  N   UNL     1      45.485   1.720   8.772  0.00  0.00    +0.000 NA
BRANCH  22  29
ATOM     28  N   UNL     1      48.335   2.169   6.551  0.00  0.00    +0.000 N 
ATOM     29  C   UNL     1      47.296   1.493   7.126  0.00  0.00    +0.000 C 
ATOM     30  O   UNL     1      47.183   0.277   7.022  0.00  0.00    +0.000 OA
ATOM     31  H   UNL     1      49.000   1.656   5.989  0.00  0.00    +0.000 HD
ATOM     32  H   UNL     1      48.389   3.175   6.623  0.00  0.00    +0.000 HD
ENDBRANCH  22  29
ENDBRANCH  20  25
ENDBRANCH   1  20
TORSDOF 6
ENDMDL
MODEL 4
REMARK VINA RESULT:    -8.682      1.861      2.336
REMARK INTER + INTRA:         -12.023
REMARK INTER:                 -11.862
REMARK INTRA:                  -0.161
REMARK UNBOUND:                -0.296
REMARK  Name = 
REMARK  6 active torsions:
REMARK  status: ('A' for Active; 'I' for Inactive)
REMARK    1  A    between atoms: C_2  and  C_4
REMARK    2  A    between atoms: C_7  and  N_8
REMARK    3  A    between atoms: N_8  and  C_9
REMARK    4  A    between atoms: C_9  and  C_10
REMARK    5  A    between atoms: C_14  and  C_15
REMARK    6  A    between atoms: C_20  and  C_21
REMARK                            x       y       z     vdW  Elec       q    Type
REMARK                         _______ _______ _______ _____ _____    ______ ____
ROOT
ATOM      1  C   UNL     1      44.045   4.912  11.339  0.00  0.00    +0.000 C 
ATOM      2  C   UNL     1      43.486   3.596  11.876  0.00  0.00    +0.000 C 
ATOM      3  C   UNL     1      42.643   4.821  11.941  0.00  0.00    +0.000 C 
ENDROOT
BRANCH   1   4
ATOM      4  C   UNL     1      45.173   5.509  12.203  0.00  0.00    +0.000 A 
ATOM      5  C   UNL     1      45.909   4.713  13.082  0.00  0.00    +0.000 A 
ATOM      6  C   UNL     1      47.084   5.198  13.642  0.00  0.00    +0.000 A 
ATOM      7  C   UNL     1      47.486   6.490  13.340  0.00  0.00    +0.000 A 
ATOM      8  C   UNL     1      46.674   7.281  12.531  0.00  0.00    +0.000 A 
ATOM      9  N   UNL     1      45.539   6.800  11.965  0.00  0.00    +0.000 NA
BRANCH   8  10
ATOM     10  C   UNL     1      47.061   8.651  12.144  0.00  0.00    +0.000 A 
ATOM     11  N   UNL     1      46.024   9.545  12.203  0.00  0.00    +0.000 NA
ATOM     12  C   UNL     1      46.276  10.849  11.974  0.00  0.00    +0.000 A 
ATOM     13  C   UNL     1      47.527  11.338  11.674  0.00  0.00    +0.000 A 
ATOM     14  C   UNL     1      48.570  10.427  11.580  0.00  0.00    +0.000 A 
ATOM     15  C   UNL     1      48.350   9.051  11.796  0.00  0.00    +0.000 A 
BRANCH  15  16
ATOM     16  C   UNL     1      49.519   8.123  11.612  0.00  0.00    +0.000 C 
ATOM     17  F   UNL     1      49.338   7.025  10.836  0.00  0.00    +0.000 F 
ATOM     18  F   UNL     1      50.559   8.783  11.008  0.00  0.00    +0.000 F 
ATOM     19  F   UNL     1      50.033   7.688  12.798  0.00  0.00    +0.000 F 
ENDBRANCH  15  16
ENDBRANCH   8  10
ENDBRANCH   1   4
BRANCH   1  20
ATOM     20  N   UNL     1      44.140   5.162   9.865  0.00  0.00    +0.000 N 
ATOM     21  H   UNL     1      44.398   6.109   9.611  0.00  0.00    +0.000 HD
BRANCH  20  25
ATOM     22  C   UNL     1      46.419   2.415   7.801  0.00  0.00    +0.000 A 
ATOM     23  C   UNL     1      46.503   3.762   7.526  0.00  0.00    +0.000 A 
ATOM     24  N   UNL     1      45.740   4.666   8.169  0.00  0.00    +0.000 NA
ATOM     25  C   UNL     1      44.870   4.218   9.106  0.00  0.00    +0.000 A 
ATOM     26  C   UNL     1      44.791   2.847   9.358  0.00  0.00    +0.000 A 
ATOM     27  N   UNL     1      45.541   1.907   8.712  0.00  0.00    +0.000 NA
BRANCH  22  29
ATOM     28  N   UNL     1      48.488   2.067   6.596  0.00  0.00    +0.000 N 
ATOM     29  C   UNL     1      47.356   1.497   7.106  0.00  0.00    +0.000 C 
ATOM     30  O   UNL     1      47.128   0.299   6.984  0.00  0.00    +0.000 OA
ATOM     31  H   UNL     1      49.129   1.492   6.066  0.00  0.00    +0.000 HD
ATOM     32  H   UNL     1      48.638   3.062   6.679  0.00  0.00    +0.000 HD
ENDBRANCH  22  29
ENDBRANCH  20  25
ENDBRANCH   1  20
TORSDOF 6
ENDMDL
MODEL 5
REMARK VINA RESULT:    -8.612      1.819      2.694
REMARK INTER + INTRA:         -11.928
REMARK INTER:                 -10.768
REMARK INTRA:                  -1.161
REMARK UNBOUND:                -0.296
REMARK  Name = 
REMARK  6 active torsions:
REMARK  status: ('A' for Active; 'I' for Inactive)
REMARK    1  A    between atoms: C_2  and  C_4
REMARK    2  A    between atoms: C_7  and  N_8
REMARK    3  A    between atoms: N_8  and  C_9
REMARK    4  A    between atoms: C_9  and  C_10
REMARK    5  A    between atoms: C_14  and  C_15
REMARK    6  A    between atoms: C_20  and  C_21
REMARK                            x       y       z     vdW  Elec       q    Type
REMARK                         _______ _______ _______ _____ _____    ______ ____
ROOT
ATOM      1  C   UNL     1      44.872   5.277  11.547  0.00  0.00    +0.000 C 
ATOM      2  C   UNL     1      45.647   4.235  12.351  0.00  0.00    +0.000 C 
ATOM      3  C   UNL     1      44.313   4.680  12.839  0.00  0.00    +0.000 C 
ENDROOT
BRANCH   1   4
ATOM      4  C   UNL     1      45.487   6.690  11.602  0.00  0.00    +0.000 A 
ATOM      5  C   UNL     1      44.682   7.829  11.629  0.00  0.00    +0.000 A 
ATOM      6  C   UNL     1      45.233   9.062  11.951  0.00  0.00    +0.000 A 
ATOM      7  C   UNL     1      46.593   9.142  12.207  0.00  0.00    +0.000 A 
ATOM      8  C   UNL     1      47.375   7.996  12.079  0.00  0.00    +0.000 A 
ATOM      9  N   UNL     1      46.834   6.787  11.788  0.00  0.00    +0.000 NA
BRANCH   8  10
ATOM     10  C   UNL     1      48.821   8.005  12.369  0.00  0.00    +0.000 A 
ATOM     11  N   UNL     1      49.596   8.258  11.267  0.00  0.00    +0.000 NA
ATOM     12  C   UNL     1      50.927   8.396  11.424  0.00  0.00    +0.000 A 
ATOM     13  C   UNL     1      51.561   8.289  12.641  0.00  0.00    +0.000 A 
ATOM     14  C   UNL     1      50.781   7.998  13.752  0.00  0.00    +0.000 A 
ATOM     15  C   UNL     1      49.386   7.830  13.632  0.00  0.00    +0.000 A 
BRANCH  15  16
ATOM     16  C   UNL     1      48.622   7.453  14.871  0.00  0.00    +0.000 C 
ATOM     17  F   UNL     1      47.828   6.354  14.815  0.00  0.00    +0.000 F 
ATOM     18  F   UNL     1      49.489   7.177  15.899  0.00  0.00    +0.000 F 
ATOM     19  F   UNL     1      47.850   8.474  15.340  0.00  0.00    +0.000 F 
ENDBRANCH  15  16
ENDBRANCH   8  10
ENDBRANCH   1   4
BRANCH   1  20
ATOM     20  N   UNL     1      44.183   4.906  10.270  0.00  0.00    +0.000 N 
ATOM     21  H   UNL     1      43.735   5.678   9.790  0.00  0.00    +0.000 HD
BRANCH  20  25
ATOM     22  C   UNL     1      46.470   2.556   7.771  0.00  0.00    +0.000 A 
ATOM     23  C   UNL     1      46.474   3.929   7.661  0.00  0.00    +0.000 A 
ATOM     24  N   UNL     1      45.707   4.707   8.448  0.00  0.00    +0.000 NA
ATOM     25  C   UNL     1      44.913   4.102   9.364  0.00  0.00    +0.000 A 
ATOM     26  C   UNL     1      44.913   2.708   9.448  0.00  0.00    +0.000 A 
ATOM     27  N   UNL     1      45.670   1.895   8.654  0.00  0.00    +0.000 NA
BRANCH  22  29
ATOM     28  N   UNL     1      48.486   2.467   6.436  0.00  0.00    +0.000 N 
ATOM     29  C   UNL     1      47.409   1.781   6.921  0.00  0.00    +0.000 C 
ATOM     30  O   UNL     1      47.228   0.598   6.658  0.00  0.00    +0.000 OA
ATOM     31  H   UNL     1      49.124   1.997   5.809  0.00  0.00    +0.000 HD
ATOM     32  H   UNL     1      48.597   3.450   6.640  0.00  0.00    +0.000 HD
ENDBRANCH  22  29
ENDBRANCH  20  25
ENDBRANCH   1  20
TORSDOF 6
ENDMDL
MODEL 6
REMARK VINA RESULT:    -8.301      3.935      7.289
REMARK INTER + INTRA:         -11.509
REMARK INTER:                 -10.285
REMARK INTRA:                  -1.224
REMARK UNBOUND:                -0.296
REMARK  Name = 
REMARK  6 active torsions:
REMARK  status: ('A' for Active; 'I' for Inactive)
REMARK    1  A    between atoms: C_2  and  C_4
REMARK    2  A    between atoms: C_7  and  N_8
REMARK    3  A    between atoms: N_8  and  C_9
REMARK    4  A    between atoms: C_9  and  C_10
REMARK    5  A    between atoms: C_14  and  C_15
REMARK    6  A    between atoms: C_20  and  C_21
REMARK                            x       y       z     vdW  Elec       q    Type
REMARK                         _______ _______ _______ _____ _____    ______ ____
ROOT
ATOM      1  C   UNL     1      47.942   7.380  13.248  0.00  0.00    +0.000 C 
ATOM      2  C   UNL     1      49.071   6.658  12.515  0.00  0.00    +0.000 C 
ATOM      3  C   UNL     1      49.037   8.147  12.506  0.00  0.00    +0.000 C 
ENDROOT
BRANCH   1   4
ATOM      4  C   UNL     1      46.565   7.233  12.568  0.00  0.00    +0.000 A 
ATOM      5  C   UNL     1      45.632   8.270  12.595  0.00  0.00    +0.000 A 
ATOM      6  C   UNL     1      44.524   8.229  11.759  0.00  0.00    +0.000 A 
ATOM      7  C   UNL     1      44.348   7.131  10.932  0.00  0.00    +0.000 A 
ATOM      8  C   UNL     1      45.256   6.077  11.004  0.00  0.00    +0.000 A 
ATOM      9  N   UNL     1      46.351   6.127  11.803  0.00  0.00    +0.000 NA
BRANCH   8  10
ATOM     10  C   UNL     1      45.146   4.895  10.128  0.00  0.00    +0.000 A 
ATOM     11  N   UNL     1      45.801   5.042   8.933  0.00  0.00    +0.000 NA
ATOM     12  C   UNL     1      45.862   3.991   8.091  0.00  0.00    +0.000 A 
ATOM     13  C   UNL     1      45.292   2.768   8.362  0.00  0.00    +0.000 A 
ATOM     14  C   UNL     1      44.598   2.631   9.557  0.00  0.00    +0.000 A 
ATOM     15  C   UNL     1      44.495   3.709  10.462  0.00  0.00    +0.000 A 
BRANCH  15  16
ATOM     16  C   UNL     1      43.673   3.498  11.703  0.00  0.00    +0.000 C 
ATOM     17  F   UNL     1      42.654   4.362  11.941  0.00  0.00    +0.000 F 
ATOM     18  F   UNL     1      43.059   2.271  11.664  0.00  0.00    +0.000 F 
ATOM     19  F   UNL     1      44.433   3.464  12.834  0.00  0.00    +0.000 F 
ENDBRANCH  15  16
ENDBRANCH   8  10
ENDBRANCH   1   4
BRANCH   1  20
ATOM     20  N   UNL     1      47.934   7.475  14.742  0.00  0.00    +0.000 N 
ATOM     21  H   UNL     1      47.101   7.899  15.136  0.00  0.00    +0.000 HD
BRANCH  20  25
ATOM     22  C   UNL     1      48.851   4.135  16.978  0.00  0.00    +0.000 A 
ATOM     23  C   UNL     1      49.625   5.273  17.045  0.00  0.00    +0.000 A 
ATOM     24  N   UNL     1      49.356   6.359  16.295  0.00  0.00    +0.000 NA
ATOM     25  C   UNL     1      48.293   6.309  15.456  0.00  0.00    +0.000 A 
ATOM     26  C   UNL     1      47.532   5.140  15.393  0.00  0.00    +0.000 A 
ATOM     27  N   UNL     1      47.790   4.020  16.131  0.00  0.00    +0.000 NA
BRANCH  22  29
ATOM     28  N   UNL     1      48.433   2.958  19.051  0.00  0.00    +0.000 N 
ATOM     29  C   UNL     1      49.169   3.016  17.901  0.00  0.00    +0.000 C 
ATOM     30  O   UNL     1      50.045   2.195  17.656  0.00  0.00    +0.000 OA
ATOM     31  H   UNL     1      48.650   2.246  19.735  0.00  0.00    +0.000 HD
ATOM     32  H   UNL     1      47.739   3.665  19.246  0.00  0.00    +0.000 HD
ENDBRANCH  22  29
ENDBRANCH  20  25
ENDBRANCH   1  20
TORSDOF 6
ENDMDL
MODEL 7
REMARK VINA RESULT:    -8.232      3.698      7.163
REMARK INTER + INTRA:         -11.415
REMARK INTER:                 -10.660
REMARK INTRA:                  -0.754
REMARK UNBOUND:                -0.296
REMARK  Name = 
REMARK  6 active torsions:
REMARK  status: ('A' for Active; 'I' for Inactive)
REMARK    1  A    between atoms: C_2  and  C_4
REMARK    2  A    between atoms: C_7  and  N_8
REMARK    3  A    between atoms: N_8  and  C_9
REMARK    4  A    between atoms: C_9  and  C_10
REMARK    5  A    between atoms: C_14  and  C_15
REMARK    6  A    between atoms: C_20  and  C_21
REMARK                            x       y       z     vdW  Elec       q    Type
REMARK                         _______ _______ _______ _____ _____    ______ ____
ROOT
ATOM      1  C   UNL     1      48.608   7.641  12.807  0.00  0.00    +0.000 C 
ATOM      2  C   UNL     1      49.537   6.908  11.839  0.00  0.00    +0.000 C 
ATOM      3  C   UNL     1      49.472   8.395  11.795  0.00  0.00    +0.000 C 
ENDROOT
BRANCH   1   4
ATOM      4  C   UNL     1      47.110   7.455  12.493  0.00  0.00    +0.000 A 
ATOM      5  C   UNL     1      46.182   8.458  12.778  0.00  0.00    +0.000 A 
ATOM      6  C   UNL     1      44.901   8.389  12.247  0.00  0.00    +0.000 A 
ATOM      7  C   UNL     1      44.556   7.297  11.466  0.00  0.00    +0.000 A 
ATOM      8  C   UNL     1      45.485   6.275  11.284  0.00  0.00    +0.000 A 
ATOM      9  N   UNL     1      46.744   6.352  11.781  0.00  0.00    +0.000 NA
BRANCH   8  10
ATOM     10  C   UNL     1      45.194   5.102  10.437  0.00  0.00    +0.000 A 
ATOM     11  N   UNL     1      45.649   5.234   9.151  0.00  0.00    +0.000 NA
ATOM     12  C   UNL     1      45.536   4.187   8.311  0.00  0.00    +0.000 A 
ATOM     13  C   UNL     1      44.977   2.982   8.671  0.00  0.00    +0.000 A 
ATOM     14  C   UNL     1      44.484   2.861   9.964  0.00  0.00    +0.000 A 
ATOM     15  C   UNL     1      44.567   3.936  10.873  0.00  0.00    +0.000 A 
BRANCH  15  16
ATOM     16  C   UNL     1      43.952   3.745  12.232  0.00  0.00    +0.000 C 
ATOM     17  F   UNL     1      44.704   4.062  13.316  0.00  0.00    +0.000 F 
ATOM     18  F   UNL     1      42.838   4.535  12.365  0.00  0.00    +0.000 F 
ATOM     19  F   UNL     1      43.496   2.475  12.426  0.00  0.00    +0.000 F 
ENDBRANCH  15  16
ENDBRANCH   8  10
ENDBRANCH   1   4
BRANCH   1  20
ATOM     20  N   UNL     1      48.967   7.787  14.253  0.00  0.00    +0.000 N 
ATOM     21  H   UNL     1      48.796   8.708  14.642  0.00  0.00    +0.000 HD
BRANCH  20  25
ATOM     22  C   UNL     1      47.823   4.747  16.792  0.00  0.00    +0.000 A 
ATOM     23  C   UNL     1      47.594   4.669  15.436  0.00  0.00    +0.000 A 
ATOM     24  N   UNL     1      47.932   5.669  14.600  0.00  0.00    +0.000 NA
ATOM     25  C   UNL     1      48.509   6.775  15.128  0.00  0.00    +0.000 A 
ATOM     26  C   UNL     1      48.717   6.840  16.507  0.00  0.00    +0.000 A 
ATOM     27  N   UNL     1      48.372   5.847  17.379  0.00  0.00    +0.000 NA
BRANCH  22  29
ATOM     28  N   UNL     1      48.360   3.295  18.651  0.00  0.00    +0.000 N 
ATOM     29  C   UNL     1      47.495   3.565  17.628  0.00  0.00    +0.000 C 
ATOM     30  O   UNL     1      46.514   2.863  17.412  0.00  0.00    +0.000 OA
ATOM     31  H   UNL     1      48.209   2.469  19.214  0.00  0.00    +0.000 HD
ATOM     32  H   UNL     1      49.179   3.868  18.789  0.00  0.00    +0.000 HD
ENDBRANCH  22  29
ENDBRANCH  20  25
ENDBRANCH   1  20
TORSDOF 6
ENDMDL
MODEL 8
REMARK VINA RESULT:    -7.928      3.989      6.509
REMARK INTER + INTRA:         -11.004
REMARK INTER:                  -9.711
REMARK INTRA:                  -1.293
REMARK UNBOUND:                -0.296
REMARK  Name = 
REMARK  6 active torsions:
REMARK  status: ('A' for Active; 'I' for Inactive)
REMARK    1  A    between atoms: C_2  and  C_4
REMARK    2  A    between atoms: C_7  and  N_8
REMARK    3  A    between atoms: N_8  and  C_9
REMARK    4  A    between atoms: C_9  and  C_10
REMARK    5  A    between atoms: C_14  and  C_15
REMARK    6  A    between atoms: C_20  and  C_21
REMARK                            x       y       z     vdW  Elec       q    Type
REMARK                         _______ _______ _______ _____ _____    ______ ____
ROOT
ATOM      1  C   UNL     1      48.316   8.074  13.344  0.00  0.00    +0.000 C 
ATOM      2  C   UNL     1      47.372   9.234  13.030  0.00  0.00    +0.000 C 
ATOM      3  C   UNL     1      48.802   9.336  12.630  0.00  0.00    +0.000 C 
ENDROOT
BRANCH   1   4
ATOM      4  C   UNL     1      48.631   7.917  14.845  0.00  0.00    +0.000 A 
ATOM      5  C   UNL     1      48.263   8.897  15.768  0.00  0.00    +0.000 A 
ATOM      6  C   UNL     1      48.306   8.622  17.128  0.00  0.00    +0.000 A 
ATOM      7  C   UNL     1      48.753   7.378  17.547  0.00  0.00    +0.000 A 
ATOM      8  C   UNL     1      49.198   6.463  16.595  0.00  0.00    +0.000 A 
ATOM      9  N   UNL     1      49.133   6.722  15.265  0.00  0.00    +0.000 NA
BRANCH   8  10
ATOM     10  C   UNL     1      49.653   5.111  16.970  0.00  0.00    +0.000 A 
ATOM     11  N   UNL     1      51.018   4.996  17.034  0.00  0.00    +0.000 NA
ATOM     12  C   UNL     1      51.553   3.838  17.469  0.00  0.00    +0.000 A 
ATOM     13  C   UNL     1      50.800   2.750  17.849  0.00  0.00    +0.000 A 
ATOM     14  C   UNL     1      49.419   2.855  17.751  0.00  0.00    +0.000 A 
ATOM     15  C   UNL     1      48.816   4.043  17.286  0.00  0.00    +0.000 A 
BRANCH  15  16
ATOM     16  C   UNL     1      47.318   4.053  17.148  0.00  0.00    +0.000 C 
ATOM     17  F   UNL     1      46.798   4.366  15.935  0.00  0.00    +0.000 F 
ATOM     18  F   UNL     1      46.808   2.806  17.411  0.00  0.00    +0.000 F 
ATOM     19  F   UNL     1      46.715   4.868  18.059  0.00  0.00    +0.000 F 
ENDBRANCH  15  16
ENDBRANCH   8  10
ENDBRANCH   1   4
BRANCH   1  20
ATOM     20  N   UNL     1      48.273   6.810  12.542  0.00  0.00    +0.000 N 
ATOM     21  H   UNL     1      48.917   6.091  12.851  0.00  0.00    +0.000 HD
BRANCH  20  25
ATOM     22  C   UNL     1      44.463   5.421  11.798  0.00  0.00    +0.000 A 
ATOM     23  C   UNL     1      44.994   5.402  13.069  0.00  0.00    +0.000 A 
ATOM     24  N   UNL     1      46.249   5.821  13.321  0.00  0.00    +0.000 NA
ATOM     25  C   UNL     1      46.994   6.266  12.280  0.00  0.00    +0.000 A 
ATOM     26  C   UNL     1      46.441   6.263  10.999  0.00  0.00    +0.000 A 
ATOM     27  N   UNL     1      45.178   5.831  10.713  0.00  0.00    +0.000 NA
BRANCH  22  29
ATOM     28  N   UNL     1      42.116   6.007  11.794  0.00  0.00    +0.000 N 
ATOM     29  C   UNL     1      43.044   5.019  11.624  0.00  0.00    +0.000 C 
ATOM     30  O   UNL     1      42.719   3.869  11.354  0.00  0.00    +0.000 OA
ATOM     31  H   UNL     1      41.135   5.770  11.740  0.00  0.00    +0.000 HD
ATOM     32  H   UNL     1      42.406   6.940  12.049  0.00  0.00    +0.000 HD
ENDBRANCH  22  29
ENDBRANCH  20  25
ENDBRANCH   1  20
TORSDOF 6
ENDMDL
MODEL 9
REMARK VINA RESULT:    -7.597      2.305      3.302
REMARK INTER + INTRA:         -10.558
REMARK INTER:                 -11.134
REMARK INTRA:                   0.576
REMARK UNBOUND:                -0.296
REMARK  Name = 
REMARK  6 active torsions:
REMARK  status: ('A' for Active; 'I' for Inactive)
REMARK    1  A    between atoms: C_2  and  C_4
REMARK    2  A    between atoms: C_7  and  N_8
REMARK    3  A    between atoms: N_8  and  C_9
REMARK    4  A    between atoms: C_9  and  C_10
REMARK    5  A    between atoms: C_14  and  C_15
REMARK    6  A    between atoms: C_20  and  C_21
REMARK                            x       y       z     vdW  Elec       q    Type
REMARK                         _______ _______ _______ _____ _____    ______ ____
ROOT
ATOM      1  C   UNL     1      44.140   4.984  11.343  0.00  0.00    +0.000 C 
ATOM      2  C   UNL     1      44.417   3.830  12.304  0.00  0.00    +0.000 C 
ATOM      3  C   UNL     1      43.092   4.507  12.349  0.00  0.00    +0.000 C 
ENDROOT
BRANCH   1   4
ATOM      4  C   UNL     1      44.931   6.267  11.667  0.00  0.00    +0.000 A 
ATOM      5  C   UNL     1      44.440   7.527  11.321  0.00  0.00    +0.000 A 
ATOM      6  C   UNL     1      45.020   8.670  11.854  0.00  0.00    +0.000 A 
ATOM      7  C   UNL     1      46.110   8.536  12.700  0.00  0.00    +0.000 A 
ATOM      8  C   UNL     1      46.625   7.265  12.946  0.00  0.00    +0.000 A 
ATOM      9  N   UNL     1      46.044   6.147  12.445  0.00  0.00    +0.000 NA
BRANCH   8  10
ATOM     10  C   UNL     1      47.760   7.050  13.862  0.00  0.00    +0.000 A 
ATOM     11  N   UNL     1      48.620   8.115  13.921  0.00  0.00    +0.000 NA
ATOM     12  C   UNL     1      49.639   8.081  14.802  0.00  0.00    +0.000 A 
ATOM     13  C   UNL     1      49.873   7.023  15.651  0.00  0.00    +0.000 A 
ATOM     14  C   UNL     1      49.022   5.929  15.566  0.00  0.00    +0.000 A 
ATOM     15  C   UNL     1      47.952   5.914  14.648  0.00  0.00    +0.000 A 
BRANCH  15  16
ATOM     16  C   UNL     1      47.116   4.666  14.574  0.00  0.00    +0.000 C 
ATOM     17  F   UNL     1      47.287   3.733  15.544  0.00  0.00    +0.000 F 
ATOM     18  F   UNL     1      45.783   4.981  14.654  0.00  0.00    +0.000 F 
ATOM     19  F   UNL     1      47.244   4.021  13.379  0.00  0.00    +0.000 F 
ENDBRANCH  15  16
ENDBRANCH   8  10
ENDBRANCH   1   4
BRANCH   1  20
ATOM     20  N   UNL     1      43.862   4.727   9.894  0.00  0.00    +0.000 N 
ATOM     21  H   UNL     1      43.546   5.537   9.373  0.00  0.00    +0.000 HD
BRANCH  20  25
ATOM     22  C   UNL     1      46.609   2.650   7.627  0.00  0.00    +0.000 A 
ATOM     23  C   UNL     1      45.730   1.995   8.460  0.00  0.00    +0.000 A 
ATOM     24  N   UNL     1      44.851   2.662   9.231  0.00  0.00    +0.000 NA
ATOM     25  C   UNL     1      44.850   4.016   9.174  0.00  0.00    +0.000 A 
ATOM     26  C   UNL     1      45.759   4.660   8.333  0.00  0.00    +0.000 A 
ATOM     27  N   UNL     1      46.670   4.010   7.551  0.00  0.00    +0.000 NA
BRANCH  22  29
ATOM     28  N   UNL     1      48.549   2.485   6.190  0.00  0.00    +0.000 N 
ATOM     29  C   UNL     1      47.486   1.834   6.749  0.00  0.00    +0.000 C 
ATOM     30  O   UNL     1      47.268   0.648   6.529  0.00  0.00    +0.000 OA
ATOM     31  H   UNL     1      49.142   1.985   5.543  0.00  0.00    +0.000 HD
ATOM     32  H   UNL     1      48.689   3.470   6.360  0.00  0.00    +0.000 HD
ENDBRANCH  22  29
ENDBRANCH  20  25
ENDBRANCH   1  20
TORSDOF 6
ENDMDL
