MODEL 1
REMARK VINA RESULT:    -9.014      0.000      0.000
REMARK INTER + INTRA:         -14.409
REMARK INTER:                 -13.229
REMARK INTRA:                  -1.180
REMARK UNBOUND:                -1.180
REMARK  Name = 
REMARK  8 active torsions:
REMARK  status: ('A' for Active; 'I' for Inactive)
REMARK    1  A    between atoms: C_2  and  C_4
REMARK    2  A    between atoms: C_7  and  N_8
REMARK    3  A    between atoms: N_8  and  C_9
REMARK    4  A    between atoms: C_9  and  C_10
REMARK    5  A    between atoms: C_10  and  C_13
REMARK    6  A    between atoms: C_15  and  O_16
REMARK    7  A    between atoms: O_16  and  C_17
REMARK    8  A    between atoms: C_22  and  C_23
REMARK                            x       y       z     vdW  Elec       q    Type
REMARK                         _______ _______ _______ _____ _____    ______ ____
ROOT
ATOM      1  C   UNL     1      43.493   5.461  12.288  0.00  0.00    +0.000 C 
ATOM      2  F   UNL     1      43.042   6.612  11.706  0.00  0.00    +0.000 F 
ATOM      3  F   UNL     1      42.652   5.246  13.348  0.00  0.00    +0.000 F 
ENDROOT
BRANCH   1   4
ATOM      4  C   UNL     1      44.940   5.585  12.727  0.00  0.00    +0.000 A 
ATOM      5  C   UNL     1      45.513   4.632  13.590  0.00  0.00    +0.000 A 
ATOM      6  C   UNL     1      46.848   4.746  13.977  0.00  0.00    +0.000 A 
ATOM      7  C   UNL     1      47.628   5.795  13.488  0.00  0.00    +0.000 A 
ATOM      8  C   UNL     1      47.083   6.754  12.625  0.00  0.00    +0.000 A 
ATOM      9  C   UNL     1      45.732   6.648  12.260  0.00  0.00    +0.000 A 
BRANCH   8  10
ATOM     10  C   UNL     1      47.930   7.880  12.077  0.00  0.00    +0.000 C 
ATOM     11  F   UNL     1      47.217   8.993  11.753  0.00  0.00    +0.000 F 
ATOM     12  F   UNL     1      48.882   8.287  12.960  0.00  0.00    +0.000 F 
ATOM     13  F   UNL     1      48.596   7.518  10.947  0.00  0.00    +0.000 F 
ENDBRANCH   8  10
BRANCH   6  14
ATOM     14  O   UNL     1      47.513   3.864  14.787  0.00  0.00    +0.000 OA
BRANCH  14  15
ATOM     15  C   UNL     1      47.362   3.975  16.220  0.00  0.00    +0.000 C 
ATOM     16  C   UNL     1      48.354   4.862  16.986  0.00  0.00    +0.000 C 
ATOM     17  O   UNL     1      48.680   3.786  17.899  0.00  0.00    +0.000 OA
ATOM     18  C   UNL     1      48.004   2.840  17.035  0.00  0.00    +0.000 C 
ENDBRANCH  14  15
ENDBRANCH   6  14
ENDBRANCH   1   4
BRANCH   1  19
ATOM     19  C   UNL     1      43.302   4.286  11.291  0.00  0.00    +0.000 C 
BRANCH  19  20
ATOM     20  N   UNL     1      43.688   4.643   9.915  0.00  0.00    +0.000 N 
ATOM     21  H   UNL     1      42.912   4.950   9.327  0.00  0.00    +0.000 HD
BRANCH  20  25
ATOM     22  C   UNL     1      46.505   2.472   7.773  0.00  0.00    +0.000 A 
ATOM     23  C   UNL     1      46.507   3.851   7.620  0.00  0.00    +0.000 A 
ATOM     24  C   UNL     1      45.583   4.600   8.350  0.00  0.00    +0.000 A 
ATOM     25  C   UNL     1      44.703   3.979   9.237  0.00  0.00    +0.000 A 
ATOM     26  C   UNL     1      44.790   2.581   9.302  0.00  0.00    +0.000 A 
ATOM     27  N   UNL     1      45.661   1.808   8.605  0.00  0.00    +0.000 NA
BRANCH  22  29
ATOM     28  N   UNL     1      48.509   2.313   6.419  0.00  0.00    +0.000 N 
ATOM     29  C   UNL     1      47.449   1.639   6.963  0.00  0.00    +0.000 C 
ATOM     30  O   UNL     1      47.300   0.434   6.805  0.00  0.00    +0.000 OA
ATOM     31  H   UNL     1      49.206   1.807   5.893  0.00  0.00    +0.000 HD
ATOM     32  H   UNL     1      48.617   3.305   6.603  0.00  0.00    +0.000 HD
ENDBRANCH  22  29
ENDBRANCH  20  25
ENDBRANCH  19  20
ENDBRANCH   1  19
TORSDOF 8
ENDMDL
MODEL 2
REMARK VINA RESULT:    -8.969      0.592      1.157
REMARK INTER + INTRA:         -14.343
REMARK INTER:                 -13.224
REMARK INTRA:                  -1.119
REMARK UNBOUND:                -1.180
REMARK  Name = 
REMARK  8 active torsions:
REMARK  status: ('A' for Active; 'I' for Inactive)
REMARK    1  A    between atoms: C_2  and  C_4
REMARK    2  A    between atoms: C_7  and  N_8
REMARK    3  A    between atoms: N_8  and  C_9
REMARK    4  A    between atoms: C_9  and  C_10
REMARK    5  A    between atoms: C_10  and  C_13
REMARK    6  A    between atoms: C_15  and  O_16
REMARK    7  A    between atoms: O_16  and  C_17
REMARK    8  A    between atoms: C_22  and  C_23
REMARK                            x       y       z     vdW  Elec       q    Type
REMARK                         _______ _______ _______ _____ _____    ______ ____
ROOT
ATOM      1  C   UNL     1      43.509   5.514  12.181  0.00  0.00    +0.000 C 
ATOM      2  F   UNL     1      43.110   6.668  11.567  0.00  0.00    +0.000 F 
ATOM      3  F   UNL     1      42.604   5.317  13.191  0.00  0.00    +0.000 F 
ENDROOT
BRANCH   1   4
ATOM      4  C   UNL     1      44.930   5.622  12.704  0.00  0.00    +0.000 A 
ATOM      5  C   UNL     1      45.427   4.683  13.629  0.00  0.00    +0.000 A 
ATOM      6  C   UNL     1      46.738   4.781  14.094  0.00  0.00    +0.000 A 
ATOM      7  C   UNL     1      47.570   5.799  13.624  0.00  0.00    +0.000 A 
ATOM      8  C   UNL     1      47.101   6.742  12.701  0.00  0.00    +0.000 A 
ATOM      9  C   UNL     1      45.773   6.653  12.257  0.00  0.00    +0.000 A 
BRANCH   8  10
ATOM     10  C   UNL     1      48.004   7.832  12.174  0.00  0.00    +0.000 C 
ATOM     11  F   UNL     1      48.928   8.262  13.077  0.00  0.00    +0.000 F 
ATOM     12  F   UNL     1      48.707   7.436  11.078  0.00  0.00    +0.000 F 
ATOM     13  F   UNL     1      47.308   8.938  11.794  0.00  0.00    +0.000 F 
ENDBRANCH   8  10
BRANCH   6  14
ATOM     14  O   UNL     1      47.332   3.911  14.969  0.00  0.00    +0.000 OA
BRANCH  14  15
ATOM     15  C   UNL     1      47.313   4.212  16.382  0.00  0.00    +0.000 C 
ATOM     16  C   UNL     1      48.628   4.642  17.049  0.00  0.00    +0.000 C 
ATOM     17  O   UNL     1      48.495   3.624  18.070  0.00  0.00    +0.000 OA
ATOM     18  C   UNL     1      47.433   2.994  17.313  0.00  0.00    +0.000 C 
ENDBRANCH  14  15
ENDBRANCH   6  14
ENDBRANCH   1   4
BRANCH   1  19
ATOM     19  C   UNL     1      43.362   4.336  11.181  0.00  0.00    +0.000 C 
BRANCH  19  20
ATOM     20  N   UNL     1      43.742   4.709   9.807  0.00  0.00    +0.000 N 
ATOM     21  H   UNL     1      42.992   5.146   9.268  0.00  0.00    +0.000 HD
BRANCH  20  25
ATOM     22  C   UNL     1      46.628   2.623   7.673  0.00  0.00    +0.000 A 
ATOM     23  C   UNL     1      45.757   1.886   8.461  0.00  0.00    +0.000 A 
ATOM     24  C   UNL     1      44.764   2.567   9.168  0.00  0.00    +0.000 A 
ATOM     25  C   UNL     1      44.632   3.952   9.056  0.00  0.00    +0.000 A 
ATOM     26  C   UNL     1      45.573   4.589   8.235  0.00  0.00    +0.000 A 
ATOM     27  N   UNL     1      46.562   3.974   7.538  0.00  0.00    +0.000 NA
BRANCH  22  29
ATOM     28  N   UNL     1      48.598   2.740   6.266  0.00  0.00    +0.000 N 
ATOM     29  C   UNL     1      47.734   1.925   6.946  0.00  0.00    +0.000 C 
ATOM     30  O   UNL     1      47.876   0.709   6.966  0.00  0.00    +0.000 OA
ATOM     31  H   UNL     1      49.389   2.340   5.785  0.00  0.00    +0.000 HD
ATOM     32  H   UNL     1      48.468   3.746   6.303  0.00  0.00    +0.000 HD
ENDBRANCH  22  29
ENDBRANCH  20  25
ENDBRANCH  19  20
ENDBRANCH   1  19
TORSDOF 8
ENDMDL
MODEL 3
REMARK VINA RESULT:    -8.378      2.386      3.684
REMARK INTER + INTRA:         -13.475
REMARK INTER:                 -12.162
REMARK INTRA:                  -1.313
REMARK UNBOUND:                -1.180
REMARK  Name = 
REMARK  8 active torsions:
REMARK  status: ('A' for Active; 'I' for Inactive)
REMARK    1  A    between atoms: C_2  and  C_4
REMARK    2  A    between atoms: C_7  and  N_8
REMARK    3  A    between atoms: N_8  and  C_9
REMARK    4  A    between atoms: C_9  and  C_10
REMARK    5  A    between atoms: C_10  and  C_13
REMARK    6  A    between atoms: C_15  and  O_16
REMARK    7  A    between atoms: O_16  and  C_17
REMARK    8  A    between atoms: C_22  and  C_23
REMARK                            x       y       z     vdW  Elec       q    Type
REMARK                         _______ _______ _______ _____ _____    ______ ____
ROOT
ATOM      1  C   UNL     1      43.424   5.271  12.195  0.00  0.00    +0.000 C 
ATOM      2  F   UNL     1      42.943   6.352  11.510  0.00  0.00    +0.000 F 
ATOM      3  F   UNL     1      42.634   5.178  13.310  0.00  0.00    +0.000 F 
ENDROOT
BRANCH   1   4
ATOM      4  C   UNL     1      44.890   5.441  12.550  0.00  0.00    +0.000 A 
ATOM      5  C   UNL     1      45.725   6.269  11.776  0.00  0.00    +0.000 A 
ATOM      6  C   UNL     1      47.067   6.431  12.118  0.00  0.00    +0.000 A 
ATOM      7  C   UNL     1      47.581   5.789  13.247  0.00  0.00    +0.000 A 
ATOM      8  C   UNL     1      46.770   4.964  14.036  0.00  0.00    +0.000 A 
ATOM      9  C   UNL     1      45.427   4.785  13.670  0.00  0.00    +0.000 A 
BRANCH   8  10
ATOM     10  C   UNL     1      47.317   4.284  15.269  0.00  0.00    +0.000 C 
ATOM     11  F   UNL     1      46.447   4.266  16.316  0.00  0.00    +0.000 F 
ATOM     12  F   UNL     1      47.653   2.986  15.038  0.00  0.00    +0.000 F 
ATOM     13  F   UNL     1      48.447   4.887  15.730  0.00  0.00    +0.000 F 
ENDBRANCH   8  10
BRANCH   6  14
ATOM     14  O   UNL     1      47.959   7.231  11.455  0.00  0.00    +0.000 OA
BRANCH  14  15
ATOM     15  C   UNL     1      48.929   7.984  12.215  0.00  0.00    +0.000 C 
ATOM     16  C   UNL     1      49.009   9.501  11.986  0.00  0.00    +0.000 C 
ATOM     17  O   UNL     1      50.434   9.433  11.735  0.00  0.00    +0.000 OA
ATOM     18  C   UNL     1      50.354   7.990  11.637  0.00  0.00    +0.000 C 
ENDBRANCH  14  15
ENDBRANCH   6  14
ENDBRANCH   1   4
BRANCH   1  19
ATOM     19  C   UNL     1      43.192   3.994  11.344  0.00  0.00    +0.000 C 
BRANCH  19  20
ATOM     20  N   UNL     1      43.405   4.226   9.905  0.00  0.00    +0.000 N 
ATOM     21  H   UNL     1      42.545   4.272   9.356  0.00  0.00    +0.000 HD
BRANCH  20  25
ATOM     22  C   UNL     1      46.485   2.468   7.747  0.00  0.00    +0.000 A 
ATOM     23  C   UNL     1      46.350   3.846   7.664  0.00  0.00    +0.000 A 
ATOM     24  C   UNL     1      45.335   4.458   8.401  0.00  0.00    +0.000 A 
ATOM     25  C   UNL     1      44.500   3.705   9.227  0.00  0.00    +0.000 A 
ATOM     26  C   UNL     1      44.729   2.322   9.225  0.00  0.00    +0.000 A 
ATOM     27  N   UNL     1      45.693   1.679   8.518  0.00  0.00    +0.000 NA
BRANCH  22  29
ATOM     28  N   UNL     1      48.575   2.567   6.522  0.00  0.00    +0.000 N 
ATOM     29  C   UNL     1      47.531   1.779   6.927  0.00  0.00    +0.000 C 
ATOM     30  O   UNL     1      47.474   0.589   6.645  0.00  0.00    +0.000 OA
ATOM     31  H   UNL     1      49.335   2.160   5.999  0.00  0.00    +0.000 HD
ATOM     32  H   UNL     1      48.604   3.541   6.806  0.00  0.00    +0.000 HD
ENDBRANCH  22  29
ENDBRANCH  20  25
ENDBRANCH  19  20
ENDBRANCH   1  19
TORSDOF 8
ENDMDL
MODEL 4
REMARK VINA RESULT:    -8.243      2.505      3.884
REMARK INTER + INTRA:         -13.278
REMARK INTER:                 -11.990
REMARK INTRA:                  -1.288
REMARK UNBOUND:                -1.180
REMARK  Name = 
REMARK  8 active torsions:
REMARK  status: ('A' for Active; 'I' for Inactive)
REMARK    1  A    between atoms: C_2  and  C_4
REMARK    2  A    between atoms: C_7  and  N_8
REMARK    3  A    between atoms: N_8  and  C_9
REMARK    4  A    between atoms: C_9  and  C_10
REMARK    5  A    between atoms: C_10  and  C_13
REMARK    6  A    between atoms: C_15  and  O_16
REMARK    7  A    between atoms: O_16  and  C_17
REMARK    8  A    between atoms: C_22  and  C_23
REMARK                            x       y       z     vdW  Elec       q    Type
REMARK                         _______ _______ _______ _____ _____    ______ ____
ROOT
ATOM      1  C   UNL     1      43.552   4.799  12.447  0.00  0.00    +0.000 C 
ATOM      2  F   UNL     1      42.691   5.749  12.918  0.00  0.00    +0.000 F 
ATOM      3  F   UNL     1      43.108   3.620  12.985  0.00  0.00    +0.000 F 
ENDROOT
BRANCH   1   4
ATOM      4  C   UNL     1      44.986   5.099  12.844  0.00  0.00    +0.000 A 
ATOM      5  C   UNL     1      45.759   6.014  12.103  0.00  0.00    +0.000 A 
ATOM      6  C   UNL     1      47.071   6.295  12.483  0.00  0.00    +0.000 A 
ATOM      7  C   UNL     1      47.615   5.685  13.615  0.00  0.00    +0.000 A 
ATOM      8  C   UNL     1      46.866   4.774  14.371  0.00  0.00    +0.000 A 
ATOM      9  C   UNL     1      45.555   4.477  13.968  0.00  0.00    +0.000 A 
BRANCH   8  10
ATOM     10  C   UNL     1      47.444   4.128  15.608  0.00  0.00    +0.000 C 
ATOM     11  F   UNL     1      48.508   4.797  16.129  0.00  0.00    +0.000 F 
ATOM     12  F   UNL     1      46.532   4.031  16.614  0.00  0.00    +0.000 F 
ATOM     13  F   UNL     1      47.877   2.860  15.371  0.00  0.00    +0.000 F 
ENDBRANCH   8  10
BRANCH   6  14
ATOM     14  O   UNL     1      47.901   7.185  11.854  0.00  0.00    +0.000 OA
BRANCH  14  15
ATOM     15  C   UNL     1      48.171   8.458  12.481  0.00  0.00    +0.000 C 
ATOM     16  C   UNL     1      47.013   9.458  12.616  0.00  0.00    +0.000 C 
ATOM     17  O   UNL     1      47.783  10.505  11.977  0.00  0.00    +0.000 OA
ATOM     18  C   UNL     1      48.768   9.530  11.555  0.00  0.00    +0.000 C 
ENDBRANCH  14  15
ENDBRANCH   6  14
ENDBRANCH   1   4
BRANCH   1  19
ATOM     19  C   UNL     1      43.399   4.701  10.906  0.00  0.00    +0.000 C 
BRANCH  19  20
ATOM     20  N   UNL     1      43.773   3.375  10.384  0.00  0.00    +0.000 N 
ATOM     21  H   UNL     1      43.687   2.617  11.063  0.00  0.00    +0.000 HD
BRANCH  20  25
ATOM     22  C   UNL     1      46.634   2.671   7.459  0.00  0.00    +0.000 A 
ATOM     23  C   UNL     1      46.274   3.988   7.699  0.00  0.00    +0.000 A 
ATOM     24  C   UNL     1      45.331   4.248   8.696  0.00  0.00    +0.000 A 
ATOM     25  C   UNL     1      44.790   3.208   9.453  0.00  0.00    +0.000 A 
ATOM     26  C   UNL     1      45.225   1.918   9.116  0.00  0.00    +0.000 A 
ATOM     27  N   UNL     1      46.130   1.615   8.150  0.00  0.00    +0.000 NA
BRANCH  22  29
ATOM     28  N   UNL     1      47.489   3.134   5.239  0.00  0.00    +0.000 N 
ATOM     29  C   UNL     1      47.603   2.359   6.362  0.00  0.00    +0.000 C 
ATOM     30  O   UNL     1      48.454   1.485   6.459  0.00  0.00    +0.000 OA
ATOM     31  H   UNL     1      48.135   3.005   4.475  0.00  0.00    +0.000 HD
ATOM     32  H   UNL     1      46.794   3.873   5.211  0.00  0.00    +0.000 HD
ENDBRANCH  22  29
ENDBRANCH  20  25
ENDBRANCH  19  20
ENDBRANCH   1  19
TORSDOF 8
ENDMDL
MODEL 5
REMARK VINA RESULT:    -7.750      2.190      2.730
REMARK INTER + INTRA:         -12.554
REMARK INTER:                 -11.409
REMARK INTRA:                  -1.145
REMARK UNBOUND:                -1.180
REMARK  Name = 
REMARK  8 active torsions:
REMARK  status: ('A' for Active; 'I' for Inactive)
REMARK    1  A    between atoms: C_2  and  C_4
REMARK    2  A    between atoms: C_7  and  N_8
REMARK    3  A    between atoms: N_8  and  C_9
REMARK    4  A    between atoms: C_9  and  C_10
REMARK    5  A    between atoms: C_10  and  C_13
REMARK    6  A    between atoms: C_15  and  O_16
REMARK    7  A    between atoms: O_16  and  C_17
REMARK    8  A    between atoms: C_22  and  C_23
REMARK                            x       y       z     vdW  Elec       q    Type
REMARK                         _______ _______ _______ _____ _____    ______ ____
ROOT
ATOM      1  C   UNL     1      44.342   4.854  12.415  0.00  0.00    +0.000 C 
ATOM      2  F   UNL     1      43.477   4.874  13.473  0.00  0.00    +0.000 F 
ATOM      3  F   UNL     1      45.068   3.703  12.572  0.00  0.00    +0.000 F 
ENDROOT
BRANCH   1   4
ATOM      4  C   UNL     1      45.229   6.086  12.394  0.00  0.00    +0.000 A 
ATOM      5  C   UNL     1      46.585   6.000  12.762  0.00  0.00    +0.000 A 
ATOM      6  C   UNL     1      47.396   7.134  12.726  0.00  0.00    +0.000 A 
ATOM      7  C   UNL     1      46.869   8.355  12.301  0.00  0.00    +0.000 A 
ATOM      8  C   UNL     1      45.524   8.466  11.926  0.00  0.00    +0.000 A 
ATOM      9  C   UNL     1      44.707   7.326  11.989  0.00  0.00    +0.000 A 
BRANCH   8  10
ATOM     10  C   UNL     1      44.955   9.780  11.446  0.00  0.00    +0.000 C 
ATOM     11  F   UNL     1      44.217   9.674  10.308  0.00  0.00    +0.000 F 
ATOM     12  F   UNL     1      44.141  10.359  12.370  0.00  0.00    +0.000 F 
ATOM     13  F   UNL     1      45.928  10.694  11.178  0.00  0.00    +0.000 F 
ENDBRANCH   8  10
BRANCH   6  14
ATOM     14  O   UNL     1      48.730   7.160  13.035  0.00  0.00    +0.000 OA
BRANCH  14  15
ATOM     15  C   UNL     1      49.150   7.732  14.294  0.00  0.00    +0.000 C 
ATOM     16  C   UNL     1      50.650   7.741  14.621  0.00  0.00    +0.000 C 
ATOM     17  O   UNL     1      50.422   7.095  15.896  0.00  0.00    +0.000 OA
ATOM     18  C   UNL     1      49.062   6.787  15.504  0.00  0.00    +0.000 C 
ENDBRANCH  14  15
ENDBRANCH   6  14
ENDBRANCH   1   4
BRANCH   1  19
ATOM     19  C   UNL     1      43.527   4.721  11.101  0.00  0.00    +0.000 C 
BRANCH  19  20
ATOM     20  N   UNL     1      43.748   3.430  10.426  0.00  0.00    +0.000 N 
ATOM     21  H   UNL     1      43.565   2.614  11.012  0.00  0.00    +0.000 HD
BRANCH  20  25
ATOM     22  C   UNL     1      46.562   2.700   7.462  0.00  0.00    +0.000 A 
ATOM     23  C   UNL     1      46.212   4.020   7.702  0.00  0.00    +0.000 A 
ATOM     24  C   UNL     1      45.286   4.288   8.711  0.00  0.00    +0.000 A 
ATOM     25  C   UNL     1      44.751   3.254   9.481  0.00  0.00    +0.000 A 
ATOM     26  C   UNL     1      45.174   1.961   9.142  0.00  0.00    +0.000 A 
ATOM     27  N   UNL     1      46.062   1.649   8.164  0.00  0.00    +0.000 NA
BRANCH  22  29
ATOM     28  N   UNL     1      47.394   3.158   5.232  0.00  0.00    +0.000 N 
ATOM     29  C   UNL     1      47.513   2.379   6.351  0.00  0.00    +0.000 C 
ATOM     30  O   UNL     1      48.354   1.493   6.435  0.00  0.00    +0.000 OA
ATOM     31  H   UNL     1      48.028   3.023   4.460  0.00  0.00    +0.000 HD
ATOM     32  H   UNL     1      46.708   3.906   5.215  0.00  0.00    +0.000 HD
ENDBRANCH  22  29
ENDBRANCH  20  25
ENDBRANCH  19  20
ENDBRANCH   1  19
TORSDOF 8
ENDMDL
MODEL 6
REMARK VINA RESULT:    -7.472      3.132      4.626
REMARK INTER + INTRA:         -12.146
REMARK INTER:                 -11.319
REMARK INTRA:                  -0.827
REMARK UNBOUND:                -1.180
REMARK  Name = 
REMARK  8 active torsions:
REMARK  status: ('A' for Active; 'I' for Inactive)
REMARK    1  A    between atoms: C_2  and  C_4
REMARK    2  A    between atoms: C_7  and  N_8
REMARK    3  A    between atoms: N_8  and  C_9
REMARK    4  A    between atoms: C_9  and  C_10
REMARK    5  A    between atoms: C_10  and  C_13
REMARK    6  A    between atoms: C_15  and  O_16
REMARK    7  A    between atoms: O_16  and  C_17
REMARK    8  A    between atoms: C_22  and  C_23
REMARK                            x       y       z     vdW  Elec       q    Type
REMARK                         _______ _______ _______ _____ _____    ______ ____
ROOT
ATOM      1  C   UNL     1      44.273   5.364  12.428  0.00  0.00    +0.000 C 
ATOM      2  F   UNL     1      43.253   5.500  13.328  0.00  0.00    +0.000 F 
ATOM      3  F   UNL     1      45.000   4.293  12.876  0.00  0.00    +0.000 F 
ENDROOT
BRANCH   1   4
ATOM      4  C   UNL     1      45.114   6.624  12.341  0.00  0.00    +0.000 A 
ATOM      5  C   UNL     1      44.511   7.895  12.407  0.00  0.00    +0.000 A 
ATOM      6  C   UNL     1      45.292   9.048  12.341  0.00  0.00    +0.000 A 
ATOM      7  C   UNL     1      46.680   8.944  12.231  0.00  0.00    +0.000 A 
ATOM      8  C   UNL     1      47.305   7.692  12.166  0.00  0.00    +0.000 A 
ATOM      9  C   UNL     1      46.510   6.536  12.208  0.00  0.00    +0.000 A 
BRANCH   8  10
ATOM     10  C   UNL     1      48.807   7.575  12.068  0.00  0.00    +0.000 C 
ATOM     11  F   UNL     1      49.304   6.427  12.605  0.00  0.00    +0.000 F 
ATOM     12  F   UNL     1      49.245   7.607  10.780  0.00  0.00    +0.000 F 
ATOM     13  F   UNL     1      49.445   8.594  12.706  0.00  0.00    +0.000 F 
ENDBRANCH   8  10
BRANCH   6  14
ATOM     14  O   UNL     1      44.816  10.330  12.424  0.00  0.00    +0.000 OA
BRANCH  14  15
ATOM     15  C   UNL     1      44.121  10.896  11.291  0.00  0.00    +0.000 C 
ATOM     16  C   UNL     1      42.592  11.011  11.364  0.00  0.00    +0.000 C 
ATOM     17  O   UNL     1      42.434  10.313  10.105  0.00  0.00    +0.000 OA
ATOM     18  C   UNL     1      43.826   9.914  10.146  0.00  0.00    +0.000 C 
ENDBRANCH  14  15
ENDBRANCH   6  14
ENDBRANCH   1   4
BRANCH   1  19
ATOM     19  C   UNL     1      43.677   4.983  11.047  0.00  0.00    +0.000 C 
BRANCH  19  20
ATOM     20  N   UNL     1      44.002   3.601  10.652  0.00  0.00    +0.000 N 
ATOM     21  H   UNL     1      44.163   2.967  11.436  0.00  0.00    +0.000 HD
BRANCH  20  25
ATOM     22  C   UNL     1      46.419   2.948   7.340  0.00  0.00    +0.000 A 
ATOM     23  C   UNL     1      46.026   1.840   8.076  0.00  0.00    +0.000 A 
ATOM     24  C   UNL     1      45.194   2.036   9.179  0.00  0.00    +0.000 A 
ATOM     25  C   UNL     1      44.741   3.314   9.512  0.00  0.00    +0.000 A 
ATOM     26  C   UNL     1      45.209   4.356   8.699  0.00  0.00    +0.000 A 
ATOM     27  N   UNL     1      46.027   4.218   7.625  0.00  0.00    +0.000 NA
BRANCH  22  29
ATOM     28  N   UNL     1      48.641   2.445   6.513  0.00  0.00    +0.000 N 
ATOM     29  C   UNL     1      47.354   2.773   6.184  0.00  0.00    +0.000 C 
ATOM     30  O   UNL     1      46.997   2.897   5.020  0.00  0.00    +0.000 OA
ATOM     31  H   UNL     1      49.315   2.274   5.783  0.00  0.00    +0.000 HD
ATOM     32  H   UNL     1      48.889   2.316   7.489  0.00  0.00    +0.000 HD
ENDBRANCH  22  29
ENDBRANCH  20  25
ENDBRANCH  19  20
ENDBRANCH   1  19
TORSDOF 8
ENDMDL
MODEL 7
REMARK VINA RESULT:    -7.069      2.950      4.169
REMARK INTER + INTRA:         -11.555
REMARK INTER:                 -10.835
REMARK INTRA:                  -0.720
REMARK UNBOUND:                -1.180
REMARK  Name = 
REMARK  8 active torsions:
REMARK  status: ('A' for Active; 'I' for Inactive)
REMARK    1  A    between atoms: C_2  and  C_4
REMARK    2  A    between atoms: C_7  and  N_8
REMARK    3  A    between atoms: N_8  and  C_9
REMARK    4  A    between atoms: C_9  and  C_10
REMARK    5  A    between atoms: C_10  and  C_13
REMARK    6  A    between atoms: C_15  and  O_16
REMARK    7  A    between atoms: O_16  and  C_17
REMARK    8  A    between atoms: C_22  and  C_23
REMARK                            x       y       z     vdW  Elec       q    Type
REMARK                         _______ _______ _______ _____ _____    ______ ____
ROOT
ATOM      1  C   UNL     1      45.631   5.854  12.328  0.00  0.00    +0.000 C 
ATOM      2  F   UNL     1      46.098   6.444  11.187  0.00  0.00    +0.000 F 
ATOM      3  F   UNL     1      44.477   6.528  12.630  0.00  0.00    +0.000 F 
ENDROOT
BRANCH   1   4
ATOM      4  C   UNL     1      46.646   5.932  13.454  0.00  0.00    +0.000 A 
ATOM      5  C   UNL     1      47.440   7.082  13.625  0.00  0.00    +0.000 A 
ATOM      6  C   UNL     1      48.360   7.152  14.671  0.00  0.00    +0.000 A 
ATOM      7  C   UNL     1      48.478   6.088  15.568  0.00  0.00    +0.000 A 
ATOM      8  C   UNL     1      47.697   4.934  15.421  0.00  0.00    +0.000 A 
ATOM      9  C   UNL     1      46.792   4.861  14.351  0.00  0.00    +0.000 A 
BRANCH   8  10
ATOM     10  C   UNL     1      47.808   3.790  16.401  0.00  0.00    +0.000 C 
ATOM     11  F   UNL     1      48.127   2.601  15.820  0.00  0.00    +0.000 F 
ATOM     12  F   UNL     1      48.758   4.011  17.350  0.00  0.00    +0.000 F 
ATOM     13  F   UNL     1      46.645   3.578  17.077  0.00  0.00    +0.000 F 
ENDBRANCH   8  10
BRANCH   6  14
ATOM     14  O   UNL     1      49.161   8.228  14.947  0.00  0.00    +0.000 OA
BRANCH  14  15
ATOM     15  C   UNL     1      49.787   8.937  13.855  0.00  0.00    +0.000 C 
ATOM     16  C   UNL     1      50.434   8.113  12.733  0.00  0.00    +0.000 C 
ATOM     17  O   UNL     1      51.688   8.826  12.871  0.00  0.00    +0.000 OA
ATOM     18  C   UNL     1      51.229   9.402  14.118  0.00  0.00    +0.000 C 
ENDBRANCH  14  15
ENDBRANCH   6  14
ENDBRANCH   1   4
BRANCH   1  19
ATOM     19  C   UNL     1      45.249   4.383  12.012  0.00  0.00    +0.000 C 
BRANCH  19  20
ATOM     20  N   UNL     1      44.512   4.250  10.744  0.00  0.00    +0.000 N 
ATOM     21  H   UNL     1      43.516   4.049  10.855  0.00  0.00    +0.000 HD
BRANCH  20  25
ATOM     22  C   UNL     1      46.492   2.775   7.406  0.00  0.00    +0.000 A 
ATOM     23  C   UNL     1      45.954   1.853   8.291  0.00  0.00    +0.000 A 
ATOM     24  C   UNL     1      45.264   2.329   9.407  0.00  0.00    +0.000 A 
ATOM     25  C   UNL     1      45.091   3.700   9.607  0.00  0.00    +0.000 A 
ATOM     26  C   UNL     1      45.684   4.534   8.649  0.00  0.00    +0.000 A 
ATOM     27  N   UNL     1      46.374   4.121   7.556  0.00  0.00    +0.000 NA
BRANCH  22  29
ATOM     28  N   UNL     1      47.154   3.040   5.089  0.00  0.00    +0.000 N 
ATOM     29  C   UNL     1      47.282   2.294   6.229  0.00  0.00    +0.000 C 
ATOM     30  O   UNL     1      48.010   1.310   6.278  0.00  0.00    +0.000 OA
ATOM     31  H   UNL     1      47.688   2.796   4.269  0.00  0.00    +0.000 HD
ATOM     32  H   UNL     1      46.569   3.869   5.099  0.00  0.00    +0.000 HD
ENDBRANCH  22  29
ENDBRANCH  20  25
ENDBRANCH  19  20
ENDBRANCH   1  19
TORSDOF 8
ENDMDL
MODEL 8
REMARK VINA RESULT:    -6.932      3.193      7.733
REMARK INTER + INTRA:         -11.353
REMARK INTER:                 -10.145
REMARK INTRA:                  -1.208
REMARK UNBOUND:                -1.180
REMARK  Name = 
REMARK  8 active torsions:
REMARK  status: ('A' for Active; 'I' for Inactive)
REMARK    1  A    between atoms: C_2  and  C_4
REMARK    2  A    between atoms: C_7  and  N_8
REMARK    3  A    between atoms: N_8  and  C_9
REMARK    4  A    between atoms: C_9  and  C_10
REMARK    5  A    between atoms: C_10  and  C_13
REMARK    6  A    between atoms: C_15  and  O_16
REMARK    7  A    between atoms: O_16  and  C_17
REMARK    8  A    between atoms: C_22  and  C_23
REMARK                            x       y       z     vdW  Elec       q    Type
REMARK                         _______ _______ _______ _____ _____    ______ ____
ROOT
ATOM      1  C   UNL     1      46.521   7.091  11.579  0.00  0.00    +0.000 C 
ATOM      2  F   UNL     1      46.090   8.257  11.012  0.00  0.00    +0.000 F 
ATOM      3  F   UNL     1      47.876   7.076  11.372  0.00  0.00    +0.000 F 
ENDROOT
BRANCH   1   4
ATOM      4  C   UNL     1      45.838   5.884  10.964  0.00  0.00    +0.000 A 
ATOM      5  C   UNL     1      45.996   5.590   9.596  0.00  0.00    +0.000 A 
ATOM      6  C   UNL     1      45.377   4.470   9.041  0.00  0.00    +0.000 A 
ATOM      7  C   UNL     1      44.616   3.623   9.849  0.00  0.00    +0.000 A 
ATOM      8  C   UNL     1      44.447   3.890  11.213  0.00  0.00    +0.000 A 
ATOM      9  C   UNL     1      45.052   5.033  11.759  0.00  0.00    +0.000 A 
BRANCH   8  10
ATOM     10  C   UNL     1      43.642   2.965  12.095  0.00  0.00    +0.000 C 
ATOM     11  F   UNL     1      42.750   2.197  11.412  0.00  0.00    +0.000 F 
ATOM     12  F   UNL     1      44.429   2.098  12.789  0.00  0.00    +0.000 F 
ATOM     13  F   UNL     1      42.918   3.643  13.026  0.00  0.00    +0.000 F 
ENDBRANCH   8  10
BRANCH   6  14
ATOM     14  O   UNL     1      45.484   4.076   7.734  0.00  0.00    +0.000 OA
BRANCH  14  15
ATOM     15  C   UNL     1      46.695   3.422   7.294  0.00  0.00    +0.000 C 
ATOM     16  C   UNL     1      46.771   2.944   5.837  0.00  0.00    +0.000 C 
ATOM     17  O   UNL     1      47.139   1.605   6.248  0.00  0.00    +0.000 OA
ATOM     18  C   UNL     1      46.782   1.921   7.616  0.00  0.00    +0.000 C 
ENDBRANCH  14  15
ENDBRANCH   6  14
ENDBRANCH   1   4
BRANCH   1  19
ATOM     19  C   UNL     1      46.281   7.158  13.111  0.00  0.00    +0.000 C 
BRANCH  19  20
ATOM     20  N   UNL     1      47.536   7.126  13.883  0.00  0.00    +0.000 N 
ATOM     21  H   UNL     1      48.336   7.537  13.400  0.00  0.00    +0.000 HD
BRANCH  20  25
ATOM     22  C   UNL     1      48.446   4.187  16.671  0.00  0.00    +0.000 A 
ATOM     23  C   UNL     1      47.440   3.913  15.756  0.00  0.00    +0.000 A 
ATOM     24  C   UNL     1      47.135   4.879  14.795  0.00  0.00    +0.000 A 
ATOM     25  C   UNL     1      47.850   6.076  14.737  0.00  0.00    +0.000 A 
ATOM     26  C   UNL     1      48.839   6.243  15.717  0.00  0.00    +0.000 A 
ATOM     27  N   UNL     1      49.164   5.340  16.677  0.00  0.00    +0.000 NA
BRANCH  22  29
ATOM     28  N   UNL     1      48.085   3.368  18.923  0.00  0.00    +0.000 N 
ATOM     29  C   UNL     1      48.758   3.191  17.744  0.00  0.00    +0.000 C 
ATOM     30  O   UNL     1      49.547   2.269  17.583  0.00  0.00    +0.000 OA
ATOM     31  H   UNL     1      48.218   2.711  19.677  0.00  0.00    +0.000 HD
ATOM     32  H   UNL     1      47.412   4.123  19.005  0.00  0.00    +0.000 HD
ENDBRANCH  22  29
ENDBRANCH  20  25
ENDBRANCH  19  20
ENDBRANCH   1  19
TORSDOF 8
ENDMDL
MODEL 9
REMARK VINA RESULT:    -6.573      3.038      4.820
REMARK INTER + INTRA:         -10.827
REMARK INTER:                  -9.503
REMARK INTRA:                  -1.323
REMARK UNBOUND:                -1.180
REMARK  Name = 
REMARK  8 active torsions:
REMARK  status: ('A' for Active; 'I' for Inactive)
REMARK    1  A    between atoms: C_2  and  C_4
REMARK    2  A    between atoms: C_7  and  N_8
REMARK    3  A    between atoms: N_8  and  C_9
REMARK    4  A    between atoms: C_9  and  C_10
REMARK    5  A    between atoms: C_10  and  C_13
REMARK    6  A    between atoms: C_15  and  O_16
REMARK    7  A    between atoms: O_16  and  C_17
REMARK    8  A    between atoms: C_22  and  C_23
REMARK                            x       y       z     vdW  Elec       q    Type
REMARK                         _______ _______ _______ _____ _____    ______ ____
ROOT
ATOM      1  C   UNL     1      47.843   8.386  12.757  0.00  0.00    +0.000 C 
ATOM      2  F   UNL     1      48.066   7.332  11.916  0.00  0.00    +0.000 F 
ATOM      3  F   UNL     1      48.617   9.403  12.264  0.00  0.00    +0.000 F 
ENDROOT
BRANCH   1   4
ATOM      4  C   UNL     1      48.202   8.043  14.191  0.00  0.00    +0.000 A 
ATOM      5  C   UNL     1      48.567   6.730  14.545  0.00  0.00    +0.000 A 
ATOM      6  C   UNL     1      48.910   6.426  15.862  0.00  0.00    +0.000 A 
ATOM      7  C   UNL     1      48.915   7.432  16.831  0.00  0.00    +0.000 A 
ATOM      8  C   UNL     1      48.560   8.747  16.504  0.00  0.00    +0.000 A 
ATOM      9  C   UNL     1      48.191   9.039  15.181  0.00  0.00    +0.000 A 
BRANCH   8  10
ATOM     10  C   UNL     1      48.584   9.842  17.544  0.00  0.00    +0.000 C 
ATOM     11  F   UNL     1      47.416  10.534  17.638  0.00  0.00    +0.000 F 
ATOM     12  F   UNL     1      48.838   9.363  18.793  0.00  0.00    +0.000 F 
ATOM     13  F   UNL     1      49.550  10.767  17.294  0.00  0.00    +0.000 F 
ENDBRANCH   8  10
BRANCH   6  14
ATOM     14  O   UNL     1      49.305   5.194  16.311  0.00  0.00    +0.000 OA
BRANCH  14  15
ATOM     15  C   UNL     1      48.491   4.505  17.285  0.00  0.00    +0.000 C 
ATOM     16  C   UNL     1      48.547   2.971  17.321  0.00  0.00    +0.000 C 
ATOM     17  O   UNL     1      47.106   2.871  17.215  0.00  0.00    +0.000 OA
ATOM     18  C   UNL     1      47.028   4.276  16.870  0.00  0.00    +0.000 C 
ENDBRANCH  14  15
ENDBRANCH   6  14
ENDBRANCH   1   4
BRANCH   1  19
ATOM     19  C   UNL     1      46.359   8.822  12.634  0.00  0.00    +0.000 C 
BRANCH  19  20
ATOM     20  N   UNL     1      45.432   7.852  13.242  0.00  0.00    +0.000 N 
ATOM     21  H   UNL     1      45.482   7.805  14.261  0.00  0.00    +0.000 HD
BRANCH  20  25
ATOM     22  C   UNL     1      44.314   4.187  11.643  0.00  0.00    +0.000 A 
ATOM     23  C   UNL     1      44.024   5.323  10.904  0.00  0.00    +0.000 A 
ATOM     24  C   UNL     1      44.414   6.563  11.413  0.00  0.00    +0.000 A 
ATOM     25  C   UNL     1      45.107   6.652  12.621  0.00  0.00    +0.000 A 
ATOM     26  C   UNL     1      45.337   5.437  13.281  0.00  0.00    +0.000 A 
ATOM     27  N   UNL     1      44.969   4.209  12.833  0.00  0.00    +0.000 NA
BRANCH  22  29
ATOM     28  N   UNL     1      44.621   2.306  10.146  0.00  0.00    +0.000 N 
ATOM     29  C   UNL     1      43.861   2.849  11.147  0.00  0.00    +0.000 C 
ATOM     30  O   UNL     1      42.890   2.265  11.609  0.00  0.00    +0.000 OA
ATOM     31  H   UNL     1      44.397   1.389   9.790  0.00  0.00    +0.000 HD
ATOM     32  H   UNL     1      45.440   2.804   9.814  0.00  0.00    +0.000 HD
ENDBRANCH  22  29
ENDBRANCH  20  25
ENDBRANCH  19  20
ENDBRANCH   1  19
TORSDOF 8
ENDMDL
