MODEL 1
REMARK VINA RESULT:    -9.469      0.000      0.000
REMARK INTER + INTRA:         -13.886
REMARK INTER:                 -12.790
REMARK INTRA:                  -1.097
REMARK UNBOUND:                -1.097
REMARK  Name = 
REMARK  6 active torsions:
REMARK  status: ('A' for Active; 'I' for Inactive)
REMARK    1  A    between atoms: C_2  and  C_4
REMARK    2  A    between atoms: C_7  and  N_8
REMARK    3  A    between atoms: N_8  and  C_9
REMARK    4  A    between atoms: C_9  and  C_10
REMARK    5  A    between atoms: C_10  and  C_13
REMARK    6  A    between atoms: C_17  and  C_18
REMARK                            x       y       z     vdW  Elec       q    Type
REMARK                         _______ _______ _______ _____ _____    ______ ____
ROOT
ATOM      1  C   UNL     1      43.576   5.549  12.168  0.00  0.00    +0.000 C 
ATOM      2  F   UNL     1      43.045   6.593  11.470  0.00  0.00    +0.000 F 
ATOM      3  F   UNL     1      42.865   5.496  13.337  0.00  0.00    +0.000 F 
ENDROOT
BRANCH   1   4
ATOM      4  C   UNL     1      45.064   5.712  12.404  0.00  0.00    +0.000 A 
ATOM      5  C   UNL     1      45.842   6.512  11.558  0.00  0.00    +0.000 A 
ATOM      6  C   UNL     1      47.189   6.725  11.840  0.00  0.00    +0.000 A 
ATOM      7  C   UNL     1      47.767   6.151  12.975  0.00  0.00    +0.000 A 
ATOM      8  C   UNL     1      47.021   5.342  13.852  0.00  0.00    +0.000 A 
ATOM      9  C   UNL     1      45.666   5.124  13.531  0.00  0.00    +0.000 A 
BRANCH   8  10
ATOM     10  C   UNL     1      47.619   4.766  15.073  0.00  0.00    +0.000 A 
ATOM     11  N   UNL     1      47.409   3.457  15.325  0.00  0.00    +0.000 NA
ATOM     12  C   UNL     1      47.994   2.959  16.430  0.00  0.00    +0.000 A 
ATOM     13  C   UNL     1      48.770   3.705  17.284  0.00  0.00    +0.000 A 
ATOM     14  C   UNL     1      48.924   5.026  16.939  0.00  0.00    +0.000 A 
ATOM     15  N   UNL     1      48.368   5.577  15.846  0.00  0.00    +0.000 NA
ENDBRANCH   8  10
ENDBRANCH   1   4
BRANCH   1  16
ATOM     16  C   UNL     1      43.324   4.232  11.389  0.00  0.00    +0.000 C 
BRANCH  16  17
ATOM     17  N   UNL     1      43.427   4.378   9.929  0.00  0.00    +0.000 N 
ATOM     18  H   UNL     1      42.534   4.347   9.437  0.00  0.00    +0.000 HD
BRANCH  17  22
ATOM     19  C   UNL     1      46.459   2.487   7.690  0.00  0.00    +0.000 A 
ATOM     20  C   UNL     1      46.342   3.877   7.649  0.00  0.00    +0.000 A 
ATOM     21  C   UNL     1      45.351   4.517   8.401  0.00  0.00    +0.000 A 
ATOM     22  C   UNL     1      44.481   3.797   9.228  0.00  0.00    +0.000 A 
ATOM     23  C   UNL     1      44.599   2.399   9.237  0.00  0.00    +0.000 A 
ATOM     24  C   UNL     1      45.573   1.745   8.473  0.00  0.00    +0.000 A 
BRANCH  19  26
ATOM     25  N   UNL     1      48.577   2.492   6.497  0.00  0.00    +0.000 N 
ATOM     26  C   UNL     1      47.481   1.773   6.884  0.00  0.00    +0.000 C 
ATOM     27  O   UNL     1      47.371   0.586   6.603  0.00  0.00    +0.000 OA
ATOM     28  H   UNL     1      49.316   1.973   6.038  0.00  0.00    +0.000 HD
ATOM     29  H   UNL     1      48.818   3.377   6.920  0.00  0.00    +0.000 HD
ENDBRANCH  19  26
ENDBRANCH  17  22
ENDBRANCH  16  17
ENDBRANCH   1  16
TORSDOF 6
ENDMDL
MODEL 2
REMARK VINA RESULT:    -9.437      0.150      1.328
REMARK INTER + INTRA:         -13.844
REMARK INTER:                 -12.856
REMARK INTRA:                  -0.987
REMARK UNBOUND:                -1.097
REMARK  Name = 
REMARK  6 active torsions:
REMARK  status: ('A' for Active; 'I' for Inactive)
REMARK    1  A    between atoms: C_2  and  C_4
REMARK    2  A    between atoms: C_7  and  N_8
REMARK    3  A    between atoms: N_8  and  C_9
REMARK    4  A    between atoms: C_9  and  C_10
REMARK    5  A    between atoms: C_10  and  C_13
REMARK    6  A    between atoms: C_17  and  C_18
REMARK                            x       y       z     vdW  Elec       q    Type
REMARK                         _______ _______ _______ _____ _____    ______ ____
ROOT
ATOM      1  C   UNL     1      43.611   5.523  12.284  0.00  0.00    +0.000 C 
ATOM      2  F   UNL     1      43.050   6.642  11.742  0.00  0.00    +0.000 F 
ATOM      3  F   UNL     1      42.927   5.302  13.449  0.00  0.00    +0.000 F 
ENDROOT
BRANCH   1   4
ATOM      4  C   UNL     1      45.102   5.678  12.511  0.00  0.00    +0.000 A 
ATOM      5  C   UNL     1      45.876   6.485  11.669  0.00  0.00    +0.000 A 
ATOM      6  C   UNL     1      47.225   6.690  11.943  0.00  0.00    +0.000 A 
ATOM      7  C   UNL     1      47.810   6.100  13.067  0.00  0.00    +0.000 A 
ATOM      8  C   UNL     1      47.068   5.284  13.940  0.00  0.00    +0.000 A 
ATOM      9  C   UNL     1      45.710   5.074  13.626  0.00  0.00    +0.000 A 
BRANCH   8  10
ATOM     10  C   UNL     1      47.672   4.691  15.149  0.00  0.00    +0.000 A 
ATOM     11  N   UNL     1      48.364   5.503  15.976  0.00  0.00    +0.000 NA
ATOM     12  C   UNL     1      48.875   4.936  17.083  0.00  0.00    +0.000 A 
ATOM     13  C   UNL     1      48.728   3.606  17.396  0.00  0.00    +0.000 A 
ATOM     14  C   UNL     1      48.006   2.864  16.492  0.00  0.00    +0.000 A 
ATOM     15  N   UNL     1      47.469   3.377  15.372  0.00  0.00    +0.000 NA
ENDBRANCH   8  10
ENDBRANCH   1   4
BRANCH   1  16
ATOM     16  C   UNL     1      43.361   4.317  11.341  0.00  0.00    +0.000 C 
BRANCH  16  17
ATOM     17  N   UNL     1      43.591   4.619   9.920  0.00  0.00    +0.000 N 
ATOM     18  H   UNL     1      42.757   4.906   9.408  0.00  0.00    +0.000 HD
BRANCH  17  22
ATOM     19  C   UNL     1      46.476   2.452   7.737  0.00  0.00    +0.000 A 
ATOM     20  C   UNL     1      45.587   1.767   8.568  0.00  0.00    +0.000 A 
ATOM     21  C   UNL     1      44.615   2.474   9.284  0.00  0.00    +0.000 A 
ATOM     22  C   UNL     1      44.486   3.863   9.167  0.00  0.00    +0.000 A 
ATOM     23  C   UNL     1      45.404   4.536   8.347  0.00  0.00    +0.000 A 
ATOM     24  C   UNL     1      46.395   3.842   7.642  0.00  0.00    +0.000 A 
BRANCH  19  26
ATOM     25  N   UNL     1      48.553   2.498   6.475  0.00  0.00    +0.000 N 
ATOM     26  C   UNL     1      47.538   1.738   6.985  0.00  0.00    +0.000 C 
ATOM     27  O   UNL     1      47.530   0.521   6.852  0.00  0.00    +0.000 OA
ATOM     28  H   UNL     1      49.325   1.994   6.055  0.00  0.00    +0.000 HD
ATOM     29  H   UNL     1      48.723   3.446   6.781  0.00  0.00    +0.000 HD
ENDBRANCH  19  26
ENDBRANCH  17  22
ENDBRANCH  16  17
ENDBRANCH   1  16
TORSDOF 6
ENDMDL
MODEL 3
REMARK VINA RESULT:    -8.754      2.063      3.504
REMARK INTER + INTRA:         -12.921
REMARK INTER:                 -11.896
REMARK INTRA:                  -1.025
REMARK UNBOUND:                -1.097
REMARK  Name = 
REMARK  6 active torsions:
REMARK  status: ('A' for Active; 'I' for Inactive)
REMARK    1  A    between atoms: C_2  and  C_4
REMARK    2  A    between atoms: C_7  and  N_8
REMARK    3  A    between atoms: N_8  and  C_9
REMARK    4  A    between atoms: C_9  and  C_10
REMARK    5  A    between atoms: C_10  and  C_13
REMARK    6  A    between atoms: C_17  and  C_18
REMARK                            x       y       z     vdW  Elec       q    Type
REMARK                         _______ _______ _______ _____ _____    ______ ____
ROOT
ATOM      1  C   UNL     1      43.405   5.170  12.475  0.00  0.00    +0.000 C 
ATOM      2  F   UNL     1      42.783   6.243  11.908  0.00  0.00    +0.000 F 
ATOM      3  F   UNL     1      42.642   4.844  13.565  0.00  0.00    +0.000 F 
ENDROOT
BRANCH   1   4
ATOM      4  C   UNL     1      44.844   5.468  12.846  0.00  0.00    +0.000 A 
ATOM      5  C   UNL     1      45.641   4.499  13.466  0.00  0.00    +0.000 A 
ATOM      6  C   UNL     1      46.986   4.756  13.719  0.00  0.00    +0.000 A 
ATOM      7  C   UNL     1      47.548   5.979  13.344  0.00  0.00    +0.000 A 
ATOM      8  C   UNL     1      46.783   6.980  12.718  0.00  0.00    +0.000 A 
ATOM      9  C   UNL     1      45.419   6.702  12.495  0.00  0.00    +0.000 A 
BRANCH   8  10
ATOM     10  C   UNL     1      47.382   8.258  12.285  0.00  0.00    +0.000 A 
ATOM     11  N   UNL     1      48.623   8.229  11.754  0.00  0.00    +0.000 NA
ATOM     12  C   UNL     1      49.126   9.407  11.343  0.00  0.00    +0.000 A 
ATOM     13  C   UNL     1      48.451  10.600  11.439  0.00  0.00    +0.000 A 
ATOM     14  C   UNL     1      47.195  10.523  11.992  0.00  0.00    +0.000 A 
ATOM     15  N   UNL     1      46.640   9.375  12.416  0.00  0.00    +0.000 NA
ENDBRANCH   8  10
ENDBRANCH   1   4
BRANCH   1  16
ATOM     16  C   UNL     1      43.369   3.976  11.486  0.00  0.00    +0.000 C 
BRANCH  16  17
ATOM     17  N   UNL     1      43.582   4.362  10.083  0.00  0.00    +0.000 N 
ATOM     18  H   UNL     1      42.724   4.535   9.558  0.00  0.00    +0.000 HD
BRANCH  17  22
ATOM     19  C   UNL     1      46.503   2.474   7.699  0.00  0.00    +0.000 A 
ATOM     20  C   UNL     1      46.376   3.864   7.656  0.00  0.00    +0.000 A 
ATOM     21  C   UNL     1      45.422   4.503   8.455  0.00  0.00    +0.000 A 
ATOM     22  C   UNL     1      44.600   3.783   9.331  0.00  0.00    +0.000 A 
ATOM     23  C   UNL     1      44.727   2.386   9.342  0.00  0.00    +0.000 A 
ATOM     24  C   UNL     1      45.663   1.733   8.531  0.00  0.00    +0.000 A 
BRANCH  19  26
ATOM     25  N   UNL     1      48.564   2.479   6.410  0.00  0.00    +0.000 N 
ATOM     26  C   UNL     1      47.485   1.761   6.844  0.00  0.00    +0.000 C 
ATOM     27  O   UNL     1      47.359   0.576   6.565  0.00  0.00    +0.000 OA
ATOM     28  H   UNL     1      49.280   1.961   5.917  0.00  0.00    +0.000 HD
ATOM     29  H   UNL     1      48.826   3.362   6.825  0.00  0.00    +0.000 HD
ENDBRANCH  19  26
ENDBRANCH  17  22
ENDBRANCH  16  17
ENDBRANCH   1  16
TORSDOF 6
ENDMDL
MODEL 4
REMARK VINA RESULT:    -8.674      1.104      1.609
REMARK INTER + INTRA:         -12.813
REMARK INTER:                 -11.727
REMARK INTRA:                  -1.086
REMARK UNBOUND:                -1.097
REMARK  Name = 
REMARK  6 active torsions:
REMARK  status: ('A' for Active; 'I' for Inactive)
REMARK    1  A    between atoms: C_2  and  C_4
REMARK    2  A    between atoms: C_7  and  N_8
REMARK    3  A    between atoms: N_8  and  C_9
REMARK    4  A    between atoms: C_9  and  C_10
REMARK    5  A    between atoms: C_10  and  C_13
REMARK    6  A    between atoms: C_17  and  C_18
REMARK                            x       y       z     vdW  Elec       q    Type
REMARK                         _______ _______ _______ _____ _____    ______ ____
ROOT
ATOM      1  C   UNL     1      44.134   4.890  12.504  0.00  0.00    +0.000 C 
ATOM      2  F   UNL     1      43.235   5.478  13.345  0.00  0.00    +0.000 F 
ATOM      3  F   UNL     1      44.230   3.591  12.927  0.00  0.00    +0.000 F 
ENDROOT
BRANCH   1   4
ATOM      4  C   UNL     1      45.475   5.598  12.509  0.00  0.00    +0.000 A 
ATOM      5  C   UNL     1      45.830   6.472  11.475  0.00  0.00    +0.000 A 
ATOM      6  C   UNL     1      47.025   7.183  11.538  0.00  0.00    +0.000 A 
ATOM      7  C   UNL     1      47.869   7.038  12.642  0.00  0.00    +0.000 A 
ATOM      8  C   UNL     1      47.550   6.172  13.704  0.00  0.00    +0.000 A 
ATOM      9  C   UNL     1      46.346   5.447  13.603  0.00  0.00    +0.000 A 
BRANCH   8  10
ATOM     10  C   UNL     1      48.420   6.046  14.889  0.00  0.00    +0.000 A 
ATOM     11  N   UNL     1      49.516   6.831  14.959  0.00  0.00    +0.000 NA
ATOM     12  C   UNL     1      50.270   6.711  16.066  0.00  0.00    +0.000 A 
ATOM     13  C   UNL     1      49.980   5.850  17.097  0.00  0.00    +0.000 A 
ATOM     14  C   UNL     1      48.843   5.096  16.932  0.00  0.00    +0.000 A 
ATOM     15  N   UNL     1      48.049   5.176  15.850  0.00  0.00    +0.000 NA
ENDBRANCH   8  10
ENDBRANCH   1   4
BRANCH   1  16
ATOM     16  C   UNL     1      43.563   4.888  11.063  0.00  0.00    +0.000 C 
BRANCH  16  17
ATOM     17  N   UNL     1      43.669   3.587  10.386  0.00  0.00    +0.000 N 
ATOM     18  H   UNL     1      43.441   2.785  10.974  0.00  0.00    +0.000 HD
BRANCH  17  22
ATOM     19  C   UNL     1      46.587   2.723   7.467  0.00  0.00    +0.000 A 
ATOM     20  C   UNL     1      46.291   4.054   7.769  0.00  0.00    +0.000 A 
ATOM     21  C   UNL     1      45.338   4.353   8.748  0.00  0.00    +0.000 A 
ATOM     22  C   UNL     1      44.683   3.343   9.464  0.00  0.00    +0.000 A 
ATOM     23  C   UNL     1      44.976   2.013   9.129  0.00  0.00    +0.000 A 
ATOM     24  C   UNL     1      45.913   1.701   8.137  0.00  0.00    +0.000 A 
BRANCH  19  26
ATOM     25  N   UNL     1      47.392   2.932   5.183  0.00  0.00    +0.000 N 
ATOM     26  C   UNL     1      47.573   2.370   6.415  0.00  0.00    +0.000 C 
ATOM     27  O   UNL     1      48.527   1.636   6.642  0.00  0.00    +0.000 OA
ATOM     28  H   UNL     1      48.124   2.770   4.503  0.00  0.00    +0.000 HD
ATOM     29  H   UNL     1      46.782   3.725   5.036  0.00  0.00    +0.000 HD
ENDBRANCH  19  26
ENDBRANCH  17  22
ENDBRANCH  16  17
ENDBRANCH   1  16
TORSDOF 6
ENDMDL
MODEL 5
REMARK VINA RESULT:    -8.663      1.221      1.820
REMARK INTER + INTRA:         -12.798
REMARK INTER:                 -11.704
REMARK INTRA:                  -1.094
REMARK UNBOUND:                -1.097
REMARK  Name = 
REMARK  6 active torsions:
REMARK  status: ('A' for Active; 'I' for Inactive)
REMARK    1  A    between atoms: C_2  and  C_4
REMARK    2  A    between atoms: C_7  and  N_8
REMARK    3  A    between atoms: N_8  and  C_9
REMARK    4  A    between atoms: C_9  and  C_10
REMARK    5  A    between atoms: C_10  and  C_13
REMARK    6  A    between atoms: C_17  and  C_18
REMARK                            x       y       z     vdW  Elec       q    Type
REMARK                         _______ _______ _______ _____ _____    ______ ____
ROOT
ATOM      1  C   UNL     1      44.714   4.770  12.407  0.00  0.00    +0.000 C 
ATOM      2  F   UNL     1      43.860   5.003  13.445  0.00  0.00    +0.000 F 
ATOM      3  F   UNL     1      44.951   3.422  12.428  0.00  0.00    +0.000 F 
ENDROOT
BRANCH   1   4
ATOM      4  C   UNL     1      45.989   5.582  12.517  0.00  0.00    +0.000 A 
ATOM      5  C   UNL     1      46.319   6.537  11.548  0.00  0.00    +0.000 A 
ATOM      6  C   UNL     1      47.446   7.337  11.708  0.00  0.00    +0.000 A 
ATOM      7  C   UNL     1      48.247   7.199  12.845  0.00  0.00    +0.000 A 
ATOM      8  C   UNL     1      47.951   6.254  13.844  0.00  0.00    +0.000 A 
ATOM      9  C   UNL     1      46.817   5.440  13.645  0.00  0.00    +0.000 A 
BRANCH   8  10
ATOM     10  C   UNL     1      48.772   6.133  15.065  0.00  0.00    +0.000 A 
ATOM     11  N   UNL     1      48.340   5.308  16.042  0.00  0.00    +0.000 NA
ATOM     12  C   UNL     1      49.128   5.199  17.126  0.00  0.00    +0.000 A 
ATOM     13  C   UNL     1      50.317   5.872  17.276  0.00  0.00    +0.000 A 
ATOM     14  C   UNL     1      50.670   6.685  16.225  0.00  0.00    +0.000 A 
ATOM     15  N   UNL     1      49.925   6.830  15.116  0.00  0.00    +0.000 NA
ENDBRANCH   8  10
ENDBRANCH   1   4
BRANCH   1  16
ATOM     16  C   UNL     1      44.003   5.114  11.072  0.00  0.00    +0.000 C 
BRANCH  16  17
ATOM     17  N   UNL     1      43.681   3.937  10.252  0.00  0.00    +0.000 N 
ATOM     18  H   UNL     1      43.168   3.206  10.745  0.00  0.00    +0.000 HD
BRANCH  17  22
ATOM     19  C   UNL     1      46.588   2.620   7.495  0.00  0.00    +0.000 A 
ATOM     20  C   UNL     1      45.931   1.686   8.299  0.00  0.00    +0.000 A 
ATOM     21  C   UNL     1      44.953   2.109   9.205  0.00  0.00    +0.000 A 
ATOM     22  C   UNL     1      44.587   3.456   9.309  0.00  0.00    +0.000 A 
ATOM     23  C   UNL     1      45.274   4.382   8.511  0.00  0.00    +0.000 A 
ATOM     24  C   UNL     1      46.270   3.974   7.616  0.00  0.00    +0.000 A 
BRANCH  19  26
ATOM     25  N   UNL     1      47.797   2.968   5.416  0.00  0.00    +0.000 N 
ATOM     26  C   UNL     1      47.651   2.210   6.543  0.00  0.00    +0.000 C 
ATOM     27  O   UNL     1      48.388   1.258   6.767  0.00  0.00    +0.000 OA
ATOM     28  H   UNL     1      48.589   2.746   4.825  0.00  0.00    +0.000 HD
ATOM     29  H   UNL     1      47.390   3.889   5.328  0.00  0.00    +0.000 HD
ENDBRANCH  19  26
ENDBRANCH  17  22
ENDBRANCH  16  17
ENDBRANCH   1  16
TORSDOF 6
ENDMDL
MODEL 6
REMARK VINA RESULT:    -8.466      2.818      4.718
REMARK INTER + INTRA:         -12.532
REMARK INTER:                 -11.708
REMARK INTRA:                  -0.825
REMARK UNBOUND:                -1.097
REMARK  Name = 
REMARK  6 active torsions:
REMARK  status: ('A' for Active; 'I' for Inactive)
REMARK    1  A    between atoms: C_2  and  C_4
REMARK    2  A    between atoms: C_7  and  N_8
REMARK    3  A    between atoms: N_8  and  C_9
REMARK    4  A    between atoms: C_9  and  C_10
REMARK    5  A    between atoms: C_10  and  C_13
REMARK    6  A    between atoms: C_17  and  C_18
REMARK                            x       y       z     vdW  Elec       q    Type
REMARK                         _______ _______ _______ _____ _____    ______ ____
ROOT
ATOM      1  C   UNL     1      44.188   4.282  12.501  0.00  0.00    +0.000 C 
ATOM      2  F   UNL     1      43.475   4.272  13.663  0.00  0.00    +0.000 F 
ATOM      3  F   UNL     1      44.942   3.139  12.529  0.00  0.00    +0.000 F 
ENDROOT
BRANCH   1   4
ATOM      4  C   UNL     1      45.036   5.530  12.357  0.00  0.00    +0.000 A 
ATOM      5  C   UNL     1      46.432   5.465  12.451  0.00  0.00    +0.000 A 
ATOM      6  C   UNL     1      47.202   6.602  12.228  0.00  0.00    +0.000 A 
ATOM      7  C   UNL     1      46.586   7.812  11.898  0.00  0.00    +0.000 A 
ATOM      8  C   UNL     1      45.187   7.921  11.791  0.00  0.00    +0.000 A 
ATOM      9  C   UNL     1      44.430   6.760  12.045  0.00  0.00    +0.000 A 
BRANCH   8  10
ATOM     10  C   UNL     1      44.536   9.188  11.404  0.00  0.00    +0.000 A 
ATOM     11  N   UNL     1      43.426   9.123  10.639  0.00  0.00    +0.000 NA
ATOM     12  C   UNL     1      42.841  10.294  10.330  0.00  0.00    +0.000 A 
ATOM     13  C   UNL     1      43.314  11.516  10.747  0.00  0.00    +0.000 A 
ATOM     14  C   UNL     1      44.448  11.475  11.522  0.00  0.00    +0.000 A 
ATOM     15  N   UNL     1      45.072  10.335  11.865  0.00  0.00    +0.000 NA
ENDBRANCH   8  10
ENDBRANCH   1   4
BRANCH   1  16
ATOM     16  C   UNL     1      43.212   4.187  11.300  0.00  0.00    +0.000 C 
BRANCH  16  17
ATOM     17  N   UNL     1      43.759   4.731  10.047  0.00  0.00    +0.000 N 
ATOM     18  H   UNL     1      43.120   5.340   9.536  0.00  0.00    +0.000 HD
BRANCH  17  22
ATOM     19  C   UNL     1      46.422   2.486   7.670  0.00  0.00    +0.000 A 
ATOM     20  C   UNL     1      45.518   1.822   8.501  0.00  0.00    +0.000 A 
ATOM     21  C   UNL     1      44.618   2.556   9.281  0.00  0.00    +0.000 A 
ATOM     22  C   UNL     1      44.577   3.954   9.230  0.00  0.00    +0.000 A 
ATOM     23  C   UNL     1      45.510   4.604   8.408  0.00  0.00    +0.000 A 
ATOM     24  C   UNL     1      46.429   3.881   7.639  0.00  0.00    +0.000 A 
BRANCH  19  26
ATOM     25  N   UNL     1      48.559   2.399   6.514  0.00  0.00    +0.000 N 
ATOM     26  C   UNL     1      47.410   1.740   6.850  0.00  0.00    +0.000 C 
ATOM     27  O   UNL     1      47.226   0.577   6.515  0.00  0.00    +0.000 OA
ATOM     28  H   UNL     1      49.270   1.852   6.045  0.00  0.00    +0.000 HD
ATOM     29  H   UNL     1      48.850   3.247   6.981  0.00  0.00    +0.000 HD
ENDBRANCH  19  26
ENDBRANCH  17  22
ENDBRANCH  16  17
ENDBRANCH   1  16
TORSDOF 6
ENDMDL
MODEL 7
REMARK VINA RESULT:    -8.042      1.917      2.908
REMARK INTER + INTRA:         -11.960
REMARK INTER:                 -11.123
REMARK INTRA:                  -0.836
REMARK UNBOUND:                -1.097
REMARK  Name = 
REMARK  6 active torsions:
REMARK  status: ('A' for Active; 'I' for Inactive)
REMARK    1  A    between atoms: C_2  and  C_4
REMARK    2  A    between atoms: C_7  and  N_8
REMARK    3  A    between atoms: N_8  and  C_9
REMARK    4  A    between atoms: C_9  and  C_10
REMARK    5  A    between atoms: C_10  and  C_13
REMARK    6  A    between atoms: C_17  and  C_18
REMARK                            x       y       z     vdW  Elec       q    Type
REMARK                         _______ _______ _______ _____ _____    ______ ____
ROOT
ATOM      1  C   UNL     1      44.919   6.314  11.551  0.00  0.00    +0.000 C 
ATOM      2  F   UNL     1      45.638   6.610  10.430  0.00  0.00    +0.000 F 
ATOM      3  F   UNL     1      44.148   7.420  11.790  0.00  0.00    +0.000 F 
ENDROOT
BRANCH   1   4
ATOM      4  C   UNL     1      45.807   5.964  12.729  0.00  0.00    +0.000 A 
ATOM      5  C   UNL     1      45.643   4.757  13.419  0.00  0.00    +0.000 A 
ATOM      6  C   UNL     1      46.523   4.410  14.440  0.00  0.00    +0.000 A 
ATOM      7  C   UNL     1      47.581   5.259  14.772  0.00  0.00    +0.000 A 
ATOM      8  C   UNL     1      47.784   6.480  14.103  0.00  0.00    +0.000 A 
ATOM      9  C   UNL     1      46.864   6.819  13.090  0.00  0.00    +0.000 A 
BRANCH   8  10
ATOM     10  C   UNL     1      48.924   7.361  14.425  0.00  0.00    +0.000 A 
ATOM     11  N   UNL     1      48.834   8.664  14.087  0.00  0.00    +0.000 NA
ATOM     12  C   UNL     1      49.878   9.444  14.422  0.00  0.00    +0.000 A 
ATOM     13  C   UNL     1      50.996   8.982  15.074  0.00  0.00    +0.000 A 
ATOM     14  C   UNL     1      50.990   7.641  15.376  0.00  0.00    +0.000 A 
ATOM     15  N   UNL     1      49.974   6.816  15.070  0.00  0.00    +0.000 NA
ENDBRANCH   8  10
ENDBRANCH   1   4
BRANCH   1  16
ATOM     16  C   UNL     1      43.973   5.121  11.253  0.00  0.00    +0.000 C 
BRANCH  16  17
ATOM     17  N   UNL     1      43.765   4.875   9.818  0.00  0.00    +0.000 N 
ATOM     18  H   UNL     1      42.788   4.885   9.525  0.00  0.00    +0.000 HD
BRANCH  17  22
ATOM     19  C   UNL     1      46.343   2.205   7.817  0.00  0.00    +0.000 A 
ATOM     20  C   UNL     1      45.422   1.707   8.741  0.00  0.00    +0.000 A 
ATOM     21  C   UNL     1      44.550   2.581   9.398  0.00  0.00    +0.000 A 
ATOM     22  C   UNL     1      44.554   3.956   9.131  0.00  0.00    +0.000 A 
ATOM     23  C   UNL     1      45.502   4.439   8.218  0.00  0.00    +0.000 A 
ATOM     24  C   UNL     1      46.395   3.577   7.570  0.00  0.00    +0.000 A 
BRANCH  19  26
ATOM     25  N   UNL     1      48.353   1.905   6.483  0.00  0.00    +0.000 N 
ATOM     26  C   UNL     1      47.303   1.309   7.122  0.00  0.00    +0.000 C 
ATOM     27  O   UNL     1      47.184   0.091   7.145  0.00  0.00    +0.000 OA
ATOM     28  H   UNL     1      49.057   1.286   6.102  0.00  0.00    +0.000 HD
ATOM     29  H   UNL     1      48.618   2.864   6.660  0.00  0.00    +0.000 HD
ENDBRANCH  19  26
ENDBRANCH  17  22
ENDBRANCH  16  17
ENDBRANCH   1  16
TORSDOF 6
ENDMDL
MODEL 8
REMARK VINA RESULT:    -7.986      2.012      2.664
REMARK INTER + INTRA:         -11.885
REMARK INTER:                 -11.303
REMARK INTRA:                  -0.582
REMARK UNBOUND:                -1.097
REMARK  Name = 
REMARK  6 active torsions:
REMARK  status: ('A' for Active; 'I' for Inactive)
REMARK    1  A    between atoms: C_2  and  C_4
REMARK    2  A    between atoms: C_7  and  N_8
REMARK    3  A    between atoms: N_8  and  C_9
REMARK    4  A    between atoms: C_9  and  C_10
REMARK    5  A    between atoms: C_10  and  C_13
REMARK    6  A    between atoms: C_17  and  C_18
REMARK                            x       y       z     vdW  Elec       q    Type
REMARK                         _______ _______ _______ _____ _____    ______ ____
ROOT
ATOM      1  C   UNL     1      43.724   4.808  12.531  0.00  0.00    +0.000 C 
ATOM      2  F   UNL     1      42.720   5.006  13.433  0.00  0.00    +0.000 F 
ATOM      3  F   UNL     1      44.531   3.854  13.091  0.00  0.00    +0.000 F 
ENDROOT
BRANCH   1   4
ATOM      4  C   UNL     1      44.475   6.086  12.216  0.00  0.00    +0.000 A 
ATOM      5  C   UNL     1      43.829   7.166  11.601  0.00  0.00    +0.000 A 
ATOM      6  C   UNL     1      44.507   8.364  11.400  0.00  0.00    +0.000 A 
ATOM      7  C   UNL     1      45.832   8.500  11.823  0.00  0.00    +0.000 A 
ATOM      8  C   UNL     1      46.518   7.441  12.446  0.00  0.00    +0.000 A 
ATOM      9  C   UNL     1      45.815   6.231  12.616  0.00  0.00    +0.000 A 
BRANCH   8  10
ATOM     10  C   UNL     1      47.904   7.594  12.929  0.00  0.00    +0.000 A 
ATOM     11  N   UNL     1      48.214   7.087  14.141  0.00  0.00    +0.000 NA
ATOM     12  C   UNL     1      49.493   7.217  14.536  0.00  0.00    +0.000 A 
ATOM     13  C   UNL     1      50.467   7.825  13.781  0.00  0.00    +0.000 A 
ATOM     14  C   UNL     1      50.052   8.307  12.562  0.00  0.00    +0.000 A 
ATOM     15  N   UNL     1      48.789   8.202  12.114  0.00  0.00    +0.000 NA
ENDBRANCH   8  10
ENDBRANCH   1   4
BRANCH   1  16
ATOM     16  C   UNL     1      43.129   4.229  11.221  0.00  0.00    +0.000 C 
BRANCH  16  17
ATOM     17  N   UNL     1      43.761   4.754  10.001  0.00  0.00    +0.000 N 
ATOM     18  H   UNL     1      43.137   5.293   9.401  0.00  0.00    +0.000 HD
BRANCH  17  22
ATOM     19  C   UNL     1      46.443   2.356   7.802  0.00  0.00    +0.000 A 
ATOM     20  C   UNL     1      46.475   3.743   7.645  0.00  0.00    +0.000 A 
ATOM     21  C   UNL     1      45.602   4.550   8.382  0.00  0.00    +0.000 A 
ATOM     22  C   UNL     1      44.705   4.002   9.307  0.00  0.00    +0.000 A 
ATOM     23  C   UNL     1      44.671   2.606   9.433  0.00  0.00    +0.000 A 
ATOM     24  C   UNL     1      45.525   1.786   8.686  0.00  0.00    +0.000 A 
BRANCH  19  26
ATOM     25  N   UNL     1      48.435   2.043   6.445  0.00  0.00    +0.000 N 
ATOM     26  C   UNL     1      47.336   1.467   7.016  0.00  0.00    +0.000 C 
ATOM     27  O   UNL     1      47.122   0.266   6.909  0.00  0.00    +0.000 OA
ATOM     28  H   UNL     1      49.092   1.414   6.000  0.00  0.00    +0.000 HD
ATOM     29  H   UNL     1      48.772   2.954   6.723  0.00  0.00    +0.000 HD
ENDBRANCH  19  26
ENDBRANCH  17  22
ENDBRANCH  16  17
ENDBRANCH   1  16
TORSDOF 6
ENDMDL
MODEL 9
REMARK VINA RESULT:    -7.735      2.811      7.194
REMARK INTER + INTRA:         -11.545
REMARK INTER:                 -10.528
REMARK INTRA:                  -1.017
REMARK UNBOUND:                -1.097
REMARK  Name = 
REMARK  6 active torsions:
REMARK  status: ('A' for Active; 'I' for Inactive)
REMARK    1  A    between atoms: C_2  and  C_4
REMARK    2  A    between atoms: C_7  and  N_8
REMARK    3  A    between atoms: N_8  and  C_9
REMARK    4  A    between atoms: C_9  and  C_10
REMARK    5  A    between atoms: C_10  and  C_13
REMARK    6  A    between atoms: C_17  and  C_18
REMARK                            x       y       z     vdW  Elec       q    Type
REMARK                         _______ _______ _______ _____ _____    ______ ____
ROOT
ATOM      1  C   UNL     1      45.705   7.928  12.031  0.00  0.00    +0.000 C 
ATOM      2  F   UNL     1      45.352   8.289  13.298  0.00  0.00    +0.000 F 
ATOM      3  F   UNL     1      45.457   9.031  11.258  0.00  0.00    +0.000 F 
ENDROOT
BRANCH   1   4
ATOM      4  C   UNL     1      44.950   6.705  11.550  0.00  0.00    +0.000 A 
ATOM      5  C   UNL     1      43.635   6.462  11.966  0.00  0.00    +0.000 A 
ATOM      6  C   UNL     1      42.924   5.385  11.446  0.00  0.00    +0.000 A 
ATOM      7  C   UNL     1      43.516   4.547  10.497  0.00  0.00    +0.000 A 
ATOM      8  C   UNL     1      44.834   4.756  10.050  0.00  0.00    +0.000 A 
ATOM      9  C   UNL     1      45.539   5.840  10.610  0.00  0.00    +0.000 A 
BRANCH   8  10
ATOM     10  C   UNL     1      45.448   3.897   9.019  0.00  0.00    +0.000 A 
ATOM     11  N   UNL     1      46.038   4.495   7.963  0.00  0.00    +0.000 NA
ATOM     12  C   UNL     1      46.614   3.683   7.058  0.00  0.00    +0.000 A 
ATOM     13  C   UNL     1      46.624   2.312   7.162  0.00  0.00    +0.000 A 
ATOM     14  C   UNL     1      45.999   1.800   8.273  0.00  0.00    +0.000 A 
ATOM     15  N   UNL     1      45.411   2.563   9.211  0.00  0.00    +0.000 NA
ENDBRANCH   8  10
ENDBRANCH   1   4
BRANCH   1  16
ATOM     16  C   UNL     1      47.228   7.639  11.986  0.00  0.00    +0.000 C 
BRANCH  16  17
ATOM     17  N   UNL     1      47.872   7.652  13.308  0.00  0.00    +0.000 N 
ATOM     18  H   UNL     1      48.744   8.181  13.348  0.00  0.00    +0.000 HD
BRANCH  17  22
ATOM     19  C   UNL     1      47.739   4.355  15.933  0.00  0.00    +0.000 A 
ATOM     20  C   UNL     1      47.082   4.280  14.704  0.00  0.00    +0.000 A 
ATOM     21  C   UNL     1      47.133   5.361  13.817  0.00  0.00    +0.000 A 
ATOM     22  C   UNL     1      47.859   6.520  14.118  0.00  0.00    +0.000 A 
ATOM     23  C   UNL     1      48.492   6.586  15.368  0.00  0.00    +0.000 A 
ATOM     24  C   UNL     1      48.431   5.519  16.273  0.00  0.00    +0.000 A 
BRANCH  19  26
ATOM     25  N   UNL     1      48.869   2.648  17.244  0.00  0.00    +0.000 N 
ATOM     26  C   UNL     1      47.682   3.238  16.910  0.00  0.00    +0.000 C 
ATOM     27  O   UNL     1      46.630   2.879  17.422  0.00  0.00    +0.000 OA
ATOM     28  H   UNL     1      48.835   1.959  17.986  0.00  0.00    +0.000 HD
ATOM     29  H   UNL     1      49.760   3.078  17.044  0.00  0.00    +0.000 HD
ENDBRANCH  19  26
ENDBRANCH  17  22
ENDBRANCH  16  17
ENDBRANCH   1  16
TORSDOF 6
ENDMDL
