MODEL 1
REMARK VINA RESULT:    -9.156      0.000      0.000
REMARK INTER + INTRA:         -12.857
REMARK INTER:                 -11.832
REMARK INTRA:                  -1.025
REMARK UNBOUND:                -1.025
REMARK  Name = 
REMARK  5 active torsions:
REMARK  status: ('A' for Active; 'I' for Inactive)
REMARK    1  A    between atoms: C_2  and  C_3
REMARK    2  A    between atoms: C_6  and  C_7
REMARK    3  A    between atoms: C_11  and  C_12
REMARK    4  A    between atoms: C_12  and  N_13
REMARK    5  A    between atoms: C_17  and  C_18
REMARK                            x       y       z     vdW  Elec       q    Type
REMARK                         _______ _______ _______ _____ _____    ______ ____
ROOT
ATOM      1  C   UNL     1      43.910   5.137  11.160  0.00  0.00    +0.000 C 
ATOM      2  C   UNL     1      42.657   5.868  11.626  0.00  0.00    +0.000 C 
ATOM      3  C   UNL     1      42.703   4.380  11.695  0.00  0.00    +0.000 C 
ENDROOT
BRANCH   1   4
ATOM      4  N   UNL     1      44.211   5.144   9.717  0.00  0.00    +0.000 N 
ATOM      5  C   UNL     1      44.998   4.173   9.081  0.00  0.00    +0.000 A 
ATOM      6  C   UNL     1      44.952   2.821   9.409  0.00  0.00    +0.000 A 
ATOM      7  C   UNL     1      45.692   1.895   8.669  0.00  0.00    +0.000 A 
ATOM      8  C   UNL     1      46.479   2.343   7.615  0.00  0.00    +0.000 A 
ATOM      9  C   UNL     1      46.468   3.702   7.343  0.00  0.00    +0.000 A 
ATOM     10  N   UNL     1      45.752   4.616   8.053  0.00  0.00    +0.000 NA
ATOM     11  H   UNL     1      44.515   6.035   9.328  0.00  0.00    +0.000 HD
BRANCH   8  12
ATOM     12  C   UNL     1      47.284   1.439   6.766  0.00  0.00    +0.000 C 
ATOM     13  N   UNL     1      48.279   2.003   6.015  0.00  0.00    +0.000 N 
ATOM     14  O   UNL     1      47.057   0.239   6.715  0.00  0.00    +0.000 OA
ATOM     15  H   UNL     1      48.360   2.996   5.856  0.00  0.00    +0.000 HD
ATOM     16  H   UNL     1      48.764   1.387   5.374  0.00  0.00    +0.000 HD
ENDBRANCH   8  12
ENDBRANCH   1   4
BRANCH   1  21
ATOM     17  C   UNL     1      47.257   6.471  12.550  0.00  0.00    +0.000 A 
ATOM     18  C   UNL     1      47.460   5.599  13.630  0.00  0.00    +0.000 A 
ATOM     19  C   UNL     1      46.531   4.601  13.929  0.00  0.00    +0.000 A 
ATOM     20  C   UNL     1      45.387   4.448  13.145  0.00  0.00    +0.000 A 
ATOM     21  C   UNL     1      45.143   5.286  12.046  0.00  0.00    +0.000 A 
ATOM     22  C   UNL     1      46.086   6.295  11.788  0.00  0.00    +0.000 A 
BRANCH  17  26
ATOM     23  C   UNL     1      50.047   9.473  11.449  0.00  0.00    +0.000 A 
ATOM     24  C   UNL     1      48.726   9.853  11.638  0.00  0.00    +0.000 A 
ATOM     25  C   UNL     1      47.802   8.878  12.022  0.00  0.00    +0.000 A 
ATOM     26  C   UNL     1      48.206   7.550  12.211  0.00  0.00    +0.000 A 
ATOM     27  C   UNL     1      49.568   7.297  12.019  0.00  0.00    +0.000 A 
ATOM     28  N   UNL     1      50.491   8.213  11.636  0.00  0.00    +0.000 NA
BRANCH  23  30
ATOM     29  N   UNL     1      51.848  11.186  10.685  0.00  0.00    +0.000 NA
ATOM     30  C   UNL     1      51.031  10.430  11.011  0.00  0.00    +0.000 C 
ENDBRANCH  23  30
ENDBRANCH  17  26
ENDBRANCH   1  21
TORSDOF 5
ENDMDL
MODEL 2
REMARK VINA RESULT:    -8.711      2.782      4.449
REMARK INTER + INTRA:         -12.282
REMARK INTER:                 -11.447
REMARK INTRA:                  -0.836
REMARK UNBOUND:                -1.025
REMARK  Name = 
REMARK  5 active torsions:
REMARK  status: ('A' for Active; 'I' for Inactive)
REMARK    1  A    between atoms: C_2  and  C_3
REMARK    2  A    between atoms: C_6  and  C_7
REMARK    3  A    between atoms: C_11  and  C_12
REMARK    4  A    between atoms: C_12  and  N_13
REMARK    5  A    between atoms: C_17  and  C_18
REMARK                            x       y       z     vdW  Elec       q    Type
REMARK                         _______ _______ _______ _____ _____    ______ ____
ROOT
ATOM      1  C   UNL     1      44.094   4.934  11.367  0.00  0.00    +0.000 C 
ATOM      2  C   UNL     1      42.802   5.356  12.056  0.00  0.00    +0.000 C 
ATOM      3  C   UNL     1      43.296   3.959  12.218  0.00  0.00    +0.000 C 
ENDROOT
BRANCH   1   4
ATOM      4  N   UNL     1      44.085   4.830   9.896  0.00  0.00    +0.000 N 
ATOM      5  C   UNL     1      44.909   3.955   9.174  0.00  0.00    +0.000 A 
ATOM      6  C   UNL     1      45.214   2.666   9.601  0.00  0.00    +0.000 A 
ATOM      7  C   UNL     1      45.963   1.816   8.785  0.00  0.00    +0.000 A 
ATOM      8  C   UNL     1      46.406   2.277   7.551  0.00  0.00    +0.000 A 
ATOM      9  C   UNL     1      46.056   3.568   7.189  0.00  0.00    +0.000 A 
ATOM     10  N   UNL     1      45.327   4.409   7.972  0.00  0.00    +0.000 NA
ATOM     11  H   UNL     1      44.110   5.710   9.385  0.00  0.00    +0.000 HD
BRANCH   8  12
ATOM     12  C   UNL     1      47.190   1.447   6.611  0.00  0.00    +0.000 C 
ATOM     13  N   UNL     1      48.130   2.082   5.845  0.00  0.00    +0.000 N 
ATOM     14  O   UNL     1      46.992   0.246   6.501  0.00  0.00    +0.000 OA
ATOM     15  H   UNL     1      48.176   3.085   5.741  0.00  0.00    +0.000 HD
ATOM     16  H   UNL     1      48.597   1.518   5.147  0.00  0.00    +0.000 HD
ENDBRANCH   8  12
ENDBRANCH   1   4
BRANCH   1  21
ATOM     17  C   UNL     1      47.012   5.670  13.788  0.00  0.00    +0.000 A 
ATOM     18  C   UNL     1      47.740   6.612  13.046  0.00  0.00    +0.000 A 
ATOM     19  C   UNL     1      47.318   7.001  11.773  0.00  0.00    +0.000 A 
ATOM     20  C   UNL     1      46.152   6.465  11.225  0.00  0.00    +0.000 A 
ATOM     21  C   UNL     1      45.381   5.529  11.932  0.00  0.00    +0.000 A 
ATOM     22  C   UNL     1      45.848   5.140  13.199  0.00  0.00    +0.000 A 
BRANCH  17  26
ATOM     23  C   UNL     1      48.192   4.531  17.703  0.00  0.00    +0.000 A 
ATOM     24  C   UNL     1      47.317   3.697  17.020  0.00  0.00    +0.000 A 
ATOM     25  C   UNL     1      46.938   4.050  15.722  0.00  0.00    +0.000 A 
ATOM     26  C   UNL     1      47.435   5.219  15.129  0.00  0.00    +0.000 A 
ATOM     27  C   UNL     1      48.331   5.959  15.906  0.00  0.00    +0.000 A 
ATOM     28  N   UNL     1      48.713   5.656  17.170  0.00  0.00    +0.000 NA
BRANCH  23  30
ATOM     29  N   UNL     1      48.891   4.039  20.159  0.00  0.00    +0.000 NA
ATOM     30  C   UNL     1      48.579   4.237  19.058  0.00  0.00    +0.000 C 
ENDBRANCH  23  30
ENDBRANCH  17  26
ENDBRANCH   1  21
TORSDOF 5
ENDMDL
MODEL 3
REMARK VINA RESULT:    -7.831      2.327      2.997
REMARK INTER + INTRA:         -11.145
REMARK INTER:                 -10.866
REMARK INTRA:                  -0.279
REMARK UNBOUND:                -1.025
REMARK  Name = 
REMARK  5 active torsions:
REMARK  status: ('A' for Active; 'I' for Inactive)
REMARK    1  A    between atoms: C_2  and  C_3
REMARK    2  A    between atoms: C_6  and  C_7
REMARK    3  A    between atoms: C_11  and  C_12
REMARK    4  A    between atoms: C_12  and  N_13
REMARK    5  A    between atoms: C_17  and  C_18
REMARK                            x       y       z     vdW  Elec       q    Type
REMARK                         _______ _______ _______ _____ _____    ______ ____
ROOT
ATOM      1  C   UNL     1      44.006   5.492  11.135  0.00  0.00    +0.000 C 
ATOM      2  C   UNL     1      42.632   5.207  11.729  0.00  0.00    +0.000 C 
ATOM      3  C   UNL     1      43.786   4.343  12.107  0.00  0.00    +0.000 C 
ENDROOT
BRANCH   1   4
ATOM      4  N   UNL     1      44.199   5.232   9.697  0.00  0.00    +0.000 N 
ATOM      5  C   UNL     1      44.938   4.151   9.194  0.00  0.00    +0.000 A 
ATOM      6  C   UNL     1      44.918   2.883   9.766  0.00  0.00    +0.000 A 
ATOM      7  C   UNL     1      45.602   1.829   9.157  0.00  0.00    +0.000 A 
ATOM      8  C   UNL     1      46.308   2.066   7.983  0.00  0.00    +0.000 A 
ATOM      9  C   UNL     1      46.275   3.353   7.468  0.00  0.00    +0.000 A 
ATOM     10  N   UNL     1      45.613   4.390   8.049  0.00  0.00    +0.000 NA
ATOM     11  H   UNL     1      44.472   6.033   9.130  0.00  0.00    +0.000 HD
BRANCH   8  12
ATOM     12  C   UNL     1      47.049   1.013   7.257  0.00  0.00    +0.000 C 
ATOM     13  N   UNL     1      46.765  -0.288   7.573  0.00  0.00    +0.000 N 
ATOM     14  O   UNL     1      47.902   1.289   6.425  0.00  0.00    +0.000 OA
ATOM     15  H   UNL     1      46.242  -0.558   8.393  0.00  0.00    +0.000 HD
ATOM     16  H   UNL     1      47.341  -0.994   7.132  0.00  0.00    +0.000 HD
ENDBRANCH   8  12
ENDBRANCH   1   4
BRANCH   1  21
ATOM     17  C   UNL     1      46.530   7.798  12.931  0.00  0.00    +0.000 A 
ATOM     18  C   UNL     1      46.019   9.061  12.597  0.00  0.00    +0.000 A 
ATOM     19  C   UNL     1      44.886   9.184  11.789  0.00  0.00    +0.000 A 
ATOM     20  C   UNL     1      44.237   8.044  11.312  0.00  0.00    +0.000 A 
ATOM     21  C   UNL     1      44.701   6.758  11.629  0.00  0.00    +0.000 A 
ATOM     22  C   UNL     1      45.857   6.671  12.422  0.00  0.00    +0.000 A 
BRANCH  17  26
ATOM     23  C   UNL     1      50.024   7.156  15.253  0.00  0.00    +0.000 A 
ATOM     24  C   UNL     1      49.857   8.401  14.663  0.00  0.00    +0.000 A 
ATOM     25  C   UNL     1      48.700   8.632  13.914  0.00  0.00    +0.000 A 
ATOM     26  C   UNL     1      47.735   7.627  13.767  0.00  0.00    +0.000 A 
ATOM     27  C   UNL     1      48.003   6.427  14.433  0.00  0.00    +0.000 A 
ATOM     28  N   UNL     1      49.117   6.162  15.158  0.00  0.00    +0.000 NA
BRANCH  23  30
ATOM     29  N   UNL     1      52.177   6.641  16.618  0.00  0.00    +0.000 NA
ATOM     30  C   UNL     1      51.219   6.851  15.998  0.00  0.00    +0.000 C 
ENDBRANCH  23  30
ENDBRANCH  17  26
ENDBRANCH   1  21
TORSDOF 5
ENDMDL
MODEL 4
REMARK VINA RESULT:    -6.924      5.190      8.740
REMARK INTER + INTRA:          -9.973
REMARK INTER:                  -9.035
REMARK INTRA:                  -0.938
REMARK UNBOUND:                -1.025
REMARK  Name = 
REMARK  5 active torsions:
REMARK  status: ('A' for Active; 'I' for Inactive)
REMARK    1  A    between atoms: C_2  and  C_3
REMARK    2  A    between atoms: C_6  and  C_7
REMARK    3  A    between atoms: C_11  and  C_12
REMARK    4  A    between atoms: C_12  and  N_13
REMARK    5  A    between atoms: C_17  and  C_18
REMARK                            x       y       z     vdW  Elec       q    Type
REMARK                         _______ _______ _______ _____ _____    ______ ____
ROOT
ATOM      1  C   UNL     1      49.455   7.357  17.045  0.00  0.00    +0.000 C 
ATOM      2  C   UNL     1      48.952   8.629  17.715  0.00  0.00    +0.000 C 
ATOM      3  C   UNL     1      50.417   8.365  17.653  0.00  0.00    +0.000 C 
ENDROOT
BRANCH   1   4
ATOM      4  N   UNL     1      49.185   6.074  17.720  0.00  0.00    +0.000 N 
ATOM      5  C   UNL     1      50.028   4.957  17.631  0.00  0.00    +0.000 A 
ATOM      6  C   UNL     1      51.417   5.048  17.622  0.00  0.00    +0.000 A 
ATOM      7  C   UNL     1      52.196   3.888  17.629  0.00  0.00    +0.000 A 
ATOM      8  C   UNL     1      51.567   2.649  17.634  0.00  0.00    +0.000 A 
ATOM      9  C   UNL     1      50.180   2.636  17.651  0.00  0.00    +0.000 A 
ATOM     10  N   UNL     1      49.408   3.757  17.645  0.00  0.00    +0.000 NA
ATOM     11  H   UNL     1      48.240   5.708  17.624  0.00  0.00    +0.000 HD
BRANCH   8  12
ATOM     12  C   UNL     1      52.303   1.368  17.657  0.00  0.00    +0.000 C 
ATOM     13  N   UNL     1      51.629   0.262  18.099  0.00  0.00    +0.000 N 
ATOM     14  O   UNL     1      53.477   1.299  17.320  0.00  0.00    +0.000 OA
ATOM     15  H   UNL     1      50.748   0.308  18.588  0.00  0.00    +0.000 HD
ATOM     16  H   UNL     1      52.171  -0.589  18.191  0.00  0.00    +0.000 HD
ENDBRANCH   8  12
ENDBRANCH   1   4
BRANCH   1  21
ATOM     17  C   UNL     1      48.127   6.391  13.549  0.00  0.00    +0.000 A 
ATOM     18  C   UNL     1      49.000   7.116  12.725  0.00  0.00    +0.000 A 
ATOM     19  C   UNL     1      49.997   7.923  13.275  0.00  0.00    +0.000 A 
ATOM     20  C   UNL     1      50.148   8.010  14.660  0.00  0.00    +0.000 A 
ATOM     21  C   UNL     1      49.308   7.295  15.527  0.00  0.00    +0.000 A 
ATOM     22  C   UNL     1      48.299   6.512  14.942  0.00  0.00    +0.000 A 
BRANCH  17  26
ATOM     23  C   UNL     1      44.962   3.932  12.152  0.00  0.00    +0.000 A 
ATOM     24  C   UNL     1      45.228   5.104  11.458  0.00  0.00    +0.000 A 
ATOM     25  C   UNL     1      46.282   5.911  11.895  0.00  0.00    +0.000 A 
ATOM     26  C   UNL     1      47.048   5.540  13.008  0.00  0.00    +0.000 A 
ATOM     27  C   UNL     1      46.701   4.324  13.605  0.00  0.00    +0.000 A 
ATOM     28  N   UNL     1      45.681   3.520  13.217  0.00  0.00    +0.000 NA
BRANCH  23  30
ATOM     29  N   UNL     1      42.986   2.406  11.425  0.00  0.00    +0.000 NA
ATOM     30  C   UNL     1      43.860   3.087  11.770  0.00  0.00    +0.000 C 
ENDBRANCH  23  30
ENDBRANCH  17  26
ENDBRANCH   1  21
TORSDOF 5
ENDMDL
MODEL 5
REMARK VINA RESULT:    -6.618      1.316      1.971
REMARK INTER + INTRA:          -9.578
REMARK INTER:                  -9.616
REMARK INTRA:                   0.038
REMARK UNBOUND:                -1.025
REMARK  Name = 
REMARK  5 active torsions:
REMARK  status: ('A' for Active; 'I' for Inactive)
REMARK    1  A    between atoms: C_2  and  C_3
REMARK    2  A    between atoms: C_6  and  C_7
REMARK    3  A    between atoms: C_11  and  C_12
REMARK    4  A    between atoms: C_12  and  N_13
REMARK    5  A    between atoms: C_17  and  C_18
REMARK                            x       y       z     vdW  Elec       q    Type
REMARK                         _______ _______ _______ _____ _____    ______ ____
ROOT
ATOM      1  C   UNL     1      44.735   5.563  11.226  0.00  0.00    +0.000 C 
ATOM      2  C   UNL     1      43.426   5.152  11.889  0.00  0.00    +0.000 C 
ATOM      3  C   UNL     1      44.643   4.316  12.093  0.00  0.00    +0.000 C 
ENDROOT
BRANCH   1   4
ATOM      4  N   UNL     1      44.825   5.452   9.759  0.00  0.00    +0.000 N 
ATOM      5  C   UNL     1      45.465   4.394   9.096  0.00  0.00    +0.000 A 
ATOM      6  C   UNL     1      45.404   3.074   9.531  0.00  0.00    +0.000 A 
ATOM      7  C   UNL     1      45.985   2.057   8.769  0.00  0.00    +0.000 A 
ATOM      8  C   UNL     1      46.631   2.384   7.583  0.00  0.00    +0.000 A 
ATOM      9  C   UNL     1      46.644   3.719   7.210  0.00  0.00    +0.000 A 
ATOM     10  N   UNL     1      46.083   4.720   7.940  0.00  0.00    +0.000 NA
ATOM     11  H   UNL     1      45.111   6.294   9.263  0.00  0.00    +0.000 HD
BRANCH   8  12
ATOM     12  C   UNL     1      47.262   1.379   6.702  0.00  0.00    +0.000 C 
ATOM     13  N   UNL     1      48.261   1.808   5.871  0.00  0.00    +0.000 N 
ATOM     14  O   UNL     1      46.892   0.213   6.694  0.00  0.00    +0.000 OA
ATOM     15  H   UNL     1      48.446   2.783   5.684  0.00  0.00    +0.000 HD
ATOM     16  H   UNL     1      48.623   1.129   5.213  0.00  0.00    +0.000 HD
ENDBRANCH   8  12
ENDBRANCH   1   4
BRANCH   1  21
ATOM     17  C   UNL     1      47.463   8.169  12.054  0.00  0.00    +0.000 A 
ATOM     18  C   UNL     1      46.730   9.082  12.827  0.00  0.00    +0.000 A 
ATOM     19  C   UNL     1      45.370   8.883  13.071  0.00  0.00    +0.000 A 
ATOM     20  C   UNL     1      44.720   7.758  12.558  0.00  0.00    +0.000 A 
ATOM     21  C   UNL     1      45.412   6.809  11.790  0.00  0.00    +0.000 A 
ATOM     22  C   UNL     1      46.773   7.053  11.542  0.00  0.00    +0.000 A 
BRANCH  17  26
ATOM     23  C   UNL     1      51.607   8.764  11.360  0.00  0.00    +0.000 A 
ATOM     24  C   UNL     1      51.071   7.520  11.060  0.00  0.00    +0.000 A 
ATOM     25  C   UNL     1      49.703   7.318  11.263  0.00  0.00    +0.000 A 
ATOM     26  C   UNL     1      48.897   8.352  11.758  0.00  0.00    +0.000 A 
ATOM     27  C   UNL     1      49.547   9.568  11.995  0.00  0.00    +0.000 A 
ATOM     28  N   UNL     1      50.872   9.798  11.821  0.00  0.00    +0.000 NA
BRANCH  23  30
ATOM     29  N   UNL     1      54.147   9.236  11.060  0.00  0.00    +0.000 NA
ATOM     30  C   UNL     1      53.018   9.012  11.211  0.00  0.00    +0.000 C 
ENDBRANCH  23  30
ENDBRANCH  17  26
ENDBRANCH   1  21
TORSDOF 5
ENDMDL
MODEL 6
REMARK VINA RESULT:    -6.427      3.191      7.155
REMARK INTER + INTRA:          -9.331
REMARK INTER:                  -9.473
REMARK INTRA:                   0.143
REMARK UNBOUND:                -1.025
REMARK  Name = 
REMARK  5 active torsions:
REMARK  status: ('A' for Active; 'I' for Inactive)
REMARK    1  A    between atoms: C_2  and  C_3
REMARK    2  A    between atoms: C_6  and  C_7
REMARK    3  A    between atoms: C_11  and  C_12
REMARK    4  A    between atoms: C_12  and  N_13
REMARK    5  A    between atoms: C_17  and  C_18
REMARK                            x       y       z     vdW  Elec       q    Type
REMARK                         _______ _______ _______ _____ _____    ______ ____
ROOT
ATOM      1  C   UNL     1      45.959   7.753  12.489  0.00  0.00    +0.000 C 
ATOM      2  C   UNL     1      45.165   8.835  13.211  0.00  0.00    +0.000 C 
ATOM      3  C   UNL     1      45.831   9.157  11.917  0.00  0.00    +0.000 C 
ENDROOT
BRANCH   1   4
ATOM      4  N   UNL     1      47.223   7.305  13.102  0.00  0.00    +0.000 N 
ATOM      5  C   UNL     1      47.310   6.244  14.015  0.00  0.00    +0.000 A 
ATOM      6  C   UNL     1      46.558   5.078  13.904  0.00  0.00    +0.000 A 
ATOM      7  C   UNL     1      46.767   4.022  14.793  0.00  0.00    +0.000 A 
ATOM      8  C   UNL     1      47.723   4.155  15.792  0.00  0.00    +0.000 A 
ATOM      9  C   UNL     1      48.440   5.341  15.836  0.00  0.00    +0.000 A 
ATOM     10  N   UNL     1      48.249   6.379  14.977  0.00  0.00    +0.000 NA
ATOM     11  H   UNL     1      47.820   8.038  13.481  0.00  0.00    +0.000 HD
BRANCH   8  12
ATOM     12  C   UNL     1      48.026   3.089  16.770  0.00  0.00    +0.000 C 
ATOM     13  N   UNL     1      47.147   2.914  17.804  0.00  0.00    +0.000 N 
ATOM     14  O   UNL     1      49.035   2.404  16.677  0.00  0.00    +0.000 OA
ATOM     15  H   UNL     1      46.432   3.585  18.044  0.00  0.00    +0.000 HD
ATOM     16  H   UNL     1      47.411   2.240  18.512  0.00  0.00    +0.000 HD
ENDBRANCH   8  12
ENDBRANCH   1   4
BRANCH   1  21
ATOM     17  C   UNL     1      44.954   4.834  10.168  0.00  0.00    +0.000 A 
ATOM     18  C   UNL     1      43.674   4.536  10.658  0.00  0.00    +0.000 A 
ATOM     19  C   UNL     1      43.136   5.245  11.733  0.00  0.00    +0.000 A 
ATOM     20  C   UNL     1      43.864   6.277  12.330  0.00  0.00    +0.000 A 
ATOM     21  C   UNL     1      45.143   6.623  11.868  0.00  0.00    +0.000 A 
ATOM     22  C   UNL     1      45.665   5.872  10.802  0.00  0.00    +0.000 A 
BRANCH  17  26
ATOM     23  C   UNL     1      46.857   2.801   6.965  0.00  0.00    +0.000 A 
ATOM     24  C   UNL     1      46.191   2.038   7.914  0.00  0.00    +0.000 A 
ATOM     25  C   UNL     1      45.541   2.696   8.961  0.00  0.00    +0.000 A 
ATOM     26  C   UNL     1      45.566   4.095   9.046  0.00  0.00    +0.000 A 
ATOM     27  C   UNL     1      46.244   4.753   8.015  0.00  0.00    +0.000 A 
ATOM     28  N   UNL     1      46.895   4.149   6.990  0.00  0.00    +0.000 NA
BRANCH  23  30
ATOM     29  N   UNL     1      48.193   1.658   5.049  0.00  0.00    +0.000 NA
ATOM     30  C   UNL     1      47.579   2.170   5.891  0.00  0.00    +0.000 C 
ENDBRANCH  23  30
ENDBRANCH  17  26
ENDBRANCH   1  21
TORSDOF 5
ENDMDL
