MODEL 1
REMARK VINA RESULT:    -9.119      0.000      0.000
REMARK INTER + INTRA:         -13.557
REMARK INTER:                 -12.317
REMARK INTRA:                  -1.239
REMARK UNBOUND:                -1.239
REMARK  Name = 
REMARK  6 active torsions:
REMARK  status: ('A' for Active; 'I' for Inactive)
REMARK    1  A    between atoms: C_2  and  C_3
REMARK    2  A    between atoms: C_6  and  C_7
REMARK    3  A    between atoms: C_11  and  C_12
REMARK    4  A    between atoms: C_12  and  N_13
REMARK    5  A    between atoms: N_13  and  C_14
REMARK    6  A    between atoms: C_17  and  C_18
REMARK                            x       y       z     vdW  Elec       q    Type
REMARK                         _______ _______ _______ _____ _____    ______ ____
ROOT
ATOM      1  C   UNL     1      43.927   5.052  11.384  0.00  0.00    +0.000 C 
ATOM      2  C   UNL     1      43.040   6.251  11.128  0.00  0.00    +0.000 C 
ATOM      3  C   UNL     1      42.592   5.225  12.113  0.00  0.00    +0.000 C 
ENDROOT
BRANCH   1   8
ATOM      4  C   UNL     1      47.317   6.482  12.596  0.00  0.00    +0.000 A 
ATOM      5  C   UNL     1      47.582   5.618  13.669  0.00  0.00    +0.000 A 
ATOM      6  C   UNL     1      46.687   4.607  14.025  0.00  0.00    +0.000 A 
ATOM      7  C   UNL     1      45.512   4.425  13.297  0.00  0.00    +0.000 A 
ATOM      8  C   UNL     1      45.197   5.248  12.207  0.00  0.00    +0.000 A 
ATOM      9  C   UNL     1      46.110   6.278  11.897  0.00  0.00    +0.000 A 
BRANCH   4  13
ATOM     10  C   UNL     1      50.048   9.631  11.431  0.00  0.00    +0.000 A 
ATOM     11  C   UNL     1      50.507   8.324  11.595  0.00  0.00    +0.000 A 
ATOM     12  C   UNL     1      49.622   7.309  11.984  0.00  0.00    +0.000 A 
ATOM     13  C   UNL     1      48.256   7.566  12.208  0.00  0.00    +0.000 A 
ATOM     14  C   UNL     1      47.819   8.892  12.041  0.00  0.00    +0.000 A 
ATOM     15  C   UNL     1      48.701   9.913  11.661  0.00  0.00    +0.000 A 
BRANCH  10  17
ATOM     16  N   UNL     1      51.679  11.516  10.717  0.00  0.00    +0.000 NA
ATOM     17  C   UNL     1      50.950  10.673  11.035  0.00  0.00    +0.000 C 
ENDBRANCH  10  17
ENDBRANCH   4  13
ENDBRANCH   1   8
BRANCH   1  18
ATOM     18  N   UNL     1      43.952   3.869  10.512  0.00  0.00    +0.000 N 
ATOM     19  H   UNL     1      43.480   3.053  10.888  0.00  0.00    +0.000 HD
BRANCH  18  20
ATOM     20  C   UNL     1      44.905   3.550   9.532  0.00  0.00    +0.000 A 
ATOM     21  C   UNL     1      45.532   4.474   8.696  0.00  0.00    +0.000 A 
ATOM     22  C   UNL     1      46.380   4.047   7.656  0.00  0.00    +0.000 A 
ATOM     23  C   UNL     1      46.591   2.681   7.420  0.00  0.00    +0.000 A 
ATOM     24  C   UNL     1      45.966   1.763   8.256  0.00  0.00    +0.000 A 
ATOM     25  F   UNL     1      46.120   0.439   8.087  0.00  0.00    +0.000 F 
ATOM     26  C   UNL     1      45.136   2.188   9.287  0.00  0.00    +0.000 A 
BRANCH  23  27
ATOM     27  C   UNL     1      47.433   2.262   6.268  0.00  0.00    +0.000 C 
ATOM     28  N   UNL     1      47.246   2.891   5.069  0.00  0.00    +0.000 N 
ATOM     29  O   UNL     1      48.287   1.391   6.385  0.00  0.00    +0.000 OA
ATOM     30  H   UNL     1      46.570   3.634   4.934  0.00  0.00    +0.000 HD
ATOM     31  H   UNL     1      47.845   2.636   4.295  0.00  0.00    +0.000 HD
ENDBRANCH  23  27
ENDBRANCH  18  20
ENDBRANCH   1  18
TORSDOF 6
ENDMDL
MODEL 2
REMARK VINA RESULT:    -8.607      2.901      4.472
REMARK INTER + INTRA:         -12.865
REMARK INTER:                 -12.633
REMARK INTRA:                  -0.232
REMARK UNBOUND:                -1.239
REMARK  Name = 
REMARK  6 active torsions:
REMARK  status: ('A' for Active; 'I' for Inactive)
REMARK    1  A    between atoms: C_2  and  C_3
REMARK    2  A    between atoms: C_6  and  C_7
REMARK    3  A    between atoms: C_11  and  C_12
REMARK    4  A    between atoms: C_12  and  N_13
REMARK    5  A    between atoms: N_13  and  C_14
REMARK    6  A    between atoms: C_17  and  C_18
REMARK                            x       y       z     vdW  Elec       q    Type
REMARK                         _______ _______ _______ _____ _____    ______ ____
ROOT
ATOM      1  C   UNL     1      43.929   4.944  11.533  0.00  0.00    +0.000 C 
ATOM      2  C   UNL     1      42.748   5.175  12.450  0.00  0.00    +0.000 C 
ATOM      3  C   UNL     1      43.349   3.812  12.385  0.00  0.00    +0.000 C 
ENDROOT
BRANCH   1   8
ATOM      4  C   UNL     1      47.067   5.725  13.665  0.00  0.00    +0.000 A 
ATOM      5  C   UNL     1      47.782   6.533  12.768  0.00  0.00    +0.000 A 
ATOM      6  C   UNL     1      47.292   6.808  11.491  0.00  0.00    +0.000 A 
ATOM      7  C   UNL     1      46.059   6.297  11.089  0.00  0.00    +0.000 A 
ATOM      8  C   UNL     1      45.291   5.495  11.945  0.00  0.00    +0.000 A 
ATOM      9  C   UNL     1      45.833   5.212  13.217  0.00  0.00    +0.000 A 
BRANCH   4  13
ATOM     10  C   UNL     1      48.529   4.853  17.645  0.00  0.00    +0.000 A 
ATOM     11  C   UNL     1      49.021   5.949  16.936  0.00  0.00    +0.000 A 
ATOM     12  C   UNL     1      48.554   6.222  15.643  0.00  0.00    +0.000 A 
ATOM     13  C   UNL     1      47.577   5.418  15.026  0.00  0.00    +0.000 A 
ATOM     14  C   UNL     1      47.100   4.316  15.758  0.00  0.00    +0.000 A 
ATOM     15  C   UNL     1      47.570   4.033  17.049  0.00  0.00    +0.000 A 
BRANCH  10  17
ATOM     16  N   UNL     1      49.390   4.337  20.035  0.00  0.00    +0.000 NA
ATOM     17  C   UNL     1      49.006   4.569  18.967  0.00  0.00    +0.000 C 
ENDBRANCH  10  17
ENDBRANCH   4  13
ENDBRANCH   1   8
BRANCH   1  18
ATOM     18  N   UNL     1      43.789   4.700  10.089  0.00  0.00    +0.000 N 
ATOM     19  H   UNL     1      42.865   4.887   9.714  0.00  0.00    +0.000 HD
BRANCH  18  20
ATOM     20  C   UNL     1      44.536   3.816   9.296  0.00  0.00    +0.000 A 
ATOM     21  C   UNL     1      44.683   2.450   9.543  0.00  0.00    +0.000 A 
ATOM     22  C   UNL     1      45.555   1.666   8.764  0.00  0.00    +0.000 A 
ATOM     23  C   UNL     1      46.318   2.247   7.740  0.00  0.00    +0.000 A 
ATOM     24  C   UNL     1      46.167   3.606   7.495  0.00  0.00    +0.000 A 
ATOM     25  F   UNL     1      46.867   4.230   6.532  0.00  0.00    +0.000 F 
ATOM     26  C   UNL     1      45.298   4.376   8.260  0.00  0.00    +0.000 A 
BRANCH  23  27
ATOM     27  C   UNL     1      47.284   1.405   6.985  0.00  0.00    +0.000 C 
ATOM     28  N   UNL     1      48.467   1.970   6.598  0.00  0.00    +0.000 N 
ATOM     29  O   UNL     1      47.042   0.233   6.726  0.00  0.00    +0.000 OA
ATOM     30  H   UNL     1      48.719   2.926   6.813  0.00  0.00    +0.000 HD
ATOM     31  H   UNL     1      49.142   1.388   6.120  0.00  0.00    +0.000 HD
ENDBRANCH  23  27
ENDBRANCH  18  20
ENDBRANCH   1  18
TORSDOF 6
ENDMDL
MODEL 3
REMARK VINA RESULT:    -7.969      1.459      2.213
REMARK INTER + INTRA:         -12.003
REMARK INTER:                 -11.306
REMARK INTRA:                  -0.698
REMARK UNBOUND:                -1.239
REMARK  Name = 
REMARK  6 active torsions:
REMARK  status: ('A' for Active; 'I' for Inactive)
REMARK    1  A    between atoms: C_2  and  C_3
REMARK    2  A    between atoms: C_6  and  C_7
REMARK    3  A    between atoms: C_11  and  C_12
REMARK    4  A    between atoms: C_12  and  N_13
REMARK    5  A    between atoms: N_13  and  C_14
REMARK    6  A    between atoms: C_17  and  C_18
REMARK                            x       y       z     vdW  Elec       q    Type
REMARK                         _______ _______ _______ _____ _____    ______ ____
ROOT
ATOM      1  C   UNL     1      44.128   4.504  11.724  0.00  0.00    +0.000 C 
ATOM      2  C   UNL     1      43.387   4.021  12.952  0.00  0.00    +0.000 C 
ATOM      3  C   UNL     1      44.771   3.524  12.708  0.00  0.00    +0.000 C 
ENDROOT
BRANCH   1   8
ATOM      4  C   UNL     1      46.552   7.501  12.103  0.00  0.00    +0.000 A 
ATOM      5  C   UNL     1      45.698   8.558  11.753  0.00  0.00    +0.000 A 
ATOM      6  C   UNL     1      44.374   8.326  11.376  0.00  0.00    +0.000 A 
ATOM      7  C   UNL     1      43.868   7.027  11.361  0.00  0.00    +0.000 A 
ATOM      8  C   UNL     1      44.668   5.931  11.712  0.00  0.00    +0.000 A 
ATOM      9  C   UNL     1      46.010   6.201  12.058  0.00  0.00    +0.000 A 
BRANCH   4  13
ATOM     10  C   UNL     1      50.658   8.202  13.278  0.00  0.00    +0.000 A 
ATOM     11  C   UNL     1      50.173   8.709  12.073  0.00  0.00    +0.000 A 
ATOM     12  C   UNL     1      48.846   8.470  11.690  0.00  0.00    +0.000 A 
ATOM     13  C   UNL     1      47.965   7.731  12.501  0.00  0.00    +0.000 A 
ATOM     14  C   UNL     1      48.478   7.226  13.709  0.00  0.00    +0.000 A 
ATOM     15  C   UNL     1      49.808   7.454  14.093  0.00  0.00    +0.000 A 
BRANCH  10  17
ATOM     16  N   UNL     1      53.111   8.637  13.995  0.00  0.00    +0.000 NA
ATOM     17  C   UNL     1      52.016   8.442  13.674  0.00  0.00    +0.000 C 
ENDBRANCH  10  17
ENDBRANCH   4  13
ENDBRANCH   1   8
BRANCH   1  18
ATOM     18  N   UNL     1      43.931   3.924  10.387  0.00  0.00    +0.000 N 
ATOM     19  H   UNL     1      43.084   3.374  10.283  0.00  0.00    +0.000 HD
BRANCH  18  20
ATOM     20  C   UNL     1      44.917   3.599   9.443  0.00  0.00    +0.000 A 
ATOM     21  C   UNL     1      45.567   4.518   8.619  0.00  0.00    +0.000 A 
ATOM     22  C   UNL     1      46.451   4.084   7.612  0.00  0.00    +0.000 A 
ATOM     23  C   UNL     1      46.677   2.716   7.398  0.00  0.00    +0.000 A 
ATOM     24  C   UNL     1      46.030   1.805   8.223  0.00  0.00    +0.000 A 
ATOM     25  F   UNL     1      46.195   0.480   8.074  0.00  0.00    +0.000 F 
ATOM     26  C   UNL     1      45.164   2.237   9.222  0.00  0.00    +0.000 A 
BRANCH  23  27
ATOM     27  C   UNL     1      47.559   2.290   6.280  0.00  0.00    +0.000 C 
ATOM     28  N   UNL     1      47.424   2.921   5.074  0.00  0.00    +0.000 N 
ATOM     29  O   UNL     1      48.398   1.410   6.429  0.00  0.00    +0.000 OA
ATOM     30  H   UNL     1      46.763   3.671   4.914  0.00  0.00    +0.000 HD
ATOM     31  H   UNL     1      48.050   2.661   4.324  0.00  0.00    +0.000 HD
ENDBRANCH  23  27
ENDBRANCH  18  20
ENDBRANCH   1  18
TORSDOF 6
ENDMDL
MODEL 4
REMARK VINA RESULT:    -6.816      4.688      6.639
REMARK INTER + INTRA:         -10.446
REMARK INTER:                  -9.280
REMARK INTRA:                  -1.166
REMARK UNBOUND:                -1.239
REMARK  Name = 
REMARK  6 active torsions:
REMARK  status: ('A' for Active; 'I' for Inactive)
REMARK    1  A    between atoms: C_2  and  C_3
REMARK    2  A    between atoms: C_6  and  C_7
REMARK    3  A    between atoms: C_11  and  C_12
REMARK    4  A    between atoms: C_12  and  N_13
REMARK    5  A    between atoms: N_13  and  C_14
REMARK    6  A    between atoms: C_17  and  C_18
REMARK                            x       y       z     vdW  Elec       q    Type
REMARK                         _______ _______ _______ _____ _____    ______ ____
ROOT
ATOM      1  C   UNL     1      47.713   8.029  13.326  0.00  0.00    +0.000 C 
ATOM      2  C   UNL     1      48.680   7.830  12.179  0.00  0.00    +0.000 C 
ATOM      3  C   UNL     1      48.144   9.197  12.434  0.00  0.00    +0.000 C 
ENDROOT
BRANCH   1   8
ATOM      4  C   UNL     1      49.533   6.830  16.528  0.00  0.00    +0.000 A 
ATOM      5  C   UNL     1      49.246   7.897  17.392  0.00  0.00    +0.000 A 
ATOM      6  C   UNL     1      48.505   9.000  16.962  0.00  0.00    +0.000 A 
ATOM      7  C   UNL     1      48.015   9.048  15.658  0.00  0.00    +0.000 A 
ATOM      8  C   UNL     1      48.258   8.006  14.751  0.00  0.00    +0.000 A 
ATOM      9  C   UNL     1      49.037   6.923  15.212  0.00  0.00    +0.000 A 
BRANCH   4  13
ATOM     10  C   UNL     1      51.837   3.385  17.778  0.00  0.00    +0.000 A 
ATOM     11  C   UNL     1      50.444   3.324  17.731  0.00  0.00    +0.000 A 
ATOM     12  C   UNL     1      49.701   4.445  17.338  0.00  0.00    +0.000 A 
ATOM     13  C   UNL     1      50.324   5.652  16.969  0.00  0.00    +0.000 A 
ATOM     14  C   UNL     1      51.728   5.691  17.028  0.00  0.00    +0.000 A 
ATOM     15  C   UNL     1      52.477   4.575  17.430  0.00  0.00    +0.000 A 
BRANCH  10  17
ATOM     16  N   UNL     1      53.218   1.316  18.507  0.00  0.00    +0.000 NA
ATOM     17  C   UNL     1      52.601   2.241  18.182  0.00  0.00    +0.000 C 
ENDBRANCH  10  17
ENDBRANCH   4  13
ENDBRANCH   1   8
BRANCH   1  18
ATOM     18  N   UNL     1      46.276   7.735  13.226  0.00  0.00    +0.000 N 
ATOM     19  H   UNL     1      45.683   8.305  13.821  0.00  0.00    +0.000 HD
BRANCH  18  20
ATOM     20  C   UNL     1      45.676   6.523  12.851  0.00  0.00    +0.000 A 
ATOM     21  C   UNL     1      46.152   5.257  13.193  0.00  0.00    +0.000 A 
ATOM     22  C   UNL     1      45.557   4.095  12.665  0.00  0.00    +0.000 A 
ATOM     23  C   UNL     1      44.488   4.187  11.760  0.00  0.00    +0.000 A 
ATOM     24  C   UNL     1      44.015   5.450  11.424  0.00  0.00    +0.000 A 
ATOM     25  F   UNL     1      42.998   5.614  10.562  0.00  0.00    +0.000 F 
ATOM     26  C   UNL     1      44.601   6.594  11.954  0.00  0.00    +0.000 A 
BRANCH  23  27
ATOM     27  C   UNL     1      43.930   2.944  11.165  0.00  0.00    +0.000 C 
ATOM     28  N   UNL     1      44.549   2.422  10.063  0.00  0.00    +0.000 N 
ATOM     29  O   UNL     1      42.953   2.387  11.650  0.00  0.00    +0.000 OA
ATOM     30  H   UNL     1      45.373   2.835   9.645  0.00  0.00    +0.000 HD
ATOM     31  H   UNL     1      44.195   1.555   9.680  0.00  0.00    +0.000 HD
ENDBRANCH  23  27
ENDBRANCH  18  20
ENDBRANCH   1  18
TORSDOF 6
ENDMDL
MODEL 5
REMARK VINA RESULT:    -6.756      4.704      6.508
REMARK INTER + INTRA:         -10.365
REMARK INTER:                  -9.269
REMARK INTRA:                  -1.096
REMARK UNBOUND:                -1.239
REMARK  Name = 
REMARK  6 active torsions:
REMARK  status: ('A' for Active; 'I' for Inactive)
REMARK    1  A    between atoms: C_2  and  C_3
REMARK    2  A    between atoms: C_6  and  C_7
REMARK    3  A    between atoms: C_11  and  C_12
REMARK    4  A    between atoms: C_12  and  N_13
REMARK    5  A    between atoms: N_13  and  C_14
REMARK    6  A    between atoms: C_17  and  C_18
REMARK                            x       y       z     vdW  Elec       q    Type
REMARK                         _______ _______ _______ _____ _____    ______ ____
ROOT
ATOM      1  C   UNL     1      47.759   8.037  13.366  0.00  0.00    +0.000 C 
ATOM      2  C   UNL     1      48.732   7.957  12.209  0.00  0.00    +0.000 C 
ATOM      3  C   UNL     1      48.072   9.262  12.501  0.00  0.00    +0.000 C 
ENDROOT
BRANCH   1   8
ATOM      4  C   UNL     1      49.626   6.888  16.559  0.00  0.00    +0.000 A 
ATOM      5  C   UNL     1      49.320   7.951  17.422  0.00  0.00    +0.000 A 
ATOM      6  C   UNL     1      48.551   9.035  16.994  0.00  0.00    +0.000 A 
ATOM      7  C   UNL     1      48.052   9.068  15.693  0.00  0.00    +0.000 A 
ATOM      8  C   UNL     1      48.313   8.031  14.787  0.00  0.00    +0.000 A 
ATOM      9  C   UNL     1      49.119   6.967  15.246  0.00  0.00    +0.000 A 
BRANCH   4  13
ATOM     10  C   UNL     1      52.019   3.528  17.870  0.00  0.00    +0.000 A 
ATOM     11  C   UNL     1      52.629   4.724  17.492  0.00  0.00    +0.000 A 
ATOM     12  C   UNL     1      51.852   5.806  17.056  0.00  0.00    +0.000 A 
ATOM     13  C   UNL     1      50.447   5.730  16.997  0.00  0.00    +0.000 A 
ATOM     14  C   UNL     1      49.856   4.513  17.379  0.00  0.00    +0.000 A 
ATOM     15  C   UNL     1      50.628   3.424  17.807  0.00  0.00    +0.000 A 
BRANCH  10  17
ATOM     16  N   UNL     1      53.448   1.521  18.675  0.00  0.00    +0.000 NA
ATOM     17  C   UNL     1      52.810   2.417  18.314  0.00  0.00    +0.000 C 
ENDBRANCH  10  17
ENDBRANCH   4  13
ENDBRANCH   1   8
BRANCH   1  18
ATOM     18  N   UNL     1      46.355   7.612  13.265  0.00  0.00    +0.000 N 
ATOM     19  H   UNL     1      45.765   7.909  14.035  0.00  0.00    +0.000 HD
BRANCH  18  20
ATOM     20  C   UNL     1      45.847   6.497  12.580  0.00  0.00    +0.000 A 
ATOM     21  C   UNL     1      44.890   6.549  11.567  0.00  0.00    +0.000 A 
ATOM     22  C   UNL     1      44.347   5.368  11.027  0.00  0.00    +0.000 A 
ATOM     23  C   UNL     1      44.737   4.112  11.515  0.00  0.00    +0.000 A 
ATOM     24  C   UNL     1      45.693   4.064  12.522  0.00  0.00    +0.000 A 
ATOM     25  F   UNL     1      46.111   2.897  13.040  0.00  0.00    +0.000 F 
ATOM     26  C   UNL     1      46.233   5.232  13.048  0.00  0.00    +0.000 A 
BRANCH  23  27
ATOM     27  C   UNL     1      44.090   2.887  10.973  0.00  0.00    +0.000 C 
ATOM     28  N   UNL     1      44.708   2.232   9.945  0.00  0.00    +0.000 N 
ATOM     29  O   UNL     1      43.041   2.460  11.439  0.00  0.00    +0.000 OA
ATOM     30  H   UNL     1      45.589   2.534   9.547  0.00  0.00    +0.000 HD
ATOM     31  H   UNL     1      44.291   1.377   9.602  0.00  0.00    +0.000 HD
ENDBRANCH  23  27
ENDBRANCH  18  20
ENDBRANCH   1  18
TORSDOF 6
ENDMDL
MODEL 6
REMARK VINA RESULT:    -6.744      4.942      8.443
REMARK INTER + INTRA:         -10.349
REMARK INTER:                  -8.918
REMARK INTRA:                  -1.431
REMARK UNBOUND:                -1.239
REMARK  Name = 
REMARK  6 active torsions:
REMARK  status: ('A' for Active; 'I' for Inactive)
REMARK    1  A    between atoms: C_2  and  C_3
REMARK    2  A    between atoms: C_6  and  C_7
REMARK    3  A    between atoms: C_11  and  C_12
REMARK    4  A    between atoms: C_12  and  N_13
REMARK    5  A    between atoms: N_13  and  C_14
REMARK    6  A    between atoms: C_17  and  C_18
REMARK                            x       y       z     vdW  Elec       q    Type
REMARK                         _______ _______ _______ _____ _____    ______ ____
ROOT
ATOM      1  C   UNL     1      49.045   8.640  17.134  0.00  0.00    +0.000 C 
ATOM      2  C   UNL     1      47.891   9.563  17.466  0.00  0.00    +0.000 C 
ATOM      3  C   UNL     1      49.278  10.112  17.487  0.00  0.00    +0.000 C 
ENDROOT
BRANCH   1   8
ATOM      4  C   UNL     1      48.446   7.039  13.658  0.00  0.00    +0.000 A 
ATOM      5  C   UNL     1      49.628   7.417  13.003  0.00  0.00    +0.000 A 
ATOM      6  C   UNL     1      50.595   8.193  13.644  0.00  0.00    +0.000 A 
ATOM      7  C   UNL     1      50.410   8.591  14.967  0.00  0.00    +0.000 A 
ATOM      8  C   UNL     1      49.257   8.234  15.678  0.00  0.00    +0.000 A 
ATOM      9  C   UNL     1      48.287   7.475  14.989  0.00  0.00    +0.000 A 
BRANCH   4  13
ATOM     10  C   UNL     1      45.385   4.664  11.729  0.00  0.00    +0.000 A 
ATOM     11  C   UNL     1      45.914   4.269  12.958  0.00  0.00    +0.000 A 
ATOM     12  C   UNL     1      46.914   5.034  13.574  0.00  0.00    +0.000 A 
ATOM     13  C   UNL     1      47.404   6.218  12.989  0.00  0.00    +0.000 A 
ATOM     14  C   UNL     1      46.858   6.592  11.749  0.00  0.00    +0.000 A 
ATOM     15  C   UNL     1      45.864   5.826  11.123  0.00  0.00    +0.000 A 
BRANCH  10  17
ATOM     16  N   UNL     1      43.536   3.254  10.582  0.00  0.00    +0.000 NA
ATOM     17  C   UNL     1      44.363   3.883  11.094  0.00  0.00    +0.000 C 
ENDBRANCH  10  17
ENDBRANCH   4  13
ENDBRANCH   1   8
BRANCH   1  18
ATOM     18  N   UNL     1      49.642   7.718  18.110  0.00  0.00    +0.000 N 
ATOM     19  H   UNL     1      50.259   8.156  18.786  0.00  0.00    +0.000 HD
BRANCH  18  20
ATOM     20  C   UNL     1      49.887   6.345  17.950  0.00  0.00    +0.000 A 
ATOM     21  C   UNL     1      51.134   5.783  17.677  0.00  0.00    +0.000 A 
ATOM     22  C   UNL     1      51.261   4.407  17.406  0.00  0.00    +0.000 A 
ATOM     23  C   UNL     1      50.132   3.576  17.377  0.00  0.00    +0.000 A 
ATOM     24  C   UNL     1      48.892   4.139  17.652  0.00  0.00    +0.000 A 
ATOM     25  F   UNL     1      47.767   3.404  17.639  0.00  0.00    +0.000 F 
ATOM     26  C   UNL     1      48.771   5.496  17.928  0.00  0.00    +0.000 A 
BRANCH  23  27
ATOM     27  C   UNL     1      50.292   2.142  17.016  0.00  0.00    +0.000 C 
ATOM     28  N   UNL     1      51.122   1.372  17.781  0.00  0.00    +0.000 N 
ATOM     29  O   UNL     1      49.688   1.651  16.070  0.00  0.00    +0.000 OA
ATOM     30  H   UNL     1      51.621   1.730  18.587  0.00  0.00    +0.000 HD
ATOM     31  H   UNL     1      51.202   0.388  17.561  0.00  0.00    +0.000 HD
ENDBRANCH  23  27
ENDBRANCH  18  20
ENDBRANCH   1  18
TORSDOF 6
ENDMDL
MODEL 7
REMARK VINA RESULT:    -6.523      3.939      7.634
REMARK INTER + INTRA:         -10.050
REMARK INTER:                  -9.098
REMARK INTRA:                  -0.952
REMARK UNBOUND:                -1.239
REMARK  Name = 
REMARK  6 active torsions:
REMARK  status: ('A' for Active; 'I' for Inactive)
REMARK    1  A    between atoms: C_2  and  C_3
REMARK    2  A    between atoms: C_6  and  C_7
REMARK    3  A    between atoms: C_11  and  C_12
REMARK    4  A    between atoms: C_12  and  N_13
REMARK    5  A    between atoms: N_13  and  C_14
REMARK    6  A    between atoms: C_17  and  C_18
REMARK                            x       y       z     vdW  Elec       q    Type
REMARK                         _______ _______ _______ _____ _____    ______ ____
ROOT
ATOM      1  C   UNL     1      46.068   7.713  12.743  0.00  0.00    +0.000 C 
ATOM      2  C   UNL     1      45.376   8.964  13.242  0.00  0.00    +0.000 C 
ATOM      3  C   UNL     1      46.232   9.055  12.024  0.00  0.00    +0.000 C 
ENDROOT
BRANCH   1   8
ATOM      4  C   UNL     1      45.017   4.944  10.247  0.00  0.00    +0.000 A 
ATOM      5  C   UNL     1      43.704   4.704  10.681  0.00  0.00    +0.000 A 
ATOM      6  C   UNL     1      43.162   5.391  11.768  0.00  0.00    +0.000 A 
ATOM      7  C   UNL     1      43.918   6.354  12.435  0.00  0.00    +0.000 A 
ATOM      8  C   UNL     1      45.231   6.648  12.041  0.00  0.00    +0.000 A 
ATOM      9  C   UNL     1      45.756   5.911  10.957  0.00  0.00    +0.000 A 
BRANCH   4  13
ATOM     10  C   UNL     1      46.777   2.824   6.909  0.00  0.00    +0.000 A 
ATOM     11  C   UNL     1      46.934   4.205   7.030  0.00  0.00    +0.000 A 
ATOM     12  C   UNL     1      46.352   4.890   8.106  0.00  0.00    +0.000 A 
ATOM     13  C   UNL     1      45.610   4.217   9.095  0.00  0.00    +0.000 A 
ATOM     14  C   UNL     1      45.462   2.827   8.949  0.00  0.00    +0.000 A 
ATOM     15  C   UNL     1      46.034   2.137   7.869  0.00  0.00    +0.000 A 
BRANCH  10  17
ATOM     16  N   UNL     1      47.845   1.552   4.919  0.00  0.00    +0.000 NA
ATOM     17  C   UNL     1      47.368   2.120   5.809  0.00  0.00    +0.000 C 
ENDBRANCH  10  17
ENDBRANCH   4  13
ENDBRANCH   1   8
BRANCH   1  18
ATOM     18  N   UNL     1      47.328   7.212  13.310  0.00  0.00    +0.000 N 
ATOM     19  H   UNL     1      48.152   7.403  12.749  0.00  0.00    +0.000 HD
BRANCH  18  20
ATOM     20  C   UNL     1      47.500   6.131  14.189  0.00  0.00    +0.000 A 
ATOM     21  C   UNL     1      46.949   4.861  14.010  0.00  0.00    +0.000 A 
ATOM     22  C   UNL     1      47.070   3.876  15.009  0.00  0.00    +0.000 A 
ATOM     23  C   UNL     1      47.723   4.158  16.218  0.00  0.00    +0.000 A 
ATOM     24  C   UNL     1      48.272   5.423  16.391  0.00  0.00    +0.000 A 
ATOM     25  F   UNL     1      48.909   5.765  17.523  0.00  0.00    +0.000 F 
ATOM     26  C   UNL     1      48.158   6.391  15.399  0.00  0.00    +0.000 A 
BRANCH  23  27
ATOM     27  C   UNL     1      47.769   3.119  17.281  0.00  0.00    +0.000 C 
ATOM     28  N   UNL     1      48.989   2.763  17.783  0.00  0.00    +0.000 N 
ATOM     29  O   UNL     1      46.745   2.603  17.712  0.00  0.00    +0.000 OA
ATOM     30  H   UNL     1      49.857   3.183  17.475  0.00  0.00    +0.000 HD
ATOM     31  H   UNL     1      49.020   2.086  18.534  0.00  0.00    +0.000 HD
ENDBRANCH  23  27
ENDBRANCH  18  20
ENDBRANCH   1  18
TORSDOF 6
ENDMDL
MODEL 8
REMARK VINA RESULT:    -6.258      6.239      9.141
REMARK INTER + INTRA:          -9.692
REMARK INTER:                  -8.396
REMARK INTRA:                  -1.296
REMARK UNBOUND:                -1.239
REMARK  Name = 
REMARK  6 active torsions:
REMARK  status: ('A' for Active; 'I' for Inactive)
REMARK    1  A    between atoms: C_2  and  C_3
REMARK    2  A    between atoms: C_6  and  C_7
REMARK    3  A    between atoms: C_11  and  C_12
REMARK    4  A    between atoms: C_12  and  N_13
REMARK    5  A    between atoms: N_13  and  C_14
REMARK    6  A    between atoms: C_17  and  C_18
REMARK                            x       y       z     vdW  Elec       q    Type
REMARK                         _______ _______ _______ _____ _____    ______ ____
ROOT
ATOM      1  C   UNL     1      49.214   5.691  18.061  0.00  0.00    +0.000 C 
ATOM      2  C   UNL     1      47.889   5.203  18.606  0.00  0.00    +0.000 C 
ATOM      3  C   UNL     1      48.440   6.493  19.110  0.00  0.00    +0.000 C 
ENDROOT
BRANCH   1   8
ATOM      4  C   UNL     1      48.294   6.352  14.356  0.00  0.00    +0.000 A 
ATOM      5  C   UNL     1      49.319   7.241  14.001  0.00  0.00    +0.000 A 
ATOM      6  C   UNL     1      50.279   7.650  14.928  0.00  0.00    +0.000 A 
ATOM      7  C   UNL     1      50.246   7.158  16.232  0.00  0.00    +0.000 A 
ATOM      8  C   UNL     1      49.255   6.257  16.644  0.00  0.00    +0.000 A 
ATOM      9  C   UNL     1      48.283   5.891  15.688  0.00  0.00    +0.000 A 
BRANCH   4  13
ATOM     10  C   UNL     1      45.261   5.086  11.539  0.00  0.00    +0.000 A 
ATOM     11  C   UNL     1      45.464   4.377  12.724  0.00  0.00    +0.000 A 
ATOM     12  C   UNL     1      46.455   4.783  13.628  0.00  0.00    +0.000 A 
ATOM     13  C   UNL     1      47.262   5.911  13.383  0.00  0.00    +0.000 A 
ATOM     14  C   UNL     1      47.041   6.606  12.181  0.00  0.00    +0.000 A 
ATOM     15  C   UNL     1      46.058   6.199  11.268  0.00  0.00    +0.000 A 
BRANCH  10  17
ATOM     16  N   UNL     1      43.432   4.341   9.861  0.00  0.00    +0.000 NA
ATOM     17  C   UNL     1      44.250   4.673  10.610  0.00  0.00    +0.000 C 
ENDBRANCH  10  17
ENDBRANCH   4  13
ENDBRANCH   1   8
BRANCH   1  18
ATOM     18  N   UNL     1      50.512   5.209  18.555  0.00  0.00    +0.000 N 
ATOM     19  H   UNL     1      51.147   5.938  18.862  0.00  0.00    +0.000 HD
BRANCH  18  20
ATOM     20  C   UNL     1      51.169   4.017  18.210  0.00  0.00    +0.000 A 
ATOM     21  C   UNL     1      50.575   2.940  17.551  0.00  0.00    +0.000 A 
ATOM     22  C   UNL     1      51.279   1.735  17.361  0.00  0.00    +0.000 A 
ATOM     23  C   UNL     1      52.583   1.582  17.853  0.00  0.00    +0.000 A 
ATOM     24  C   UNL     1      53.172   2.658  18.506  0.00  0.00    +0.000 A 
ATOM     25  F   UNL     1      54.416   2.583  19.007  0.00  0.00    +0.000 F 
ATOM     26  C   UNL     1      52.477   3.849  18.685  0.00  0.00    +0.000 A 
BRANCH  23  27
ATOM     27  C   UNL     1      53.271   0.272  17.699  0.00  0.00    +0.000 C 
ATOM     28  N   UNL     1      52.871  -0.764  18.496  0.00  0.00    +0.000 N 
ATOM     29  O   UNL     1      54.160   0.112  16.873  0.00  0.00    +0.000 OA
ATOM     30  H   UNL     1      52.123  -0.683  19.174  0.00  0.00    +0.000 HD
ATOM     31  H   UNL     1      53.310  -1.666  18.366  0.00  0.00    +0.000 HD
ENDBRANCH  23  27
ENDBRANCH  18  20
ENDBRANCH   1  18
TORSDOF 6
ENDMDL
