MODEL 1
REMARK VINA RESULT:    -9.675      0.000      0.000
REMARK INTER + INTRA:         -13.482
REMARK INTER:                 -13.069
REMARK INTRA:                  -0.413
REMARK UNBOUND:                -0.413
REMARK  Name = 
REMARK  6 active torsions:
REMARK  status: ('A' for Active; 'I' for Inactive)
REMARK    1  A    between atoms: C_2  and  C_4
REMARK    2  A    between atoms: N_8  and  C_9
REMARK    3  A    between atoms: C_9  and  C_10
REMARK    4  A    between atoms: C_10  and  C_11
REMARK    5  A    between atoms: C_15  and  N_16
REMARK    6  A    between atoms: N_16  and  C_17
REMARK                            x       y       z     vdW  Elec       q    Type
REMARK                         _______ _______ _______ _____ _____    ______ ____
ROOT
ATOM      1  C   UNL     1      43.136   5.229  12.392  0.00  0.00    +0.000 C 
ENDROOT
BRANCH   1   2
ATOM      2  C   UNL     1      44.585   5.498  12.747  0.00  0.00    +0.000 A 
ATOM      3  C   UNL     1      45.235   6.566  12.151  0.00  0.00    +0.000 A 
ATOM      4  C   UNL     1      46.536   6.842  12.552  0.00  0.00    +0.000 A 
ATOM      5  C   UNL     1      47.156   6.017  13.494  0.00  0.00    +0.000 A 
ATOM      6  C   UNL     1      46.479   4.912  13.992  0.00  0.00    +0.000 A 
ATOM      7  N   UNL     1      45.198   4.666  13.637  0.00  0.00    +0.000 NA
BRANCH   6   8
ATOM      8  N   UNL     1      47.066   4.002  14.888  0.00  0.00    +0.000 N 
ATOM      9  H   UNL     1      47.738   3.419  14.401  0.00  0.00    +0.000 HD
BRANCH   8  10
ATOM     10  C   UNL     1      47.220   4.139  16.318  0.00  0.00    +0.000 C 
ATOM     11  C   UNL     1      48.393   5.027  16.762  0.00  0.00    +0.000 C 
ATOM     12  C   UNL     1      48.808   3.959  17.786  0.00  0.00    +0.000 C 
ATOM     13  C   UNL     1      47.905   2.937  17.060  0.00  0.00    +0.000 C 
ATOM     14  F   UNL     1      47.092   2.227  17.881  0.00  0.00    +0.000 F 
ATOM     15  F   UNL     1      48.566   2.033  16.299  0.00  0.00    +0.000 F 
ENDBRANCH   8  10
ENDBRANCH   6   8
ENDBRANCH   1   2
BRANCH   1  16
ATOM     16  C   UNL     1      43.030   4.319  11.170  0.00  0.00    +0.000 C 
BRANCH  16  21
ATOM     17  C   UNL     1      46.348   2.471   7.747  0.00  0.00    +0.000 A 
ATOM     18  C   UNL     1      45.635   1.850   8.763  0.00  0.00    +0.000 A 
ATOM     19  C   UNL     1      44.786   2.619   9.560  0.00  0.00    +0.000 A 
ATOM     20  C   UNL     1      44.672   3.990   9.339  0.00  0.00    +0.000 A 
ATOM     21  N   UNL     1      43.841   4.799  10.070  0.00  0.00    +0.000 N 
ATOM     22  N   UNL     1      45.369   4.604   8.363  0.00  0.00    +0.000 NA
ATOM     23  C   UNL     1      46.192   3.840   7.592  0.00  0.00    +0.000 A 
ATOM     24  H   UNL     1      43.967   5.787   9.894  0.00  0.00    +0.000 HD
BRANCH  17  26
ATOM     25  N   UNL     1      48.378   2.443   6.415  0.00  0.00    +0.000 N 
ATOM     26  C   UNL     1      47.285   1.745   6.868  0.00  0.00    +0.000 C 
ATOM     27  O   UNL     1      47.117   0.578   6.579  0.00  0.00    +0.000 OA
ATOM     28  H   UNL     1      49.059   1.911   5.889  0.00  0.00    +0.000 HD
ATOM     29  H   UNL     1      48.682   3.309   6.834  0.00  0.00    +0.000 HD
ENDBRANCH  17  26
ENDBRANCH  16  21
ENDBRANCH   1  16
TORSDOF 6
ENDMDL
MODEL 2
REMARK VINA RESULT:    -9.323      0.979      1.235
REMARK INTER + INTRA:         -13.007
REMARK INTER:                 -12.348
REMARK INTRA:                  -0.659
REMARK UNBOUND:                -0.413
REMARK  Name = 
REMARK  6 active torsions:
REMARK  status: ('A' for Active; 'I' for Inactive)
REMARK    1  A    between atoms: C_2  and  C_4
REMARK    2  A    between atoms: N_8  and  C_9
REMARK    3  A    between atoms: C_9  and  C_10
REMARK    4  A    between atoms: C_10  and  C_11
REMARK    5  A    between atoms: C_15  and  N_16
REMARK    6  A    between atoms: N_16  and  C_17
REMARK                            x       y       z     vdW  Elec       q    Type
REMARK                         _______ _______ _______ _____ _____    ______ ____
ROOT
ATOM      1  C   UNL     1      43.209   5.308  12.366  0.00  0.00    +0.000 C 
ENDROOT
BRANCH   1   2
ATOM      2  C   UNL     1      44.645   5.462  12.826  0.00  0.00    +0.000 A 
ATOM      3  C   UNL     1      45.399   6.515  12.335  0.00  0.00    +0.000 A 
ATOM      4  C   UNL     1      46.684   6.683  12.833  0.00  0.00    +0.000 A 
ATOM      5  C   UNL     1      47.187   5.770  13.763  0.00  0.00    +0.000 A 
ATOM      6  C   UNL     1      46.411   4.688  14.153  0.00  0.00    +0.000 A 
ATOM      7  N   UNL     1      45.145   4.546  13.704  0.00  0.00    +0.000 NA
BRANCH   6   8
ATOM      8  N   UNL     1      46.879   3.694  15.030  0.00  0.00    +0.000 N 
ATOM      9  H   UNL     1      46.576   2.779  14.714  0.00  0.00    +0.000 HD
BRANCH   8  10
ATOM     10  C   UNL     1      48.036   3.746  15.894  0.00  0.00    +0.000 C 
ATOM     11  C   UNL     1      48.334   2.447  16.660  0.00  0.00    +0.000 C 
ATOM     12  C   UNL     1      48.530   3.259  17.950  0.00  0.00    +0.000 C 
ATOM     13  C   UNL     1      47.841   4.466  17.275  0.00  0.00    +0.000 C 
ATOM     14  F   UNL     1      48.506   5.639  17.414  0.00  0.00    +0.000 F 
ATOM     15  F   UNL     1      46.570   4.695  17.680  0.00  0.00    +0.000 F 
ENDBRANCH   8  10
ENDBRANCH   6   8
ENDBRANCH   1   2
BRANCH   1  16
ATOM     16  C   UNL     1      43.113   4.359  11.174  0.00  0.00    +0.000 C 
BRANCH  16  21
ATOM     17  C   UNL     1      46.373   2.436   7.735  0.00  0.00    +0.000 A 
ATOM     18  C   UNL     1      45.669   1.836   8.769  0.00  0.00    +0.000 A 
ATOM     19  C   UNL     1      44.836   2.623   9.566  0.00  0.00    +0.000 A 
ATOM     20  C   UNL     1      44.729   3.991   9.326  0.00  0.00    +0.000 A 
ATOM     21  N   UNL     1      43.914   4.816  10.056  0.00  0.00    +0.000 N 
ATOM     22  N   UNL     1      45.418   4.585   8.332  0.00  0.00    +0.000 NA
ATOM     23  C   UNL     1      46.225   3.804   7.562  0.00  0.00    +0.000 A 
ATOM     24  H   UNL     1      44.046   5.801   9.864  0.00  0.00    +0.000 HD
BRANCH  17  26
ATOM     25  N   UNL     1      48.365   2.384   6.347  0.00  0.00    +0.000 N 
ATOM     26  C   UNL     1      47.293   1.690   6.855  0.00  0.00    +0.000 C 
ATOM     27  O   UNL     1      47.130   0.512   6.610  0.00  0.00    +0.000 OA
ATOM     28  H   UNL     1      49.036   1.841   5.820  0.00  0.00    +0.000 HD
ATOM     29  H   UNL     1      48.670   3.267   6.727  0.00  0.00    +0.000 HD
ENDBRANCH  17  26
ENDBRANCH  16  21
ENDBRANCH   1  16
TORSDOF 6
ENDMDL
MODEL 3
REMARK VINA RESULT:    -9.076      2.817      3.961
REMARK INTER + INTRA:         -12.672
REMARK INTER:                 -11.522
REMARK INTRA:                  -1.150
REMARK UNBOUND:                -0.413
REMARK  Name = 
REMARK  6 active torsions:
REMARK  status: ('A' for Active; 'I' for Inactive)
REMARK    1  A    between atoms: C_2  and  C_4
REMARK    2  A    between atoms: N_8  and  C_9
REMARK    3  A    between atoms: C_9  and  C_10
REMARK    4  A    between atoms: C_10  and  C_11
REMARK    5  A    between atoms: C_15  and  N_16
REMARK    6  A    between atoms: N_16  and  C_17
REMARK                            x       y       z     vdW  Elec       q    Type
REMARK                         _______ _______ _______ _____ _____    ______ ____
ROOT
ATOM      1  C   UNL     1      43.170   4.973  12.524  0.00  0.00    +0.000 C 
ENDROOT
BRANCH   1   2
ATOM      2  C   UNL     1      44.610   5.332  12.829  0.00  0.00    +0.000 A 
ATOM      3  C   UNL     1      45.436   4.374  13.394  0.00  0.00    +0.000 A 
ATOM      4  C   UNL     1      46.772   4.699  13.589  0.00  0.00    +0.000 A 
ATOM      5  C   UNL     1      47.224   5.980  13.261  0.00  0.00    +0.000 A 
ATOM      6  C   UNL     1      46.327   6.922  12.776  0.00  0.00    +0.000 A 
ATOM      7  N   UNL     1      45.037   6.595  12.544  0.00  0.00    +0.000 NA
BRANCH   6   8
ATOM      8  N   UNL     1      46.698   8.247  12.491  0.00  0.00    +0.000 N 
ATOM      9  H   UNL     1      45.880   8.847  12.499  0.00  0.00    +0.000 HD
BRANCH   8  10
ATOM     10  C   UNL     1      47.981   8.875  12.706  0.00  0.00    +0.000 C 
ATOM     11  C   UNL     1      48.166  10.232  12.008  0.00  0.00    +0.000 C 
ATOM     12  C   UNL     1      49.546   9.782  11.508  0.00  0.00    +0.000 C 
ATOM     13  C   UNL     1      49.177   8.322  11.853  0.00  0.00    +0.000 C 
ATOM     14  F   UNL     1      50.126   7.656  12.555  0.00  0.00    +0.000 F 
ATOM     15  F   UNL     1      48.871   7.545  10.787  0.00  0.00    +0.000 F 
ENDBRANCH   8  10
ENDBRANCH   6   8
ENDBRANCH   1   2
BRANCH   1  16
ATOM     16  C   UNL     1      43.065   4.191  11.216  0.00  0.00    +0.000 C 
BRANCH  16  21
ATOM     17  C   UNL     1      46.440   2.522   7.757  0.00  0.00    +0.000 A 
ATOM     18  C   UNL     1      45.665   1.843   8.686  0.00  0.00    +0.000 A 
ATOM     19  C   UNL     1      44.816   2.572   9.520  0.00  0.00    +0.000 A 
ATOM     20  C   UNL     1      44.763   3.960   9.421  0.00  0.00    +0.000 A 
ATOM     21  N   UNL     1      43.936   4.734  10.194  0.00  0.00    +0.000 N 
ATOM     22  N   UNL     1      45.520   4.630   8.530  0.00  0.00    +0.000 NA
ATOM     23  C   UNL     1      46.343   3.905   7.722  0.00  0.00    +0.000 A 
ATOM     24  H   UNL     1      44.107   5.728  10.113  0.00  0.00    +0.000 HD
BRANCH  17  26
ATOM     25  N   UNL     1      48.474   2.562   6.430  0.00  0.00    +0.000 N 
ATOM     26  C   UNL     1      47.382   1.840   6.849  0.00  0.00    +0.000 C 
ATOM     27  O   UNL     1      47.220   0.686   6.507  0.00  0.00    +0.000 OA
ATOM     28  H   UNL     1      49.158   2.056   5.882  0.00  0.00    +0.000 HD
ATOM     29  H   UNL     1      48.773   3.410   6.888  0.00  0.00    +0.000 HD
ENDBRANCH  17  26
ENDBRANCH  16  21
ENDBRANCH   1  16
TORSDOF 6
ENDMDL
MODEL 4
REMARK VINA RESULT:    -8.910      3.660      5.015
REMARK INTER + INTRA:         -12.448
REMARK INTER:                 -11.618
REMARK INTRA:                  -0.830
REMARK UNBOUND:                -0.413
REMARK  Name = 
REMARK  6 active torsions:
REMARK  status: ('A' for Active; 'I' for Inactive)
REMARK    1  A    between atoms: C_2  and  C_4
REMARK    2  A    between atoms: N_8  and  C_9
REMARK    3  A    between atoms: C_9  and  C_10
REMARK    4  A    between atoms: C_10  and  C_11
REMARK    5  A    between atoms: C_15  and  N_16
REMARK    6  A    between atoms: N_16  and  C_17
REMARK                            x       y       z     vdW  Elec       q    Type
REMARK                         _______ _______ _______ _____ _____    ______ ____
ROOT
ATOM      1  C   UNL     1      43.814   3.827  12.322  0.00  0.00    +0.000 C 
ENDROOT
BRANCH   1   2
ATOM      2  C   UNL     1      44.859   4.855  12.704  0.00  0.00    +0.000 A 
ATOM      3  C   UNL     1      46.077   4.423  13.202  0.00  0.00    +0.000 A 
ATOM      4  C   UNL     1      47.048   5.379  13.468  0.00  0.00    +0.000 A 
ATOM      5  C   UNL     1      46.754   6.731  13.275  0.00  0.00    +0.000 A 
ATOM      6  C   UNL     1      45.486   7.105  12.852  0.00  0.00    +0.000 A 
ATOM      7  N   UNL     1      44.554   6.176  12.551  0.00  0.00    +0.000 NA
BRANCH   6   8
ATOM      8  N   UNL     1      45.101   8.449  12.704  0.00  0.00    +0.000 N 
ATOM      9  H   UNL     1      44.859   8.844  13.606  0.00  0.00    +0.000 HD
BRANCH   8  10
ATOM     10  C   UNL     1      45.482   9.371  11.659  0.00  0.00    +0.000 C 
ATOM     11  C   UNL     1      46.365  10.544  12.117  0.00  0.00    +0.000 C 
ATOM     12  C   UNL     1      45.475  11.516  11.328  0.00  0.00    +0.000 C 
ATOM     13  C   UNL     1      44.395  10.416  11.223  0.00  0.00    +0.000 C 
ATOM     14  F   UNL     1      43.893  10.241   9.976  0.00  0.00    +0.000 F 
ATOM     15  F   UNL     1      43.332  10.583  12.045  0.00  0.00    +0.000 F 
ENDBRANCH   8  10
ENDBRANCH   6   8
ENDBRANCH   1   2
BRANCH   1  16
ATOM     16  C   UNL     1      43.030   4.272  11.089  0.00  0.00    +0.000 C 
BRANCH  16  21
ATOM     17  C   UNL     1      46.390   2.436   7.700  0.00  0.00    +0.000 A 
ATOM     18  C   UNL     1      45.610   1.802   8.656  0.00  0.00    +0.000 A 
ATOM     19  C   UNL     1      44.767   2.571   9.460  0.00  0.00    +0.000 A 
ATOM     20  C   UNL     1      44.725   3.955   9.304  0.00  0.00    +0.000 A 
ATOM     21  N   UNL     1      43.905   4.765  10.045  0.00  0.00    +0.000 N 
ATOM     22  N   UNL     1      45.488   4.581   8.387  0.00  0.00    +0.000 NA
ATOM     23  C   UNL     1      46.304   3.817   7.609  0.00  0.00    +0.000 A 
ATOM     24  H   UNL     1      44.084   5.754   9.924  0.00  0.00    +0.000 HD
BRANCH  17  26
ATOM     25  N   UNL     1      48.351   2.439   6.267  0.00  0.00    +0.000 N 
ATOM     26  C   UNL     1      47.326   1.710   6.820  0.00  0.00    +0.000 C 
ATOM     27  O   UNL     1      47.216   0.519   6.613  0.00  0.00    +0.000 OA
ATOM     28  H   UNL     1      49.037   1.914   5.741  0.00  0.00    +0.000 HD
ATOM     29  H   UNL     1      48.621   3.347   6.615  0.00  0.00    +0.000 HD
ENDBRANCH  17  26
ENDBRANCH  16  21
ENDBRANCH   1  16
TORSDOF 6
ENDMDL
MODEL 5
REMARK VINA RESULT:    -8.603      3.306      3.722
REMARK INTER + INTRA:         -12.034
REMARK INTER:                 -10.984
REMARK INTRA:                  -1.050
REMARK UNBOUND:                -0.413
REMARK  Name = 
REMARK  6 active torsions:
REMARK  status: ('A' for Active; 'I' for Inactive)
REMARK    1  A    between atoms: C_2  and  C_4
REMARK    2  A    between atoms: N_8  and  C_9
REMARK    3  A    between atoms: C_9  and  C_10
REMARK    4  A    between atoms: C_10  and  C_11
REMARK    5  A    between atoms: C_15  and  N_16
REMARK    6  A    between atoms: N_16  and  C_17
REMARK                            x       y       z     vdW  Elec       q    Type
REMARK                         _______ _______ _______ _____ _____    ______ ____
ROOT
ATOM      1  C   UNL     1      44.088   3.838  12.559  0.00  0.00    +0.000 C 
ENDROOT
BRANCH   1   2
ATOM      2  C   UNL     1      44.640   5.243  12.423  0.00  0.00    +0.000 A 
ATOM      3  C   UNL     1      44.013   6.130  11.563  0.00  0.00    +0.000 A 
ATOM      4  C   UNL     1      44.485   7.436  11.516  0.00  0.00    +0.000 A 
ATOM      5  C   UNL     1      45.592   7.795  12.289  0.00  0.00    +0.000 A 
ATOM      6  C   UNL     1      46.227   6.838  13.067  0.00  0.00    +0.000 A 
ATOM      7  N   UNL     1      45.744   5.579  13.149  0.00  0.00    +0.000 NA
BRANCH   6   8
ATOM      8  N   UNL     1      47.386   7.113  13.815  0.00  0.00    +0.000 N 
ATOM      9  H   UNL     1      47.181   7.060  14.807  0.00  0.00    +0.000 HD
BRANCH   8  10
ATOM     10  C   UNL     1      48.763   6.941  13.413  0.00  0.00    +0.000 C 
ATOM     11  C   UNL     1      49.803   7.422  14.437  0.00  0.00    +0.000 C 
ATOM     12  C   UNL     1      50.569   8.139  13.315  0.00  0.00    +0.000 C 
ATOM     13  C   UNL     1      49.330   8.002  12.403  0.00  0.00    +0.000 C 
ATOM     14  F   UNL     1      49.598   7.530  11.162  0.00  0.00    +0.000 F 
ATOM     15  F   UNL     1      48.617   9.141  12.235  0.00  0.00    +0.000 F 
ENDBRANCH   8  10
ENDBRANCH   6   8
ENDBRANCH   1   2
BRANCH   1  16
ATOM     16  C   UNL     1      43.402   3.390  11.270  0.00  0.00    +0.000 C 
BRANCH  16  21
ATOM     17  C   UNL     1      46.527   2.716   7.280  0.00  0.00    +0.000 A 
ATOM     18  C   UNL     1      45.908   3.853   7.779  0.00  0.00    +0.000 A 
ATOM     19  C   UNL     1      45.090   3.738   8.905  0.00  0.00    +0.000 A 
ATOM     20  C   UNL     1      44.897   2.495   9.503  0.00  0.00    +0.000 A 
ATOM     21  N   UNL     1      44.125   2.315  10.622  0.00  0.00    +0.000 N 
ATOM     22  N   UNL     1      45.485   1.383   9.018  0.00  0.00    +0.000 NA
ATOM     23  C   UNL     1      46.281   1.512   7.921  0.00  0.00    +0.000 A 
ATOM     24  H   UNL     1      43.961   1.345  10.858  0.00  0.00    +0.000 HD
BRANCH  17  26
ATOM     25  N   UNL     1      48.724   2.461   6.275  0.00  0.00    +0.000 N 
ATOM     26  C   UNL     1      47.391   2.737   6.083  0.00  0.00    +0.000 C 
ATOM     27  O   UNL     1      46.946   2.958   4.976  0.00  0.00    +0.000 OA
ATOM     28  H   UNL     1      49.288   2.389   5.439  0.00  0.00    +0.000 HD
ATOM     29  H   UNL     1      49.073   2.027   7.116  0.00  0.00    +0.000 HD
ENDBRANCH  17  26
ENDBRANCH  16  21
ENDBRANCH   1  16
TORSDOF 6
ENDMDL
MODEL 6
REMARK VINA RESULT:    -8.318      1.963      2.326
REMARK INTER + INTRA:         -11.649
REMARK INTER:                 -10.895
REMARK INTRA:                  -0.754
REMARK UNBOUND:                -0.413
REMARK  Name = 
REMARK  6 active torsions:
REMARK  status: ('A' for Active; 'I' for Inactive)
REMARK    1  A    between atoms: C_2  and  C_4
REMARK    2  A    between atoms: N_8  and  C_9
REMARK    3  A    between atoms: C_9  and  C_10
REMARK    4  A    between atoms: C_10  and  C_11
REMARK    5  A    between atoms: C_15  and  N_16
REMARK    6  A    between atoms: N_16  and  C_17
REMARK                            x       y       z     vdW  Elec       q    Type
REMARK                         _______ _______ _______ _____ _____    ______ ____
ROOT
ATOM      1  C   UNL     1      43.825   4.019  12.547  0.00  0.00    +0.000 C 
ENDROOT
BRANCH   1   2
ATOM      2  C   UNL     1      44.952   5.032  12.575  0.00  0.00    +0.000 A 
ATOM      3  C   UNL     1      45.038   5.969  11.559  0.00  0.00    +0.000 A 
ATOM      4  C   UNL     1      46.030   6.938  11.649  0.00  0.00    +0.000 A 
ATOM      5  C   UNL     1      46.926   6.908  12.720  0.00  0.00    +0.000 A 
ATOM      6  C   UNL     1      46.837   5.893  13.662  0.00  0.00    +0.000 A 
ATOM      7  N   UNL     1      45.848   4.975  13.602  0.00  0.00    +0.000 NA
BRANCH   6   8
ATOM      8  N   UNL     1      47.747   5.763  14.726  0.00  0.00    +0.000 N 
ATOM      9  H   UNL     1      48.147   4.830  14.729  0.00  0.00    +0.000 HD
BRANCH   8  10
ATOM     10  C   UNL     1      48.497   6.807  15.385  0.00  0.00    +0.000 C 
ATOM     11  C   UNL     1      49.832   7.171  14.715  0.00  0.00    +0.000 C 
ATOM     12  C   UNL     1      50.525   7.131  16.086  0.00  0.00    +0.000 C 
ATOM     13  C   UNL     1      49.304   6.382  16.663  0.00  0.00    +0.000 C 
ATOM     14  F   UNL     1      48.839   6.886  17.833  0.00  0.00    +0.000 F 
ATOM     15  F   UNL     1      49.492   5.056  16.865  0.00  0.00    +0.000 F 
ENDBRANCH   8  10
ENDBRANCH   6   8
ENDBRANCH   1   2
BRANCH   1  16
ATOM     16  C   UNL     1      43.371   3.743  11.115  0.00  0.00    +0.000 C 
BRANCH  16  21
ATOM     17  C   UNL     1      46.591   2.514   7.337  0.00  0.00    +0.000 A 
ATOM     18  C   UNL     1      46.069   3.735   7.738  0.00  0.00    +0.000 A 
ATOM     19  C   UNL     1      45.193   3.772   8.824  0.00  0.00    +0.000 A 
ATOM     20  C   UNL     1      44.846   2.594   9.482  0.00  0.00    +0.000 A 
ATOM     21  N   UNL     1      44.009   2.563  10.567  0.00  0.00    +0.000 N 
ATOM     22  N   UNL     1      45.338   1.402   9.092  0.00  0.00    +0.000 NA
ATOM     23  C   UNL     1      46.193   1.382   8.032  0.00  0.00    +0.000 A 
ATOM     24  H   UNL     1      43.735   1.630  10.850  0.00  0.00    +0.000 HD
BRANCH  17  26
ATOM     25  N   UNL     1      47.306   3.225   5.128  0.00  0.00    +0.000 N 
ATOM     26  C   UNL     1      47.506   2.373   6.188  0.00  0.00    +0.000 C 
ATOM     27  O   UNL     1      48.412   1.565   6.186  0.00  0.00    +0.000 OA
ATOM     28  H   UNL     1      47.993   3.181   4.387  0.00  0.00    +0.000 HD
ATOM     29  H   UNL     1      46.747   4.061   5.201  0.00  0.00    +0.000 HD
ENDBRANCH  17  26
ENDBRANCH  16  21
ENDBRANCH   1  16
TORSDOF 6
ENDMDL
MODEL 7
REMARK VINA RESULT:    -8.203      3.912      7.783
REMARK INTER + INTRA:         -11.493
REMARK INTER:                 -10.778
REMARK INTRA:                  -0.715
REMARK UNBOUND:                -0.413
REMARK  Name = 
REMARK  6 active torsions:
REMARK  status: ('A' for Active; 'I' for Inactive)
REMARK    1  A    between atoms: C_2  and  C_4
REMARK    2  A    between atoms: N_8  and  C_9
REMARK    3  A    between atoms: C_9  and  C_10
REMARK    4  A    between atoms: C_10  and  C_11
REMARK    5  A    between atoms: C_15  and  N_16
REMARK    6  A    between atoms: N_16  and  C_17
REMARK                            x       y       z     vdW  Elec       q    Type
REMARK                         _______ _______ _______ _____ _____    ______ ____
ROOT
ATOM      1  C   UNL     1      46.099   7.254  12.043  0.00  0.00    +0.000 C 
ENDROOT
BRANCH   1   2
ATOM      2  C   UNL     1      45.115   6.155  11.696  0.00  0.00    +0.000 A 
ATOM      3  C   UNL     1      44.360   5.586  12.708  0.00  0.00    +0.000 A 
ATOM      4  C   UNL     1      43.406   4.639  12.356  0.00  0.00    +0.000 A 
ATOM      5  C   UNL     1      43.275   4.259  11.018  0.00  0.00    +0.000 A 
ATOM      6  C   UNL     1      44.119   4.807  10.062  0.00  0.00    +0.000 A 
ATOM      7  N   UNL     1      45.017   5.760  10.395  0.00  0.00    +0.000 NA
BRANCH   6   8
ATOM      8  N   UNL     1      44.089   4.420   8.711  0.00  0.00    +0.000 N 
ATOM      9  H   UNL     1      44.078   5.240   8.114  0.00  0.00    +0.000 HD
BRANCH   8  10
ATOM     10  C   UNL     1      44.564   3.185   8.131  0.00  0.00    +0.000 C 
ATOM     11  C   UNL     1      45.141   2.175   9.135  0.00  0.00    +0.000 C 
ATOM     12  C   UNL     1      46.349   1.954   8.212  0.00  0.00    +0.000 C 
ATOM     13  C   UNL     1      45.973   3.238   7.440  0.00  0.00    +0.000 C 
ATOM     14  F   UNL     1      45.960   3.097   6.092  0.00  0.00    +0.000 F 
ATOM     15  F   UNL     1      46.754   4.312   7.707  0.00  0.00    +0.000 F 
ENDBRANCH   8  10
ENDBRANCH   6   8
ENDBRANCH   1   2
BRANCH   1  16
ATOM     16  C   UNL     1      47.530   6.721  12.068  0.00  0.00    +0.000 C 
BRANCH  16  21
ATOM     17  C   UNL     1      47.722   4.083  16.444  0.00  0.00    +0.000 A 
ATOM     18  C   UNL     1      47.090   3.817  15.239  0.00  0.00    +0.000 A 
ATOM     19  C   UNL     1      47.210   4.735  14.194  0.00  0.00    +0.000 A 
ATOM     20  C   UNL     1      47.947   5.904  14.374  0.00  0.00    +0.000 A 
ATOM     21  N   UNL     1      48.123   6.836  13.385  0.00  0.00    +0.000 N 
ATOM     22  N   UNL     1      48.555   6.177  15.546  0.00  0.00    +0.000 NA
ATOM     23  C   UNL     1      48.429   5.271  16.554  0.00  0.00    +0.000 A 
ATOM     24  H   UNL     1      48.557   7.695  13.700  0.00  0.00    +0.000 HD
BRANCH  17  26
ATOM     25  N   UNL     1      48.671   3.227  18.509  0.00  0.00    +0.000 N 
ATOM     26  C   UNL     1      47.633   3.182  17.610  0.00  0.00    +0.000 C 
ATOM     27  O   UNL     1      46.678   2.455  17.785  0.00  0.00    +0.000 OA
ATOM     28  H   UNL     1      48.557   2.674  19.348  0.00  0.00    +0.000 HD
ATOM     29  H   UNL     1      49.336   3.986  18.534  0.00  0.00    +0.000 HD
ENDBRANCH  17  26
ENDBRANCH  16  21
ENDBRANCH   1  16
TORSDOF 6
ENDMDL
MODEL 8
REMARK VINA RESULT:    -8.177      2.973      3.479
REMARK INTER + INTRA:         -11.459
REMARK INTER:                 -10.657
REMARK INTRA:                  -0.801
REMARK UNBOUND:                -0.413
REMARK  Name = 
REMARK  6 active torsions:
REMARK  status: ('A' for Active; 'I' for Inactive)
REMARK    1  A    between atoms: C_2  and  C_4
REMARK    2  A    between atoms: N_8  and  C_9
REMARK    3  A    between atoms: C_9  and  C_10
REMARK    4  A    between atoms: C_10  and  C_11
REMARK    5  A    between atoms: C_15  and  N_16
REMARK    6  A    between atoms: N_16  and  C_17
REMARK                            x       y       z     vdW  Elec       q    Type
REMARK                         _______ _______ _______ _____ _____    ______ ____
ROOT
ATOM      1  C   UNL     1      42.747   6.089  11.400  0.00  0.00    +0.000 C 
ENDROOT
BRANCH   1   2
ATOM      2  C   UNL     1      43.671   7.275  11.592  0.00  0.00    +0.000 A 
ATOM      3  C   UNL     1      43.420   8.441  10.888  0.00  0.00    +0.000 A 
ATOM      4  C   UNL     1      44.231   9.541  11.141  0.00  0.00    +0.000 A 
ATOM      5  C   UNL     1      45.288   9.423  12.047  0.00  0.00    +0.000 A 
ATOM      6  C   UNL     1      45.537   8.202  12.657  0.00  0.00    +0.000 A 
ATOM      7  N   UNL     1      44.724   7.143  12.447  0.00  0.00    +0.000 NA
BRANCH   6   8
ATOM      8  N   UNL     1      46.624   7.994  13.524  0.00  0.00    +0.000 N 
ATOM      9  H   UNL     1      46.404   7.259  14.188  0.00  0.00    +0.000 HD
BRANCH   8  10
ATOM     10  C   UNL     1      48.021   8.267  13.277  0.00  0.00    +0.000 C 
ATOM     11  C   UNL     1      48.373   8.584  11.815  0.00  0.00    +0.000 C 
ATOM     12  C   UNL     1      49.565   7.619  11.898  0.00  0.00    +0.000 C 
ATOM     13  C   UNL     1      48.968   7.019  13.190  0.00  0.00    +0.000 C 
ATOM     14  F   UNL     1      49.853   6.894  14.209  0.00  0.00    +0.000 F 
ATOM     15  F   UNL     1      48.384   5.807  13.037  0.00  0.00    +0.000 F 
ENDBRANCH   8  10
ENDBRANCH   6   8
ENDBRANCH   1   2
BRANCH   1  16
ATOM     16  C   UNL     1      43.523   4.858  10.937  0.00  0.00    +0.000 C 
BRANCH  16  21
ATOM     17  C   UNL     1      46.506   2.405   7.585  0.00  0.00    +0.000 A 
ATOM     18  C   UNL     1      45.666   1.933   8.584  0.00  0.00    +0.000 A 
ATOM     19  C   UNL     1      44.961   2.852   9.364  0.00  0.00    +0.000 A 
ATOM     20  C   UNL     1      45.113   4.219   9.142  0.00  0.00    +0.000 A 
ATOM     21  N   UNL     1      44.434   5.172   9.856  0.00  0.00    +0.000 N 
ATOM     22  N   UNL     1      45.935   4.686   8.182  0.00  0.00    +0.000 NA
ATOM     23  C   UNL     1      46.615   3.779   7.429  0.00  0.00    +0.000 A 
ATOM     24  H   UNL     1      44.750   6.118   9.683  0.00  0.00    +0.000 HD
BRANCH  17  26
ATOM     25  N   UNL     1      48.311   2.095   5.991  0.00  0.00    +0.000 N 
ATOM     26  C   UNL     1      47.308   1.512   6.727  0.00  0.00    +0.000 C 
ATOM     27  O   UNL     1      47.112   0.315   6.689  0.00  0.00    +0.000 OA
ATOM     28  H   UNL     1      48.911   1.463   5.477  0.00  0.00    +0.000 HD
ATOM     29  H   UNL     1      48.664   3.019   6.190  0.00  0.00    +0.000 HD
ENDBRANCH  17  26
ENDBRANCH  16  21
ENDBRANCH   1  16
TORSDOF 6
ENDMDL
MODEL 9
REMARK VINA RESULT:    -8.164      4.193      8.345
REMARK INTER + INTRA:         -11.441
REMARK INTER:                 -11.068
REMARK INTRA:                  -0.373
REMARK UNBOUND:                -0.413
REMARK  Name = 
REMARK  6 active torsions:
REMARK  status: ('A' for Active; 'I' for Inactive)
REMARK    1  A    between atoms: C_2  and  C_4
REMARK    2  A    between atoms: N_8  and  C_9
REMARK    3  A    between atoms: C_9  and  C_10
REMARK    4  A    between atoms: C_10  and  C_11
REMARK    5  A    between atoms: C_15  and  N_16
REMARK    6  A    between atoms: N_16  and  C_17
REMARK                            x       y       z     vdW  Elec       q    Type
REMARK                         _______ _______ _______ _____ _____    ______ ____
ROOT
ATOM      1  C   UNL     1      46.151   6.807  12.478  0.00  0.00    +0.000 C 
ENDROOT
BRANCH   1   2
ATOM      2  C   UNL     1      45.102   5.834  11.979  0.00  0.00    +0.000 A 
ATOM      3  C   UNL     1      44.214   5.280  12.887  0.00  0.00    +0.000 A 
ATOM      4  C   UNL     1      43.211   4.455  12.395  0.00  0.00    +0.000 A 
ATOM      5  C   UNL     1      43.159   4.174  11.027  0.00  0.00    +0.000 A 
ATOM      6  C   UNL     1      44.128   4.694  10.181  0.00  0.00    +0.000 A 
ATOM      7  N   UNL     1      45.079   5.532  10.650  0.00  0.00    +0.000 NA
BRANCH   6   8
ATOM      8  N   UNL     1      44.177   4.397   8.809  0.00  0.00    +0.000 N 
ATOM      9  H   UNL     1      44.273   5.252   8.270  0.00  0.00    +0.000 HD
BRANCH   8  10
ATOM     10  C   UNL     1      44.605   3.168   8.181  0.00  0.00    +0.000 C 
ATOM     11  C   UNL     1      45.207   2.126   9.138  0.00  0.00    +0.000 C 
ATOM     12  C   UNL     1      46.371   1.907   8.159  0.00  0.00    +0.000 C 
ATOM     13  C   UNL     1      45.985   3.214   7.433  0.00  0.00    +0.000 C 
ATOM     14  F   UNL     1      45.912   3.104   6.084  0.00  0.00    +0.000 F 
ATOM     15  F   UNL     1      46.794   4.269   7.689  0.00  0.00    +0.000 F 
ENDBRANCH   8  10
ENDBRANCH   6   8
ENDBRANCH   1   2
BRANCH   1  16
ATOM     16  C   UNL     1      47.393   6.069  12.974  0.00  0.00    +0.000 C 
BRANCH  16  21
ATOM     17  C   UNL     1      48.261   4.451  17.745  0.00  0.00    +0.000 A 
ATOM     18  C   UNL     1      48.678   5.590  17.072  0.00  0.00    +0.000 A 
ATOM     19  C   UNL     1      48.282   5.774  15.746  0.00  0.00    +0.000 A 
ATOM     20  C   UNL     1      47.490   4.818  15.114  0.00  0.00    +0.000 A 
ATOM     21  N   UNL     1      47.049   4.947  13.823  0.00  0.00    +0.000 N 
ATOM     22  N   UNL     1      47.090   3.703  15.757  0.00  0.00    +0.000 NA
ATOM     23  C   UNL     1      47.483   3.538  17.050  0.00  0.00    +0.000 A 
ATOM     24  H   UNL     1      46.606   4.116  13.453  0.00  0.00    +0.000 HD
BRANCH  17  26
ATOM     25  N   UNL     1      48.273   2.937  19.645  0.00  0.00    +0.000 N 
ATOM     26  C   UNL     1      48.647   4.160  19.140  0.00  0.00    +0.000 C 
ATOM     27  O   UNL     1      49.288   4.948  19.804  0.00  0.00    +0.000 OA
ATOM     28  H   UNL     1      48.620   2.713  20.568  0.00  0.00    +0.000 HD
ATOM     29  H   UNL     1      47.978   2.173  19.056  0.00  0.00    +0.000 HD
ENDBRANCH  17  26
ENDBRANCH  16  21
ENDBRANCH   1  16
TORSDOF 6
ENDMDL
