MODEL 1
REMARK VINA RESULT:    -9.131      0.000      0.000
REMARK INTER + INTRA:         -11.765
REMARK INTER:                 -11.800
REMARK INTRA:                   0.035
REMARK UNBOUND:                 0.035
REMARK  Name = 
REMARK  5 active torsions:
REMARK  status: ('A' for Active; 'I' for Inactive)
REMARK    1  A    between atoms: C_2  and  C_4
REMARK    2  A    between atoms: C_7  and  C_8
REMARK    3  A    between atoms: C_12  and  C_13
REMARK    4  A    between atoms: C_13  and  N_14
REMARK    5  A    between atoms: C_18  and  C_19
REMARK                            x       y       z     vdW  Elec       q    Type
REMARK                         _______ _______ _______ _____ _____    ______ ____
ROOT
ATOM      1  C   UNL     1      47.248   6.019  13.158  0.00  0.00    +0.000 A 
ATOM      2  C   UNL     1      47.109   5.119  14.213  0.00  0.00    +0.000 A 
ATOM      3  N   UNL     1      46.087   4.239  14.315  0.00  0.00    +0.000 NA
ATOM      4  C   UNL     1      45.181   4.307  13.314  0.00  0.00    +0.000 A 
ATOM      5  C   UNL     1      45.244   5.225  12.263  0.00  0.00    +0.000 A 
ATOM      6  N   UNL     1      46.296   6.090  12.187  0.00  0.00    +0.000 NA
ENDROOT
BRANCH   1  10
ATOM      7  C   UNL     1      50.699   8.557  12.677  0.00  0.00    +0.000 A 
ATOM      8  C   UNL     1      50.406   8.002  13.924  0.00  0.00    +0.000 A 
ATOM      9  C   UNL     1      49.283   7.183  14.077  0.00  0.00    +0.000 A 
ATOM     10  C   UNL     1      48.416   6.907  13.001  0.00  0.00    +0.000 A 
ATOM     11  C   UNL     1      48.724   7.496  11.758  0.00  0.00    +0.000 A 
ATOM     12  C   UNL     1      49.845   8.319  11.598  0.00  0.00    +0.000 A 
BRANCH   7  14
ATOM     13  N   UNL     1      52.533   9.301  11.265  0.00  0.00    +0.000 N 
ATOM     14  C   UNL     1      51.898   9.409  12.472  0.00  0.00    +0.000 C 
ATOM     15  O   UNL     1      52.280  10.202  13.322  0.00  0.00    +0.000 OA
ATOM     16  H   UNL     1      53.272   9.971  11.087  0.00  0.00    +0.000 HD
ATOM     17  H   UNL     1      52.092   8.873  10.464  0.00  0.00    +0.000 HD
ENDBRANCH   7  14
ENDBRANCH   1  10
BRANCH   5  18
ATOM     18  C   UNL     1      44.130   5.295  11.215  0.00  0.00    +0.000 C 
ATOM     19  C   UNL     1      42.800   5.891  11.638  0.00  0.00    +0.000 C 
ATOM     20  C   UNL     1      42.902   4.413  11.458  0.00  0.00    +0.000 C 
BRANCH  18  21
ATOM     21  N   UNL     1      44.584   5.356   9.819  0.00  0.00    +0.000 N 
ATOM     22  C   UNL     1      45.257   4.353   9.121  0.00  0.00    +0.000 A 
ATOM     23  C   UNL     1      45.220   3.005   9.441  0.00  0.00    +0.000 A 
ATOM     24  C   UNL     1      45.902   2.087   8.638  0.00  0.00    +0.000 A 
ATOM     25  C   UNL     1      46.596   2.568   7.542  0.00  0.00    +0.000 A 
ATOM     26  N   UNL     1      46.628   3.884   7.237  0.00  0.00    +0.000 NA
ATOM     27  N   UNL     1      45.949   4.770   8.034  0.00  0.00    +0.000 NA
ATOM     28  H   UNL     1      44.849   6.252   9.423  0.00  0.00    +0.000 HD
BRANCH  25  29
ATOM     29  C   UNL     1      47.350   1.661   6.632  0.00  0.00    +0.000 C 
ATOM     30  N   UNL     1      48.320   2.254   5.866  0.00  0.00    +0.000 N 
ATOM     31  O   UNL     1      47.125   0.459   6.570  0.00  0.00    +0.000 OA
ATOM     32  H   UNL     1      48.498   3.251   5.926  0.00  0.00    +0.000 HD
ATOM     33  H   UNL     1      48.870   1.683   5.233  0.00  0.00    +0.000 HD
ENDBRANCH  25  29
ENDBRANCH  18  21
ENDBRANCH   5  18
TORSDOF 5
ENDMDL
MODEL 2
REMARK VINA RESULT:    -8.877      3.039      7.429
REMARK INTER + INTRA:         -11.436
REMARK INTER:                 -11.336
REMARK INTRA:                  -0.100
REMARK UNBOUND:                 0.035
REMARK  Name = 
REMARK  5 active torsions:
REMARK  status: ('A' for Active; 'I' for Inactive)
REMARK    1  A    between atoms: C_2  and  C_4
REMARK    2  A    between atoms: C_7  and  C_8
REMARK    3  A    between atoms: C_12  and  C_13
REMARK    4  A    between atoms: C_13  and  N_14
REMARK    5  A    between atoms: C_18  and  C_19
REMARK                            x       y       z     vdW  Elec       q    Type
REMARK                         _______ _______ _______ _____ _____    ______ ____
ROOT
ATOM      1  C   UNL     1      44.736   4.940  10.282  0.00  0.00    +0.000 A 
ATOM      2  C   UNL     1      43.392   4.853  10.641  0.00  0.00    +0.000 A 
ATOM      3  N   UNL     1      42.785   5.720  11.482  0.00  0.00    +0.000 NA
ATOM      4  C   UNL     1      43.593   6.686  11.976  0.00  0.00    +0.000 A 
ATOM      5  C   UNL     1      44.956   6.787  11.692  0.00  0.00    +0.000 A 
ATOM      6  N   UNL     1      45.532   5.899  10.830  0.00  0.00    +0.000 NA
ENDROOT
BRANCH   1  10
ATOM      7  C   UNL     1      46.635   2.338   7.417  0.00  0.00    +0.000 A 
ATOM      8  C   UNL     1      46.756   3.724   7.294  0.00  0.00    +0.000 A 
ATOM      9  C   UNL     1      46.135   4.564   8.223  0.00  0.00    +0.000 A 
ATOM     10  C   UNL     1      45.367   4.051   9.287  0.00  0.00    +0.000 A 
ATOM     11  C   UNL     1      45.246   2.650   9.377  0.00  0.00    +0.000 A 
ATOM     12  C   UNL     1      45.863   1.803   8.450  0.00  0.00    +0.000 A 
BRANCH   7  14
ATOM     13  N   UNL     1      48.251   1.960   5.640  0.00  0.00    +0.000 N 
ATOM     14  C   UNL     1      47.304   1.416   6.465  0.00  0.00    +0.000 C 
ATOM     15  O   UNL     1      47.055   0.218   6.442  0.00  0.00    +0.000 OA
ATOM     16  H   UNL     1      48.787   1.306   5.083  0.00  0.00    +0.000 HD
ATOM     17  H   UNL     1      48.665   2.863   5.822  0.00  0.00    +0.000 HD
ENDBRANCH   7  14
ENDBRANCH   1  10
BRANCH   5  18
ATOM     18  C   UNL     1      45.820   7.859  12.363  0.00  0.00    +0.000 C 
ATOM     19  C   UNL     1      45.129   9.118  12.853  0.00  0.00    +0.000 C 
ATOM     20  C   UNL     1      45.965   9.189  11.619  0.00  0.00    +0.000 C 
BRANCH  18  21
ATOM     21  N   UNL     1      47.050   7.366  12.999  0.00  0.00    +0.000 N 
ATOM     22  C   UNL     1      47.157   6.275  13.862  0.00  0.00    +0.000 A 
ATOM     23  C   UNL     1      46.260   5.219  13.918  0.00  0.00    +0.000 A 
ATOM     24  C   UNL     1      46.499   4.159  14.796  0.00  0.00    +0.000 A 
ATOM     25  C   UNL     1      47.635   4.207  15.584  0.00  0.00    +0.000 A 
ATOM     26  N   UNL     1      48.503   5.239  15.524  0.00  0.00    +0.000 NA
ATOM     27  N   UNL     1      48.256   6.269  14.654  0.00  0.00    +0.000 NA
ATOM     28  H   UNL     1      47.789   8.024  13.225  0.00  0.00    +0.000 HD
BRANCH  25  29
ATOM     29  C   UNL     1      47.967   3.119  16.546  0.00  0.00    +0.000 C 
ATOM     30  N   UNL     1      47.047   2.897  17.539  0.00  0.00    +0.000 N 
ATOM     31  O   UNL     1      48.994   2.459  16.461  0.00  0.00    +0.000 OA
ATOM     32  H   UNL     1      46.199   3.450  17.600  0.00  0.00    +0.000 HD
ATOM     33  H   UNL     1      47.219   2.164  18.218  0.00  0.00    +0.000 HD
ENDBRANCH  25  29
ENDBRANCH  18  21
ENDBRANCH   5  18
TORSDOF 5
ENDMDL
MODEL 3
REMARK VINA RESULT:    -8.793      2.822      4.082
REMARK INTER + INTRA:         -11.328
REMARK INTER:                 -11.436
REMARK INTRA:                   0.107
REMARK UNBOUND:                 0.035
REMARK  Name = 
REMARK  5 active torsions:
REMARK  status: ('A' for Active; 'I' for Inactive)
REMARK    1  A    between atoms: C_2  and  C_4
REMARK    2  A    between atoms: C_7  and  C_8
REMARK    3  A    between atoms: C_12  and  C_13
REMARK    4  A    between atoms: C_13  and  N_14
REMARK    5  A    between atoms: C_18  and  C_19
REMARK                            x       y       z     vdW  Elec       q    Type
REMARK                         _______ _______ _______ _____ _____    ______ ____
ROOT
ATOM      1  C   UNL     1      46.595   5.963  13.487  0.00  0.00    +0.000 A 
ATOM      2  C   UNL     1      46.946   7.252  13.091  0.00  0.00    +0.000 A 
ATOM      3  N   UNL     1      46.287   7.947  12.137  0.00  0.00    +0.000 NA
ATOM      4  C   UNL     1      45.255   7.285  11.569  0.00  0.00    +0.000 A 
ATOM      5  C   UNL     1      44.893   5.975  11.891  0.00  0.00    +0.000 A 
ATOM      6  N   UNL     1      45.576   5.309  12.866  0.00  0.00    +0.000 NA
ENDROOT
BRANCH   1  10
ATOM      7  C   UNL     1      48.466   3.887  16.769  0.00  0.00    +0.000 A 
ATOM      8  C   UNL     1      48.667   5.258  16.602  0.00  0.00    +0.000 A 
ATOM      9  C   UNL     1      48.062   5.927  15.533  0.00  0.00    +0.000 A 
ATOM     10  C   UNL     1      47.255   5.249  14.598  0.00  0.00    +0.000 A 
ATOM     11  C   UNL     1      47.084   3.862  14.779  0.00  0.00    +0.000 A 
ATOM     12  C   UNL     1      47.689   3.186  15.845  0.00  0.00    +0.000 A 
BRANCH   7  14
ATOM     13  N   UNL     1      48.409   3.211  19.105  0.00  0.00    +0.000 N 
ATOM     14  C   UNL     1      49.071   3.150  17.908  0.00  0.00    +0.000 C 
ATOM     15  O   UNL     1      50.089   2.485  17.779  0.00  0.00    +0.000 OA
ATOM     16  H   UNL     1      48.759   2.610  19.840  0.00  0.00    +0.000 HD
ATOM     17  H   UNL     1      47.448   3.514  19.170  0.00  0.00    +0.000 HD
ENDBRANCH   7  14
ENDBRANCH   1  10
BRANCH   5  18
ATOM     18  C   UNL     1      43.764   5.264  11.137  0.00  0.00    +0.000 C 
ATOM     19  C   UNL     1      42.361   5.369  11.706  0.00  0.00    +0.000 C 
ATOM     20  C   UNL     1      43.103   4.082  11.849  0.00  0.00    +0.000 C 
BRANCH  18  21
ATOM     21  N   UNL     1      43.993   5.075   9.698  0.00  0.00    +0.000 N 
ATOM     22  C   UNL     1      44.819   4.118   9.108  0.00  0.00    +0.000 A 
ATOM     23  C   UNL     1      45.202   2.927   9.706  0.00  0.00    +0.000 A 
ATOM     24  C   UNL     1      45.999   2.026   8.995  0.00  0.00    +0.000 A 
ATOM     25  C   UNL     1      46.378   2.363   7.709  0.00  0.00    +0.000 A 
ATOM     26  N   UNL     1      46.002   3.526   7.134  0.00  0.00    +0.000 NA
ATOM     27  N   UNL     1      45.216   4.397   7.843  0.00  0.00    +0.000 NA
ATOM     28  H   UNL     1      43.943   5.877   9.078  0.00  0.00    +0.000 HD
BRANCH  25  29
ATOM     29  C   UNL     1      47.226   1.462   6.880  0.00  0.00    +0.000 C 
ATOM     30  N   UNL     1      48.349   2.030   6.334  0.00  0.00    +0.000 N 
ATOM     31  O   UNL     1      46.947   0.284   6.695  0.00  0.00    +0.000 OA
ATOM     32  H   UNL     1      48.571   3.006   6.495  0.00  0.00    +0.000 HD
ATOM     33  H   UNL     1      48.967   1.460   5.767  0.00  0.00    +0.000 HD
ENDBRANCH  25  29
ENDBRANCH  18  21
ENDBRANCH   5  18
TORSDOF 5
ENDMDL
MODEL 4
REMARK VINA RESULT:    -8.294      2.791      4.093
REMARK INTER + INTRA:         -10.684
REMARK INTER:                  -9.991
REMARK INTRA:                  -0.693
REMARK UNBOUND:                 0.035
REMARK  Name = 
REMARK  5 active torsions:
REMARK  status: ('A' for Active; 'I' for Inactive)
REMARK    1  A    between atoms: C_2  and  C_4
REMARK    2  A    between atoms: C_7  and  C_8
REMARK    3  A    between atoms: C_12  and  C_13
REMARK    4  A    between atoms: C_13  and  N_14
REMARK    5  A    between atoms: C_18  and  C_19
REMARK                            x       y       z     vdW  Elec       q    Type
REMARK                         _______ _______ _______ _____ _____    ______ ____
ROOT
ATOM      1  C   UNL     1      46.857   6.183  13.830  0.00  0.00    +0.000 A 
ATOM      2  C   UNL     1      47.143   7.443  13.306  0.00  0.00    +0.000 A 
ATOM      3  N   UNL     1      46.433   8.017  12.309  0.00  0.00    +0.000 NA
ATOM      4  C   UNL     1      45.416   7.263  11.834  0.00  0.00    +0.000 A 
ATOM      5  C   UNL     1      45.119   5.976  12.287  0.00  0.00    +0.000 A 
ATOM      6  N   UNL     1      45.852   5.433  13.301  0.00  0.00    +0.000 NA
ENDROOT
BRANCH   1  10
ATOM      7  C   UNL     1      48.900   4.520  17.242  0.00  0.00    +0.000 A 
ATOM      8  C   UNL     1      49.284   5.762  16.732  0.00  0.00    +0.000 A 
ATOM      9  C   UNL     1      48.621   6.296  15.622  0.00  0.00    +0.000 A 
ATOM     10  C   UNL     1      47.573   5.605  14.984  0.00  0.00    +0.000 A 
ATOM     11  C   UNL     1      47.218   4.345  15.507  0.00  0.00    +0.000 A 
ATOM     12  C   UNL     1      47.879   3.804  16.616  0.00  0.00    +0.000 A 
BRANCH   7  14
ATOM     13  N   UNL     1      48.749   3.516  19.451  0.00  0.00    +0.000 N 
ATOM     14  C   UNL     1      49.564   3.936  18.435  0.00  0.00    +0.000 C 
ATOM     15  O   UNL     1      50.778   3.797  18.496  0.00  0.00    +0.000 OA
ATOM     16  H   UNL     1      49.198   3.009  20.204  0.00  0.00    +0.000 HD
ATOM     17  H   UNL     1      47.759   3.367  19.317  0.00  0.00    +0.000 HD
ENDBRANCH   7  14
ENDBRANCH   1  10
BRANCH   5  18
ATOM     18  C   UNL     1      44.004   5.152  11.634  0.00  0.00    +0.000 C 
ATOM     19  C   UNL     1      42.833   5.905  11.028  0.00  0.00    +0.000 C 
ATOM     20  C   UNL     1      42.636   5.184  12.320  0.00  0.00    +0.000 C 
BRANCH  18  21
ATOM     21  N   UNL     1      44.412   3.837  11.123  0.00  0.00    +0.000 N 
ATOM     22  C   UNL     1      45.031   3.577   9.900  0.00  0.00    +0.000 A 
ATOM     23  C   UNL     1      45.761   4.504   9.170  0.00  0.00    +0.000 A 
ATOM     24  C   UNL     1      46.372   4.111   7.976  0.00  0.00    +0.000 A 
ATOM     25  C   UNL     1      46.220   2.800   7.565  0.00  0.00    +0.000 A 
ATOM     26  N   UNL     1      45.506   1.904   8.280  0.00  0.00    +0.000 NA
ATOM     27  N   UNL     1      44.917   2.304   9.452  0.00  0.00    +0.000 NA
ATOM     28  H   UNL     1      43.882   3.014  11.392  0.00  0.00    +0.000 HD
BRANCH  25  29
ATOM     29  C   UNL     1      46.838   2.297   6.306  0.00  0.00    +0.000 C 
ATOM     30  N   UNL     1      47.080   3.241   5.340  0.00  0.00    +0.000 N 
ATOM     31  O   UNL     1      47.117   1.117   6.137  0.00  0.00    +0.000 OA
ATOM     32  H   UNL     1      46.846   4.215   5.491  0.00  0.00    +0.000 HD
ATOM     33  H   UNL     1      47.507   2.955   4.465  0.00  0.00    +0.000 HD
ENDBRANCH  25  29
ENDBRANCH  18  21
ENDBRANCH   5  18
TORSDOF 5
ENDMDL
MODEL 5
REMARK VINA RESULT:    -7.933      5.318      8.989
REMARK INTER + INTRA:         -10.216
REMARK INTER:                  -9.739
REMARK INTRA:                  -0.477
REMARK UNBOUND:                 0.035
REMARK  Name = 
REMARK  5 active torsions:
REMARK  status: ('A' for Active; 'I' for Inactive)
REMARK    1  A    between atoms: C_2  and  C_4
REMARK    2  A    between atoms: C_7  and  C_8
REMARK    3  A    between atoms: C_12  and  C_13
REMARK    4  A    between atoms: C_13  and  N_14
REMARK    5  A    between atoms: C_18  and  C_19
REMARK                            x       y       z     vdW  Elec       q    Type
REMARK                         _______ _______ _______ _____ _____    ______ ____
ROOT
ATOM      1  C   UNL     1      47.752   6.018  14.257  0.00  0.00    +0.000 A 
ATOM      2  C   UNL     1      48.408   7.236  14.083  0.00  0.00    +0.000 A 
ATOM      3  N   UNL     1      49.314   7.730  14.956  0.00  0.00    +0.000 NA
ATOM      4  C   UNL     1      49.531   6.954  16.042  0.00  0.00    +0.000 A 
ATOM      5  C   UNL     1      48.863   5.753  16.292  0.00  0.00    +0.000 A 
ATOM      6  N   UNL     1      47.962   5.282  15.383  0.00  0.00    +0.000 NA
ENDROOT
BRANCH   1  10
ATOM      7  C   UNL     1      45.033   4.353  11.356  0.00  0.00    +0.000 A 
ATOM      8  C   UNL     1      45.442   3.591  12.452  0.00  0.00    +0.000 A 
ATOM      9  C   UNL     1      46.328   4.133  13.388  0.00  0.00    +0.000 A 
ATOM     10  C   UNL     1      46.840   5.439  13.252  0.00  0.00    +0.000 A 
ATOM     11  C   UNL     1      46.426   6.180  12.127  0.00  0.00    +0.000 A 
ATOM     12  C   UNL     1      45.541   5.642  11.185  0.00  0.00    +0.000 A 
BRANCH   7  14
ATOM     13  N   UNL     1      44.018   4.459   9.149  0.00  0.00    +0.000 N 
ATOM     14  C   UNL     1      44.073   3.819  10.357  0.00  0.00    +0.000 C 
ATOM     15  O   UNL     1      43.391   2.829  10.583  0.00  0.00    +0.000 OA
ATOM     16  H   UNL     1      43.454   4.017   8.434  0.00  0.00    +0.000 HD
ATOM     17  H   UNL     1      44.745   5.089   8.843  0.00  0.00    +0.000 HD
ENDBRANCH   7  14
ENDBRANCH   1  10
BRANCH   5  18
ATOM     18  C   UNL     1      49.103   4.978  17.592  0.00  0.00    +0.000 C 
ATOM     19  C   UNL     1      48.026   4.009  18.044  0.00  0.00    +0.000 C 
ATOM     20  C   UNL     1      48.178   5.306  18.767  0.00  0.00    +0.000 C 
BRANCH  18  21
ATOM     21  N   UNL     1      50.514   4.774  17.949  0.00  0.00    +0.000 N 
ATOM     22  C   UNL     1      51.204   3.562  17.939  0.00  0.00    +0.000 A 
ATOM     23  C   UNL     1      50.846   2.453  17.187  0.00  0.00    +0.000 A 
ATOM     24  C   UNL     1      51.645   1.307  17.227  0.00  0.00    +0.000 A 
ATOM     25  C   UNL     1      52.773   1.326  18.026  0.00  0.00    +0.000 A 
ATOM     26  N   UNL     1      53.115   2.409  18.757  0.00  0.00    +0.000 NA
ATOM     27  N   UNL     1      52.323   3.527  18.702  0.00  0.00    +0.000 NA
ATOM     28  H   UNL     1      50.942   5.378  18.643  0.00  0.00    +0.000 HD
BRANCH  25  29
ATOM     29  C   UNL     1      53.681   0.149  18.128  0.00  0.00    +0.000 C 
ATOM     30  N   UNL     1      53.911  -0.532  16.959  0.00  0.00    +0.000 N 
ATOM     31  O   UNL     1      54.195  -0.195  19.184  0.00  0.00    +0.000 OA
ATOM     32  H   UNL     1      53.480  -0.238  16.090  0.00  0.00    +0.000 HD
ATOM     33  H   UNL     1      54.527  -1.337  16.969  0.00  0.00    +0.000 HD
ENDBRANCH  25  29
ENDBRANCH  18  21
ENDBRANCH   5  18
TORSDOF 5
ENDMDL
MODEL 6
REMARK VINA RESULT:    -7.855      4.654      6.908
REMARK INTER + INTRA:         -10.116
REMARK INTER:                  -9.479
REMARK INTRA:                  -0.637
REMARK UNBOUND:                 0.035
REMARK  Name = 
REMARK  5 active torsions:
REMARK  status: ('A' for Active; 'I' for Inactive)
REMARK    1  A    between atoms: C_2  and  C_4
REMARK    2  A    between atoms: C_7  and  C_8
REMARK    3  A    between atoms: C_12  and  C_13
REMARK    4  A    between atoms: C_13  and  N_14
REMARK    5  A    between atoms: C_18  and  C_19
REMARK                            x       y       z     vdW  Elec       q    Type
REMARK                         _______ _______ _______ _____ _____    ______ ____
ROOT
ATOM      1  C   UNL     1      49.944   5.766  17.140  0.00  0.00    +0.000 A 
ATOM      2  C   UNL     1      49.611   6.630  18.183  0.00  0.00    +0.000 A 
ATOM      3  N   UNL     1      48.913   7.775  18.011  0.00  0.00    +0.000 NA
ATOM      4  C   UNL     1      48.570   8.039  16.731  0.00  0.00    +0.000 A 
ATOM      5  C   UNL     1      48.922   7.237  15.644  0.00  0.00    +0.000 A 
ATOM      6  N   UNL     1      49.618   6.083  15.857  0.00  0.00    +0.000 NA
ENDROOT
BRANCH   1  10
ATOM      7  C   UNL     1      51.936   1.981  17.679  0.00  0.00    +0.000 A 
ATOM      8  C   UNL     1      50.591   2.018  17.307  0.00  0.00    +0.000 A 
ATOM      9  C   UNL     1      49.947   3.248  17.138  0.00  0.00    +0.000 A 
ATOM     10  C   UNL     1      50.618   4.469  17.347  0.00  0.00    +0.000 A 
ATOM     11  C   UNL     1      51.969   4.403  17.741  0.00  0.00    +0.000 A 
ATOM     12  C   UNL     1      52.620   3.176  17.914  0.00  0.00    +0.000 A 
BRANCH   7  14
ATOM     13  N   UNL     1      51.988  -0.313  18.481  0.00  0.00    +0.000 N 
ATOM     14  C   UNL     1      52.658   0.694  17.841  0.00  0.00    +0.000 C 
ATOM     15  O   UNL     1      53.782   0.522  17.389  0.00  0.00    +0.000 OA
ATOM     16  H   UNL     1      52.438  -1.221  18.479  0.00  0.00    +0.000 HD
ATOM     17  H   UNL     1      50.988  -0.291  18.614  0.00  0.00    +0.000 HD
ENDBRANCH   7  14
ENDBRANCH   1  10
BRANCH   5  18
ATOM     18  C   UNL     1      48.569   7.654  14.213  0.00  0.00    +0.000 C 
ATOM     19  C   UNL     1      49.624   7.458  13.140  0.00  0.00    +0.000 C 
ATOM     20  C   UNL     1      49.344   8.839  13.632  0.00  0.00    +0.000 C 
BRANCH  18  21
ATOM     21  N   UNL     1      47.136   7.629  13.887  0.00  0.00    +0.000 N 
ATOM     22  C   UNL     1      46.414   6.537  13.404  0.00  0.00    +0.000 A 
ATOM     23  C   UNL     1      46.782   5.210  13.568  0.00  0.00    +0.000 A 
ATOM     24  C   UNL     1      45.951   4.200  13.076  0.00  0.00    +0.000 A 
ATOM     25  C   UNL     1      44.782   4.570  12.436  0.00  0.00    +0.000 A 
ATOM     26  N   UNL     1      44.431   5.865  12.280  0.00  0.00    +0.000 NA
ATOM     27  N   UNL     1      45.255   6.843  12.773  0.00  0.00    +0.000 NA
ATOM     28  H   UNL     1      46.688   8.477  13.557  0.00  0.00    +0.000 HD
BRANCH  25  29
ATOM     29  C   UNL     1      43.839   3.559  11.882  0.00  0.00    +0.000 C 
ATOM     30  N   UNL     1      43.852   2.331  12.492  0.00  0.00    +0.000 N 
ATOM     31  O   UNL     1      43.093   3.803  10.942  0.00  0.00    +0.000 OA
ATOM     32  H   UNL     1      44.473   2.140  13.270  0.00  0.00    +0.000 HD
ATOM     33  H   UNL     1      43.224   1.607  12.160  0.00  0.00    +0.000 HD
ENDBRANCH  25  29
ENDBRANCH  18  21
ENDBRANCH   5  18
TORSDOF 5
ENDMDL
MODEL 7
REMARK VINA RESULT:    -7.504      2.154      2.816
REMARK INTER + INTRA:          -9.662
REMARK INTER:                  -9.129
REMARK INTRA:                  -0.533
REMARK UNBOUND:                 0.035
REMARK  Name = 
REMARK  5 active torsions:
REMARK  status: ('A' for Active; 'I' for Inactive)
REMARK    1  A    between atoms: C_2  and  C_4
REMARK    2  A    between atoms: C_7  and  C_8
REMARK    3  A    between atoms: C_12  and  C_13
REMARK    4  A    between atoms: C_13  and  N_14
REMARK    5  A    between atoms: C_18  and  C_19
REMARK                            x       y       z     vdW  Elec       q    Type
REMARK                         _______ _______ _______ _____ _____    ______ ____
ROOT
ATOM      1  C   UNL     1      46.724   7.468  12.813  0.00  0.00    +0.000 A 
ATOM      2  C   UNL     1      46.340   8.629  12.144  0.00  0.00    +0.000 A 
ATOM      3  N   UNL     1      45.197   8.739  11.432  0.00  0.00    +0.000 NA
ATOM      4  C   UNL     1      44.444   7.617  11.396  0.00  0.00    +0.000 A 
ATOM      5  C   UNL     1      44.806   6.412  12.004  0.00  0.00    +0.000 A 
ATOM      6  N   UNL     1      45.963   6.342  12.723  0.00  0.00    +0.000 NA
ENDROOT
BRANCH   1  10
ATOM      7  C   UNL     1      50.193   7.269  15.364  0.00  0.00    +0.000 A 
ATOM      8  C   UNL     1      50.131   8.214  14.338  0.00  0.00    +0.000 A 
ATOM      9  C   UNL     1      49.005   8.272  13.510  0.00  0.00    +0.000 A 
ATOM     10  C   UNL     1      47.922   7.386  13.671  0.00  0.00    +0.000 A 
ATOM     11  C   UNL     1      48.019   6.430  14.701  0.00  0.00    +0.000 A 
ATOM     12  C   UNL     1      49.143   6.364  15.533  0.00  0.00    +0.000 A 
BRANCH   7  14
ATOM     13  N   UNL     1      52.435   6.465  15.853  0.00  0.00    +0.000 N 
ATOM     14  C   UNL     1      51.360   7.198  16.279  0.00  0.00    +0.000 C 
ATOM     15  O   UNL     1      51.383   7.796  17.346  0.00  0.00    +0.000 OA
ATOM     16  H   UNL     1      53.269   6.522  16.423  0.00  0.00    +0.000 HD
ATOM     17  H   UNL     1      52.551   6.198  14.886  0.00  0.00    +0.000 HD
ENDBRANCH   7  14
ENDBRANCH   1  10
BRANCH   5  18
ATOM     18  C   UNL     1      43.939   5.160  11.842  0.00  0.00    +0.000 C 
ATOM     19  C   UNL     1      42.453   5.357  11.603  0.00  0.00    +0.000 C 
ATOM     20  C   UNL     1      42.912   4.890  12.944  0.00  0.00    +0.000 C 
BRANCH  18  21
ATOM     21  N   UNL     1      44.642   3.970  11.342  0.00  0.00    +0.000 N 
ATOM     22  C   UNL     1      45.217   3.815  10.080  0.00  0.00    +0.000 A 
ATOM     23  C   UNL     1      45.623   4.859   9.262  0.00  0.00    +0.000 A 
ATOM     24  C   UNL     1      46.228   4.576   8.035  0.00  0.00    +0.000 A 
ATOM     25  C   UNL     1      46.397   3.250   7.681  0.00  0.00    +0.000 A 
ATOM     26  N   UNL     1      45.997   2.239   8.483  0.00  0.00    +0.000 NA
ATOM     27  N   UNL     1      45.410   2.534   9.686  0.00  0.00    +0.000 NA
ATOM     28  H   UNL     1      44.368   3.054  11.681  0.00  0.00    +0.000 HD
BRANCH  25  29
ATOM     29  C   UNL     1      47.033   2.858   6.392  0.00  0.00    +0.000 C 
ATOM     30  N   UNL     1      48.352   2.491   6.462  0.00  0.00    +0.000 N 
ATOM     31  O   UNL     1      46.421   2.858   5.332  0.00  0.00    +0.000 OA
ATOM     32  H   UNL     1      48.849   2.494   7.346  0.00  0.00    +0.000 HD
ATOM     33  H   UNL     1      48.833   2.208   5.616  0.00  0.00    +0.000 HD
ENDBRANCH  25  29
ENDBRANCH  18  21
ENDBRANCH   5  18
TORSDOF 5
ENDMDL
MODEL 8
REMARK VINA RESULT:    -7.210      3.903      8.979
REMARK INTER + INTRA:          -9.283
REMARK INTER:                  -8.713
REMARK INTRA:                  -0.569
REMARK UNBOUND:                 0.035
REMARK  Name = 
REMARK  5 active torsions:
REMARK  status: ('A' for Active; 'I' for Inactive)
REMARK    1  A    between atoms: C_2  and  C_4
REMARK    2  A    between atoms: C_7  and  C_8
REMARK    3  A    between atoms: C_12  and  C_13
REMARK    4  A    between atoms: C_13  and  N_14
REMARK    5  A    between atoms: C_18  and  C_19
REMARK                            x       y       z     vdW  Elec       q    Type
REMARK                         _______ _______ _______ _____ _____    ______ ____
ROOT
ATOM      1  C   UNL     1      47.140   7.518  12.613  0.00  0.00    +0.000 A 
ATOM      2  C   UNL     1      46.743   8.825  12.338  0.00  0.00    +0.000 A 
ATOM      3  N   UNL     1      47.473   9.914  12.667  0.00  0.00    +0.000 NA
ATOM      4  C   UNL     1      48.630   9.643  13.312  0.00  0.00    +0.000 A 
ATOM      5  C   UNL     1      49.050   8.357  13.659  0.00  0.00    +0.000 A 
ATOM      6  N   UNL     1      48.291   7.281  13.301  0.00  0.00    +0.000 NA
ENDROOT
BRANCH   1  10
ATOM      7  C   UNL     1      44.882   4.081  11.320  0.00  0.00    +0.000 A 
ATOM      8  C   UNL     1      45.485   4.090  12.579  0.00  0.00    +0.000 A 
ATOM      9  C   UNL     1      46.220   5.205  12.993  0.00  0.00    +0.000 A 
ATOM     10  C   UNL     1      46.387   6.331  12.163  0.00  0.00    +0.000 A 
ATOM     11  C   UNL     1      45.784   6.288  10.890  0.00  0.00    +0.000 A 
ATOM     12  C   UNL     1      45.049   5.174  10.468  0.00  0.00    +0.000 A 
BRANCH   7  14
ATOM     13  N   UNL     1      44.599   2.162   9.854  0.00  0.00    +0.000 N 
ATOM     14  C   UNL     1      44.071   2.925  10.860  0.00  0.00    +0.000 C 
ATOM     15  O   UNL     1      43.001   2.639  11.379  0.00  0.00    +0.000 OA
ATOM     16  H   UNL     1      44.101   1.309   9.630  0.00  0.00    +0.000 HD
ATOM     17  H   UNL     1      45.576   2.208   9.603  0.00  0.00    +0.000 HD
ENDBRANCH   7  14
ENDBRANCH   1  10
BRANCH   5  18
ATOM     18  C   UNL     1      50.333   8.142  14.468  0.00  0.00    +0.000 C 
ATOM     19  C   UNL     1      51.028   9.369  15.028  0.00  0.00    +0.000 C 
ATOM     20  C   UNL     1      51.629   8.674  13.853  0.00  0.00    +0.000 C 
BRANCH  18  21
ATOM     21  N   UNL     1      50.448   6.833  15.125  0.00  0.00    +0.000 N 
ATOM     22  C   UNL     1      49.896   6.470  16.354  0.00  0.00    +0.000 A 
ATOM     23  C   UNL     1      48.803   7.088  16.944  0.00  0.00    +0.000 A 
ATOM     24  C   UNL     1      48.312   6.604  18.159  0.00  0.00    +0.000 A 
ATOM     25  C   UNL     1      48.945   5.517  18.733  0.00  0.00    +0.000 A 
ATOM     26  N   UNL     1      50.010   4.921  18.153  0.00  0.00    +0.000 NA
ATOM     27  N   UNL     1      50.476   5.405  16.957  0.00  0.00    +0.000 NA
ATOM     28  H   UNL     1      51.282   6.274  14.975  0.00  0.00    +0.000 HD
BRANCH  25  29
ATOM     29  C   UNL     1      48.488   4.937  20.026  0.00  0.00    +0.000 C 
ATOM     30  N   UNL     1      48.578   3.572  20.136  0.00  0.00    +0.000 N 
ATOM     31  O   UNL     1      48.060   5.628  20.941  0.00  0.00    +0.000 OA
ATOM     32  H   UNL     1      48.935   3.009  19.372  0.00  0.00    +0.000 HD
ATOM     33  H   UNL     1      48.288   3.125  20.998  0.00  0.00    +0.000 HD
ENDBRANCH  25  29
ENDBRANCH  18  21
ENDBRANCH   5  18
TORSDOF 5
ENDMDL
MODEL 9
REMARK VINA RESULT:    -7.109      4.213      6.158
REMARK INTER + INTRA:          -9.152
REMARK INTER:                  -8.543
REMARK INTRA:                  -0.609
REMARK UNBOUND:                 0.035
REMARK  Name = 
REMARK  5 active torsions:
REMARK  status: ('A' for Active; 'I' for Inactive)
REMARK    1  A    between atoms: C_2  and  C_4
REMARK    2  A    between atoms: C_7  and  C_8
REMARK    3  A    between atoms: C_12  and  C_13
REMARK    4  A    between atoms: C_13  and  N_14
REMARK    5  A    between atoms: C_18  and  C_19
REMARK                            x       y       z     vdW  Elec       q    Type
REMARK                         _______ _______ _______ _____ _____    ______ ____
ROOT
ATOM      1  C   UNL     1      49.756   7.025  16.109  0.00  0.00    +0.000 A 
ATOM      2  C   UNL     1      49.097   8.008  16.845  0.00  0.00    +0.000 A 
ATOM      3  N   UNL     1      48.272   8.927  16.296  0.00  0.00    +0.000 NA
ATOM      4  C   UNL     1      48.141   8.837  14.953  0.00  0.00    +0.000 A 
ATOM      5  C   UNL     1      48.818   7.907  14.162  0.00  0.00    +0.000 A 
ATOM      6  N   UNL     1      49.635   6.988  14.753  0.00  0.00    +0.000 NA
ENDROOT
BRANCH   1  10
ATOM      7  C   UNL     1      52.139   3.955  17.974  0.00  0.00    +0.000 A 
ATOM      8  C   UNL     1      52.751   5.094  17.446  0.00  0.00    +0.000 A 
ATOM      9  C   UNL     1      51.975   6.085  16.838  0.00  0.00    +0.000 A 
ATOM     10  C   UNL     1      50.576   5.964  16.726  0.00  0.00    +0.000 A 
ATOM     11  C   UNL     1      49.985   4.797  17.250  0.00  0.00    +0.000 A 
ATOM     12  C   UNL     1      50.757   3.799  17.858  0.00  0.00    +0.000 A 
BRANCH   7  14
ATOM     13  N   UNL     1      53.820   3.305  19.606  0.00  0.00    +0.000 N 
ATOM     14  C   UNL     1      52.930   2.896  18.651  0.00  0.00    +0.000 C 
ATOM     15  O   UNL     1      52.768   1.710  18.400  0.00  0.00    +0.000 OA
ATOM     16  H   UNL     1      54.264   2.573  20.147  0.00  0.00    +0.000 HD
ATOM     17  H   UNL     1      53.777   4.226  20.019  0.00  0.00    +0.000 HD
ENDBRANCH   7  14
ENDBRANCH   1  10
BRANCH   5  18
ATOM     18  C   UNL     1      48.683   7.928  12.636  0.00  0.00    +0.000 C 
ATOM     19  C   UNL     1      49.885   7.499  11.815  0.00  0.00    +0.000 C 
ATOM     20  C   UNL     1      49.541   8.949  11.886  0.00  0.00    +0.000 C 
BRANCH  18  21
ATOM     21  N   UNL     1      47.314   7.770  12.126  0.00  0.00    +0.000 N 
ATOM     22  C   UNL     1      46.585   6.583  12.059  0.00  0.00    +0.000 A 
ATOM     23  C   UNL     1      46.820   5.465  12.845  0.00  0.00    +0.000 A 
ATOM     24  C   UNL     1      45.992   4.347  12.716  0.00  0.00    +0.000 A 
ATOM     25  C   UNL     1      44.959   4.401  11.798  0.00  0.00    +0.000 A 
ATOM     26  N   UNL     1      44.738   5.494  11.035  0.00  0.00    +0.000 NA
ATOM     27  N   UNL     1      45.557   6.584  11.177  0.00  0.00    +0.000 NA
ATOM     28  H   UNL     1      46.986   8.387  11.389  0.00  0.00    +0.000 HD
BRANCH  25  29
ATOM     29  C   UNL     1      44.028   3.256  11.597  0.00  0.00    +0.000 C 
ATOM     30  N   UNL     1      43.786   2.480  12.701  0.00  0.00    +0.000 N 
ATOM     31  O   UNL     1      43.506   3.017  10.515  0.00  0.00    +0.000 OA
ATOM     32  H   UNL     1      44.224   2.688  13.592  0.00  0.00    +0.000 HD
ATOM     33  H   UNL     1      43.154   1.691  12.623  0.00  0.00    +0.000 HD
ENDBRANCH  25  29
ENDBRANCH  18  21
ENDBRANCH   5  18
TORSDOF 5
ENDMDL
