MODEL 1
REMARK VINA RESULT:    -9.412      0.000      0.000
REMARK INTER + INTRA:         -12.965
REMARK INTER:                 -12.164
REMARK INTRA:                  -0.802
REMARK UNBOUND:                -0.802
REMARK  Name = 
REMARK  5 active torsions:
REMARK  status: ('A' for Active; 'I' for Inactive)
REMARK    1  A    between atoms: C_2  and  C_4
REMARK    2  A    between atoms: N_8  and  C_9
REMARK    3  A    between atoms: C_9  and  C_10
REMARK    4  A    between atoms: C_10  and  C_13
REMARK    5  A    between atoms: C_17  and  N_18
REMARK                            x       y       z     vdW  Elec       q    Type
REMARK                         _______ _______ _______ _____ _____    ______ ____
ROOT
ATOM      1  C   UNL     1      43.129   5.627  12.053  0.00  0.00    +0.000 C 
ATOM      2  F   UNL     1      42.277   6.517  11.459  0.00  0.00    +0.000 F 
ATOM      3  F   UNL     1      42.515   5.264  13.218  0.00  0.00    +0.000 F 
ENDROOT
BRANCH   1   4
ATOM      4  C   UNL     1      44.501   6.221  12.301  0.00  0.00    +0.000 A 
ATOM      5  C   UNL     1      44.874   7.423  11.690  0.00  0.00    +0.000 A 
ATOM      6  C   UNL     1      46.106   7.994  11.982  0.00  0.00    +0.000 A 
ATOM      7  C   UNL     1      46.965   7.376  12.895  0.00  0.00    +0.000 A 
ATOM      8  C   UNL     1      46.634   6.173  13.535  0.00  0.00    +0.000 A 
ATOM      9  C   UNL     1      45.393   5.607  13.200  0.00  0.00    +0.000 A 
BRANCH   8  10
ATOM     10  N   UNL     1      47.459   5.600  14.477  0.00  0.00    +0.000 N 
ATOM     11  C   UNL     1      47.307   4.215  14.957  0.00  0.00    +0.000 C 
ATOM     12  C   UNL     1      47.308   4.208  16.493  0.00  0.00    +0.000 C 
ATOM     13  O   UNL     1      48.498   4.822  17.019  0.00  0.00    +0.000 OA
ATOM     14  C   UNL     1      48.599   6.184  16.570  0.00  0.00    +0.000 C 
ATOM     15  C   UNL     1      48.636   6.284  15.034  0.00  0.00    +0.000 C 
ENDBRANCH   8  10
ENDBRANCH   1   4
BRANCH   1  16
ATOM     16  C   UNL     1      43.246   4.380  11.133  0.00  0.00    +0.000 C 
BRANCH  16  21
ATOM     17  C   UNL     1      46.496   2.496   7.670  0.00  0.00    +0.000 A 
ATOM     18  C   UNL     1      45.652   1.823   8.546  0.00  0.00    +0.000 A 
ATOM     19  C   UNL     1      44.717   2.550   9.288  0.00  0.00    +0.000 A 
ATOM     20  C   UNL     1      44.642   3.933   9.146  0.00  0.00    +0.000 A 
ATOM     21  N   UNL     1      43.685   4.705   9.770  0.00  0.00    +0.000 N 
ATOM     22  N   UNL     1      45.472   4.599   8.318  0.00  0.00    +0.000 NA
ATOM     23  C   UNL     1      46.382   3.876   7.608  0.00  0.00    +0.000 A 
ATOM     24  H   UNL     1      43.904   5.686   9.605  0.00  0.00    +0.000 HD
BRANCH  17  26
ATOM     25  N   UNL     1      48.569   2.551   6.415  0.00  0.00    +0.000 N 
ATOM     26  C   UNL     1      47.501   1.813   6.834  0.00  0.00    +0.000 C 
ATOM     27  O   UNL     1      47.402   0.627   6.553  0.00  0.00    +0.000 OA
ATOM     28  H   UNL     1      49.304   2.048   5.928  0.00  0.00    +0.000 HD
ATOM     29  H   UNL     1      48.821   3.437   6.838  0.00  0.00    +0.000 HD
ENDBRANCH  17  26
ENDBRANCH  16  21
ENDBRANCH   1  16
TORSDOF 5
ENDMDL
MODEL 2
REMARK VINA RESULT:    -9.202      2.009      2.934
REMARK INTER + INTRA:         -12.693
REMARK INTER:                 -11.802
REMARK INTRA:                  -0.890
REMARK UNBOUND:                -0.802
REMARK  Name = 
REMARK  5 active torsions:
REMARK  status: ('A' for Active; 'I' for Inactive)
REMARK    1  A    between atoms: C_2  and  C_4
REMARK    2  A    between atoms: N_8  and  C_9
REMARK    3  A    between atoms: C_9  and  C_10
REMARK    4  A    between atoms: C_10  and  C_13
REMARK    5  A    between atoms: C_17  and  N_18
REMARK                            x       y       z     vdW  Elec       q    Type
REMARK                         _______ _______ _______ _____ _____    ______ ____
ROOT
ATOM      1  C   UNL     1      43.459   5.634  12.200  0.00  0.00    +0.000 C 
ATOM      2  F   UNL     1      43.030   6.756  11.547  0.00  0.00    +0.000 F 
ATOM      3  F   UNL     1      42.602   5.480  13.253  0.00  0.00    +0.000 F 
ENDROOT
BRANCH   1   4
ATOM      4  C   UNL     1      44.899   5.749  12.659  0.00  0.00    +0.000 A 
ATOM      5  C   UNL     1      45.488   4.724  13.406  0.00  0.00    +0.000 A 
ATOM      6  C   UNL     1      46.829   4.808  13.759  0.00  0.00    +0.000 A 
ATOM      7  C   UNL     1      47.591   5.908  13.356  0.00  0.00    +0.000 A 
ATOM      8  C   UNL     1      47.046   6.958  12.603  0.00  0.00    +0.000 A 
ATOM      9  C   UNL     1      45.681   6.857  12.284  0.00  0.00    +0.000 A 
BRANCH   8  10
ATOM     10  N   UNL     1      47.815   8.011  12.159  0.00  0.00    +0.000 N 
ATOM     11  C   UNL     1      49.164   7.849  11.589  0.00  0.00    +0.000 C 
ATOM     12  C   UNL     1      50.129   8.819  12.288  0.00  0.00    +0.000 C 
ATOM     13  O   UNL     1      49.671  10.179  12.185  0.00  0.00    +0.000 OA
ATOM     14  C   UNL     1      48.372  10.317  12.785  0.00  0.00    +0.000 C 
ATOM     15  C   UNL     1      47.329   9.399  12.122  0.00  0.00    +0.000 C 
ENDBRANCH   8  10
ENDBRANCH   1   4
BRANCH   1  16
ATOM     16  C   UNL     1      43.301   4.423  11.239  0.00  0.00    +0.000 C 
BRANCH  16  21
ATOM     17  C   UNL     1      46.462   2.530   7.699  0.00  0.00    +0.000 A 
ATOM     18  C   UNL     1      45.662   1.859   8.618  0.00  0.00    +0.000 A 
ATOM     19  C   UNL     1      44.740   2.584   9.378  0.00  0.00    +0.000 A 
ATOM     20  C   UNL     1      44.635   3.962   9.212  0.00  0.00    +0.000 A 
ATOM     21  N   UNL     1      43.686   4.729   9.855  0.00  0.00    +0.000 N 
ATOM     22  N   UNL     1      45.422   4.626   8.342  0.00  0.00    +0.000 NA
ATOM     23  C   UNL     1      46.320   3.906   7.615  0.00  0.00    +0.000 A 
ATOM     24  H   UNL     1      43.880   5.710   9.664  0.00  0.00    +0.000 HD
BRANCH  17  26
ATOM     25  N   UNL     1      48.524   2.580   6.425  0.00  0.00    +0.000 N 
ATOM     26  C   UNL     1      47.450   1.849   6.841  0.00  0.00    +0.000 C 
ATOM     27  O   UNL     1      47.331   0.669   6.538  0.00  0.00    +0.000 OA
ATOM     28  H   UNL     1      49.247   2.075   5.922  0.00  0.00    +0.000 HD
ATOM     29  H   UNL     1      48.792   3.454   6.862  0.00  0.00    +0.000 HD
ENDBRANCH  17  26
ENDBRANCH  16  21
ENDBRANCH   1  16
TORSDOF 5
ENDMDL
MODEL 3
REMARK VINA RESULT:    -9.127      0.861      0.979
REMARK INTER + INTRA:         -12.597
REMARK INTER:                 -11.823
REMARK INTRA:                  -0.773
REMARK UNBOUND:                -0.802
REMARK  Name = 
REMARK  5 active torsions:
REMARK  status: ('A' for Active; 'I' for Inactive)
REMARK    1  A    between atoms: C_2  and  C_4
REMARK    2  A    between atoms: N_8  and  C_9
REMARK    3  A    between atoms: C_9  and  C_10
REMARK    4  A    between atoms: C_10  and  C_13
REMARK    5  A    between atoms: C_17  and  N_18
REMARK                            x       y       z     vdW  Elec       q    Type
REMARK                         _______ _______ _______ _____ _____    ______ ____
ROOT
ATOM      1  C   UNL     1      43.067   5.112  12.206  0.00  0.00    +0.000 C 
ATOM      2  F   UNL     1      41.909   5.743  11.842  0.00  0.00    +0.000 F 
ATOM      3  F   UNL     1      42.808   4.565  13.431  0.00  0.00    +0.000 F 
ENDROOT
BRANCH   1   4
ATOM      4  C   UNL     1      44.250   6.058  12.250  0.00  0.00    +0.000 A 
ATOM      5  C   UNL     1      44.156   7.336  11.689  0.00  0.00    +0.000 A 
ATOM      6  C   UNL     1      45.222   8.220  11.800  0.00  0.00    +0.000 A 
ATOM      7  C   UNL     1      46.381   7.837  12.483  0.00  0.00    +0.000 A 
ATOM      8  C   UNL     1      46.519   6.568  13.064  0.00  0.00    +0.000 A 
ATOM      9  C   UNL     1      45.435   5.688  12.914  0.00  0.00    +0.000 A 
BRANCH   8  10
ATOM     10  N   UNL     1      47.639   6.218  13.786  0.00  0.00    +0.000 N 
ATOM     11  C   UNL     1      47.656   5.136  14.786  0.00  0.00    +0.000 C 
ATOM     12  C   UNL     1      48.279   5.661  16.089  0.00  0.00    +0.000 C 
ATOM     13  O   UNL     1      49.596   6.194  15.863  0.00  0.00    +0.000 OA
ATOM     14  C   UNL     1      49.544   7.274  14.916  0.00  0.00    +0.000 C 
ATOM     15  C   UNL     1      48.959   6.829  13.564  0.00  0.00    +0.000 C 
ENDBRANCH   8  10
ENDBRANCH   1   4
BRANCH   1  16
ATOM     16  C   UNL     1      43.336   3.969  11.188  0.00  0.00    +0.000 C 
BRANCH  16  21
ATOM     17  C   UNL     1      46.623   2.708   7.485  0.00  0.00    +0.000 A 
ATOM     18  C   UNL     1      45.866   1.884   8.312  0.00  0.00    +0.000 A 
ATOM     19  C   UNL     1      44.897   2.455   9.142  0.00  0.00    +0.000 A 
ATOM     20  C   UNL     1      44.702   3.833   9.135  0.00  0.00    +0.000 A 
ATOM     21  N   UNL     1      43.703   4.458   9.853  0.00  0.00    +0.000 N 
ATOM     22  N   UNL     1      45.445   4.643   8.356  0.00  0.00    +0.000 NA
ATOM     23  C   UNL     1      46.391   4.072   7.559  0.00  0.00    +0.000 A 
ATOM     24  H   UNL     1      43.833   5.465   9.778  0.00  0.00    +0.000 HD
BRANCH  17  26
ATOM     25  N   UNL     1      47.892   2.918   5.431  0.00  0.00    +0.000 N 
ATOM     26  C   UNL     1      47.655   2.196   6.564  0.00  0.00    +0.000 C 
ATOM     27  O   UNL     1      48.295   1.185   6.817  0.00  0.00    +0.000 OA
ATOM     28  H   UNL     1      48.672   2.614   4.856  0.00  0.00    +0.000 HD
ATOM     29  H   UNL     1      47.585   3.877   5.320  0.00  0.00    +0.000 HD
ENDBRANCH  17  26
ENDBRANCH  16  21
ENDBRANCH   1  16
TORSDOF 5
ENDMDL
MODEL 4
REMARK VINA RESULT:    -9.103      1.807      2.721
REMARK INTER + INTRA:         -12.566
REMARK INTER:                 -11.621
REMARK INTRA:                  -0.944
REMARK UNBOUND:                -0.802
REMARK  Name = 
REMARK  5 active torsions:
REMARK  status: ('A' for Active; 'I' for Inactive)
REMARK    1  A    between atoms: C_2  and  C_4
REMARK    2  A    between atoms: N_8  and  C_9
REMARK    3  A    between atoms: C_9  and  C_10
REMARK    4  A    between atoms: C_10  and  C_13
REMARK    5  A    between atoms: C_17  and  N_18
REMARK                            x       y       z     vdW  Elec       q    Type
REMARK                         _______ _______ _______ _____ _____    ______ ____
ROOT
ATOM      1  C   UNL     1      43.497   5.585  12.125  0.00  0.00    +0.000 C 
ATOM      2  F   UNL     1      43.287   6.786  11.505  0.00  0.00    +0.000 F 
ATOM      3  F   UNL     1      42.524   5.498  13.080  0.00  0.00    +0.000 F 
ENDROOT
BRANCH   1   4
ATOM      4  C   UNL     1      44.885   5.480  12.724  0.00  0.00    +0.000 A 
ATOM      5  C   UNL     1      45.384   4.242  13.143  0.00  0.00    +0.000 A 
ATOM      6  C   UNL     1      46.684   4.146  13.623  0.00  0.00    +0.000 A 
ATOM      7  C   UNL     1      47.496   5.283  13.676  0.00  0.00    +0.000 A 
ATOM      8  C   UNL     1      47.041   6.545  13.264  0.00  0.00    +0.000 A 
ATOM      9  C   UNL     1      45.715   6.614  12.807  0.00  0.00    +0.000 A 
BRANCH   8  10
ATOM     10  N   UNL     1      47.864   7.649  13.263  0.00  0.00    +0.000 N 
ATOM     11  C   UNL     1      47.495   8.937  12.651  0.00  0.00    +0.000 C 
ATOM     12  C   UNL     1      48.633   9.405  11.730  0.00  0.00    +0.000 C 
ATOM     13  O   UNL     1      49.880   9.494  12.440  0.00  0.00    +0.000 OA
ATOM     14  C   UNL     1      50.237   8.215  12.990  0.00  0.00    +0.000 C 
ATOM     15  C   UNL     1      49.162   7.682  13.955  0.00  0.00    +0.000 C 
ENDBRANCH   8  10
ENDBRANCH   1   4
BRANCH   1  16
ATOM     16  C   UNL     1      43.281   4.456  11.079  0.00  0.00    +0.000 C 
BRANCH  16  21
ATOM     17  C   UNL     1      46.626   2.594   7.694  0.00  0.00    +0.000 A 
ATOM     18  C   UNL     1      45.738   1.916   8.523  0.00  0.00    +0.000 A 
ATOM     19  C   UNL     1      44.789   2.643   9.247  0.00  0.00    +0.000 A 
ATOM     20  C   UNL     1      44.743   4.029   9.134  0.00  0.00    +0.000 A 
ATOM     21  N   UNL     1      43.777   4.805   9.741  0.00  0.00    +0.000 N 
ATOM     22  N   UNL     1      45.614   4.699   8.354  0.00  0.00    +0.000 NA
ATOM     23  C   UNL     1      46.538   3.977   7.661  0.00  0.00    +0.000 A 
ATOM     24  H   UNL     1      44.018   5.785   9.607  0.00  0.00    +0.000 HD
BRANCH  17  26
ATOM     25  N   UNL     1      48.553   2.700   6.227  0.00  0.00    +0.000 N 
ATOM     26  C   UNL     1      47.649   1.912   6.880  0.00  0.00    +0.000 C 
ATOM     27  O   UNL     1      47.710   0.692   6.816  0.00  0.00    +0.000 OA
ATOM     28  H   UNL     1      49.312   2.220   5.754  0.00  0.00    +0.000 HD
ATOM     29  H   UNL     1      48.701   3.674   6.464  0.00  0.00    +0.000 HD
ENDBRANCH  17  26
ENDBRANCH  16  21
ENDBRANCH   1  16
TORSDOF 5
ENDMDL
MODEL 5
REMARK VINA RESULT:    -8.265      2.994      4.336
REMARK INTER + INTRA:         -11.483
REMARK INTER:                 -11.027
REMARK INTRA:                  -0.457
REMARK UNBOUND:                -0.802
REMARK  Name = 
REMARK  5 active torsions:
REMARK  status: ('A' for Active; 'I' for Inactive)
REMARK    1  A    between atoms: C_2  and  C_4
REMARK    2  A    between atoms: N_8  and  C_9
REMARK    3  A    between atoms: C_9  and  C_10
REMARK    4  A    between atoms: C_10  and  C_13
REMARK    5  A    between atoms: C_17  and  N_18
REMARK                            x       y       z     vdW  Elec       q    Type
REMARK                         _______ _______ _______ _____ _____    ______ ____
ROOT
ATOM      1  C   UNL     1      44.420   4.436  12.306  0.00  0.00    +0.000 C 
ATOM      2  F   UNL     1      43.822   4.236  13.519  0.00  0.00    +0.000 F 
ATOM      3  F   UNL     1      45.248   3.363  12.130  0.00  0.00    +0.000 F 
ENDROOT
BRANCH   1   4
ATOM      4  C   UNL     1      45.178   5.747  12.246  0.00  0.00    +0.000 A 
ATOM      5  C   UNL     1      46.564   5.773  12.428  0.00  0.00    +0.000 A 
ATOM      6  C   UNL     1      47.258   6.970  12.299  0.00  0.00    +0.000 A 
ATOM      7  C   UNL     1      46.572   8.144  11.974  0.00  0.00    +0.000 A 
ATOM      8  C   UNL     1      45.183   8.167  11.778  0.00  0.00    +0.000 A 
ATOM      9  C   UNL     1      44.507   6.947  11.941  0.00  0.00    +0.000 A 
BRANCH   8  10
ATOM     10  N   UNL     1      44.521   9.314  11.401  0.00  0.00    +0.000 N 
ATOM     11  C   UNL     1      43.182   9.316  10.787  0.00  0.00    +0.000 C 
ATOM     12  C   UNL     1      43.208  10.181   9.517  0.00  0.00    +0.000 C 
ATOM     13  O   UNL     1      43.662  11.516   9.800  0.00  0.00    +0.000 OA
ATOM     14  C   UNL     1      44.987  11.487  10.358  0.00  0.00    +0.000 C 
ATOM     15  C   UNL     1      45.047  10.664  11.659  0.00  0.00    +0.000 C 
ENDBRANCH   8  10
ENDBRANCH   1   4
BRANCH   1  16
ATOM     16  C   UNL     1      43.317   4.407  11.211  0.00  0.00    +0.000 C 
BRANCH  16  21
ATOM     17  C   UNL     1      46.447   2.505   7.649  0.00  0.00    +0.000 A 
ATOM     18  C   UNL     1      45.528   1.846   8.459  0.00  0.00    +0.000 A 
ATOM     19  C   UNL     1      44.650   2.598   9.245  0.00  0.00    +0.000 A 
ATOM     20  C   UNL     1      44.705   3.988   9.211  0.00  0.00    +0.000 A 
ATOM     21  N   UNL     1      43.810   4.795   9.883  0.00  0.00    +0.000 N 
ATOM     22  N   UNL     1      45.607   4.637   8.448  0.00  0.00    +0.000 NA
ATOM     23  C   UNL     1      46.461   3.890   7.695  0.00  0.00    +0.000 A 
ATOM     24  H   UNL     1      44.121   5.762   9.799  0.00  0.00    +0.000 HD
BRANCH  17  26
ATOM     25  N   UNL     1      48.564   2.444   6.470  0.00  0.00    +0.000 N 
ATOM     26  C   UNL     1      47.401   1.798   6.773  0.00  0.00    +0.000 C 
ATOM     27  O   UNL     1      47.177   0.669   6.361  0.00  0.00    +0.000 OA
ATOM     28  H   UNL     1      49.256   1.910   5.952  0.00  0.00    +0.000 HD
ATOM     29  H   UNL     1      48.899   3.244   6.995  0.00  0.00    +0.000 HD
ENDBRANCH  17  26
ENDBRANCH  16  21
ENDBRANCH   1  16
TORSDOF 5
ENDMDL
MODEL 6
REMARK VINA RESULT:    -7.849      2.634      3.318
REMARK INTER + INTRA:         -10.945
REMARK INTER:                 -10.075
REMARK INTRA:                  -0.870
REMARK UNBOUND:                -0.802
REMARK  Name = 
REMARK  5 active torsions:
REMARK  status: ('A' for Active; 'I' for Inactive)
REMARK    1  A    between atoms: C_2  and  C_4
REMARK    2  A    between atoms: N_8  and  C_9
REMARK    3  A    between atoms: C_9  and  C_10
REMARK    4  A    between atoms: C_10  and  C_13
REMARK    5  A    between atoms: C_17  and  N_18
REMARK                            x       y       z     vdW  Elec       q    Type
REMARK                         _______ _______ _______ _____ _____    ______ ____
ROOT
ATOM      1  C   UNL     1      45.369   5.374  12.386  0.00  0.00    +0.000 C 
ATOM      2  F   UNL     1      44.944   5.090  13.655  0.00  0.00    +0.000 F 
ATOM      3  F   UNL     1      46.415   4.525  12.157  0.00  0.00    +0.000 F 
ENDROOT
BRANCH   1   4
ATOM      4  C   UNL     1      45.776   6.824  12.225  0.00  0.00    +0.000 A 
ATOM      5  C   UNL     1      44.837   7.847  12.396  0.00  0.00    +0.000 A 
ATOM      6  C   UNL     1      45.238   9.175  12.318  0.00  0.00    +0.000 A 
ATOM      7  C   UNL     1      46.581   9.488  12.083  0.00  0.00    +0.000 A 
ATOM      8  C   UNL     1      47.559   8.497  11.909  0.00  0.00    +0.000 A 
ATOM      9  C   UNL     1      47.118   7.165  11.968  0.00  0.00    +0.000 A 
BRANCH   8  10
ATOM     10  N   UNL     1      48.888   8.811  11.737  0.00  0.00    +0.000 N 
ATOM     11  C   UNL     1      49.972   7.814  11.781  0.00  0.00    +0.000 C 
ATOM     12  C   UNL     1      51.073   8.303  12.735  0.00  0.00    +0.000 C 
ATOM     13  O   UNL     1      51.562   9.600  12.349  0.00  0.00    +0.000 OA
ATOM     14  C   UNL     1      50.494  10.561  12.355  0.00  0.00    +0.000 C 
ATOM     15  C   UNL     1      49.355  10.165  11.398  0.00  0.00    +0.000 C 
ENDBRANCH   8  10
ENDBRANCH   1   4
BRANCH   1  16
ATOM     16  C   UNL     1      44.216   5.032  11.401  0.00  0.00    +0.000 C 
BRANCH  16  21
ATOM     17  C   UNL     1      46.540   2.727   7.478  0.00  0.00    +0.000 A 
ATOM     18  C   UNL     1      45.689   2.190   8.439  0.00  0.00    +0.000 A 
ATOM     19  C   UNL     1      45.028   3.050   9.321  0.00  0.00    +0.000 A 
ATOM     20  C   UNL     1      45.228   4.424   9.232  0.00  0.00    +0.000 A 
ATOM     21  N   UNL     1      44.540   5.339  10.002  0.00  0.00    +0.000 N 
ATOM     22  N   UNL     1      46.069   4.953   8.321  0.00  0.00    +0.000 NA
ATOM     23  C   UNL     1      46.712   4.102   7.474  0.00  0.00    +0.000 A 
ATOM     24  H   UNL     1      44.938   6.262   9.839  0.00  0.00    +0.000 HD
BRANCH  17  26
ATOM     25  N   UNL     1      48.009   2.559   5.557  0.00  0.00    +0.000 N 
ATOM     26  C   UNL     1      47.267   1.902   6.494  0.00  0.00    +0.000 C 
ATOM     27  O   UNL     1      47.233   0.680   6.533  0.00  0.00    +0.000 OA
ATOM     28  H   UNL     1      48.585   1.983   4.951  0.00  0.00    +0.000 HD
ATOM     29  H   UNL     1      48.274   3.532   5.654  0.00  0.00    +0.000 HD
ENDBRANCH  17  26
ENDBRANCH  16  21
ENDBRANCH   1  16
TORSDOF 5
ENDMDL
MODEL 7
REMARK VINA RESULT:    -7.482      1.984      7.603
REMARK INTER + INTRA:         -10.470
REMARK INTER:                  -9.594
REMARK INTRA:                  -0.876
REMARK UNBOUND:                -0.802
REMARK  Name = 
REMARK  5 active torsions:
REMARK  status: ('A' for Active; 'I' for Inactive)
REMARK    1  A    between atoms: C_2  and  C_4
REMARK    2  A    between atoms: N_8  and  C_9
REMARK    3  A    between atoms: C_9  and  C_10
REMARK    4  A    between atoms: C_10  and  C_13
REMARK    5  A    between atoms: C_17  and  N_18
REMARK                            x       y       z     vdW  Elec       q    Type
REMARK                         _______ _______ _______ _____ _____    ______ ____
ROOT
ATOM      1  C   UNL     1      45.763   6.662  11.688  0.00  0.00    +0.000 C 
ATOM      2  F   UNL     1      44.987   7.691  11.230  0.00  0.00    +0.000 F 
ATOM      3  F   UNL     1      46.985   6.847  11.104  0.00  0.00    +0.000 F 
ENDROOT
BRANCH   1   4
ATOM      4  C   UNL     1      45.179   5.305  11.352  0.00  0.00    +0.000 A 
ATOM      5  C   UNL     1      44.182   4.745  12.158  0.00  0.00    +0.000 A 
ATOM      6  C   UNL     1      43.603   3.534  11.800  0.00  0.00    +0.000 A 
ATOM      7  C   UNL     1      44.006   2.884  10.630  0.00  0.00    +0.000 A 
ATOM      8  C   UNL     1      44.998   3.408   9.789  0.00  0.00    +0.000 A 
ATOM      9  C   UNL     1      45.583   4.621  10.190  0.00  0.00    +0.000 A 
BRANCH   8  10
ATOM     10  N   UNL     1      45.349   2.794   8.607  0.00  0.00    +0.000 N 
ATOM     11  C   UNL     1      45.446   1.332   8.448  0.00  0.00    +0.000 C 
ATOM     12  C   UNL     1      46.795   0.982   7.801  0.00  0.00    +0.000 C 
ATOM     13  O   UNL     1      46.968   1.663   6.546  0.00  0.00    +0.000 OA
ATOM     14  C   UNL     1      46.911   3.087   6.737  0.00  0.00    +0.000 C 
ATOM     15  C   UNL     1      45.573   3.533   7.355  0.00  0.00    +0.000 C 
ENDBRANCH   8  10
ENDBRANCH   1   4
BRANCH   1  16
ATOM     16  C   UNL     1      45.911   6.814  13.227  0.00  0.00    +0.000 C 
BRANCH  16  21
ATOM     17  C   UNL     1      48.449   4.143  16.768  0.00  0.00    +0.000 A 
ATOM     18  C   UNL     1      47.395   3.748  15.951  0.00  0.00    +0.000 A 
ATOM     19  C   UNL     1      46.969   4.598  14.926  0.00  0.00    +0.000 A 
ATOM     20  C   UNL     1      47.598   5.825  14.737  0.00  0.00    +0.000 A 
ATOM     21  N   UNL     1      47.298   6.673  13.691  0.00  0.00    +0.000 N 
ATOM     22  N   UNL     1      48.603   6.230  15.538  0.00  0.00    +0.000 NA
ATOM     23  C   UNL     1      49.001   5.393  16.536  0.00  0.00    +0.000 A 
ATOM     24  H   UNL     1      47.801   7.548  13.830  0.00  0.00    +0.000 HD
BRANCH  17  26
ATOM     25  N   UNL     1      48.190   3.152  18.965  0.00  0.00    +0.000 N 
ATOM     26  C   UNL     1      48.978   3.307  17.862  0.00  0.00    +0.000 C 
ATOM     27  O   UNL     1      50.062   2.749  17.775  0.00  0.00    +0.000 OA
ATOM     28  H   UNL     1      48.517   2.495  19.666  0.00  0.00    +0.000 HD
ATOM     29  H   UNL     1      47.200   3.369  18.964  0.00  0.00    +0.000 HD
ENDBRANCH  17  26
ENDBRANCH  16  21
ENDBRANCH   1  16
TORSDOF 5
ENDMDL
MODEL 8
REMARK VINA RESULT:    -7.405      2.264      8.055
REMARK INTER + INTRA:         -10.371
REMARK INTER:                  -9.656
REMARK INTRA:                  -0.715
REMARK UNBOUND:                -0.802
REMARK  Name = 
REMARK  5 active torsions:
REMARK  status: ('A' for Active; 'I' for Inactive)
REMARK    1  A    between atoms: C_2  and  C_4
REMARK    2  A    between atoms: N_8  and  C_9
REMARK    3  A    between atoms: C_9  and  C_10
REMARK    4  A    between atoms: C_10  and  C_13
REMARK    5  A    between atoms: C_17  and  N_18
REMARK                            x       y       z     vdW  Elec       q    Type
REMARK                         _______ _______ _______ _____ _____    ______ ____
ROOT
ATOM      1  C   UNL     1      46.477   6.695  12.381  0.00  0.00    +0.000 C 
ATOM      2  F   UNL     1      45.942   7.617  13.237  0.00  0.00    +0.000 F 
ATOM      3  F   UNL     1      47.232   7.417  11.500  0.00  0.00    +0.000 F 
ENDROOT
BRANCH   1   4
ATOM      4  C   UNL     1      45.413   5.880  11.673  0.00  0.00    +0.000 A 
ATOM      5  C   UNL     1      44.064   6.033  12.009  0.00  0.00    +0.000 A 
ATOM      6  C   UNL     1      43.091   5.335  11.304  0.00  0.00    +0.000 A 
ATOM      7  C   UNL     1      43.460   4.492  10.251  0.00  0.00    +0.000 A 
ATOM      8  C   UNL     1      44.799   4.310   9.875  0.00  0.00    +0.000 A 
ATOM      9  C   UNL     1      45.761   5.009  10.624  0.00  0.00    +0.000 A 
BRANCH   8  10
ATOM     10  N   UNL     1      45.152   3.524   8.801  0.00  0.00    +0.000 N 
ATOM     11  C   UNL     1      44.829   2.090   8.700  0.00  0.00    +0.000 C 
ATOM     12  C   UNL     1      46.101   1.308   8.337  0.00  0.00    +0.000 C 
ATOM     13  O   UNL     1      46.692   1.804   7.122  0.00  0.00    +0.000 OA
ATOM     14  C   UNL     1      47.035   3.193   7.263  0.00  0.00    +0.000 C 
ATOM     15  C   UNL     1      45.808   4.060   7.598  0.00  0.00    +0.000 C 
ENDBRANCH   8  10
ENDBRANCH   1   4
BRANCH   1  16
ATOM     16  C   UNL     1      47.410   5.758  13.198  0.00  0.00    +0.000 C 
BRANCH  16  21
ATOM     17  C   UNL     1      48.573   4.524  18.017  0.00  0.00    +0.000 A 
ATOM     18  C   UNL     1      48.933   5.649  17.282  0.00  0.00    +0.000 A 
ATOM     19  C   UNL     1      48.351   5.860  16.029  0.00  0.00    +0.000 A 
ATOM     20  C   UNL     1      47.426   4.948  15.531  0.00  0.00    +0.000 A 
ATOM     21  N   UNL     1      46.741   5.137  14.348  0.00  0.00    +0.000 N 
ATOM     22  N   UNL     1      47.089   3.842  16.223  0.00  0.00    +0.000 NA
ATOM     23  C   UNL     1      47.670   3.646  17.439  0.00  0.00    +0.000 A 
ATOM     24  H   UNL     1      46.214   4.290  14.141  0.00  0.00    +0.000 HD
BRANCH  17  26
ATOM     25  N   UNL     1      48.392   3.393  20.154  0.00  0.00    +0.000 N 
ATOM     26  C   UNL     1      49.120   4.226  19.354  0.00  0.00    +0.000 C 
ATOM     27  O   UNL     1      50.195   4.679  19.723  0.00  0.00    +0.000 OA
ATOM     28  H   UNL     1      48.825   3.114  21.029  0.00  0.00    +0.000 HD
ATOM     29  H   UNL     1      47.654   2.798  19.795  0.00  0.00    +0.000 HD
ENDBRANCH  17  26
ENDBRANCH  16  21
ENDBRANCH   1  16
TORSDOF 5
ENDMDL
MODEL 9
REMARK VINA RESULT:    -7.073      3.270      7.452
REMARK INTER + INTRA:          -9.943
REMARK INTER:                  -8.919
REMARK INTRA:                  -1.023
REMARK UNBOUND:                -0.802
REMARK  Name = 
REMARK  5 active torsions:
REMARK  status: ('A' for Active; 'I' for Inactive)
REMARK    1  A    between atoms: C_2  and  C_4
REMARK    2  A    between atoms: N_8  and  C_9
REMARK    3  A    between atoms: C_9  and  C_10
REMARK    4  A    between atoms: C_10  and  C_13
REMARK    5  A    between atoms: C_17  and  N_18
REMARK                            x       y       z     vdW  Elec       q    Type
REMARK                         _______ _______ _______ _____ _____    ______ ____
ROOT
ATOM      1  C   UNL     1      48.688   7.882  12.384  0.00  0.00    +0.000 C 
ATOM      2  F   UNL     1      49.401   8.742  11.594  0.00  0.00    +0.000 F 
ATOM      3  F   UNL     1      49.200   6.643  12.119  0.00  0.00    +0.000 F 
ENDROOT
BRANCH   1   4
ATOM      4  C   UNL     1      47.199   7.947  12.109  0.00  0.00    +0.000 A 
ATOM      5  C   UNL     1      46.518   9.166  12.181  0.00  0.00    +0.000 A 
ATOM      6  C   UNL     1      45.168   9.225  11.856  0.00  0.00    +0.000 A 
ATOM      7  C   UNL     1      44.497   8.070  11.444  0.00  0.00    +0.000 A 
ATOM      8  C   UNL     1      45.138   6.826  11.352  0.00  0.00    +0.000 A 
ATOM      9  C   UNL     1      46.496   6.794  11.712  0.00  0.00    +0.000 A 
BRANCH   8  10
ATOM     10  N   UNL     1      44.487   5.705  10.889  0.00  0.00    +0.000 N 
ATOM     11  C   UNL     1      43.096   5.369  11.240  0.00  0.00    +0.000 C 
ATOM     12  C   UNL     1      43.032   3.911  11.722  0.00  0.00    +0.000 C 
ATOM     13  O   UNL     1      43.562   3.009  10.734  0.00  0.00    +0.000 OA
ATOM     14  C   UNL     1      44.931   3.333  10.442  0.00  0.00    +0.000 C 
ATOM     15  C   UNL     1      45.085   4.773   9.920  0.00  0.00    +0.000 C 
ENDBRANCH   8  10
ENDBRANCH   1   4
BRANCH   1  16
ATOM     16  C   UNL     1      48.972   8.239  13.869  0.00  0.00    +0.000 C 
BRANCH  16  21
ATOM     17  C   UNL     1      48.140   4.291  17.003  0.00  0.00    +0.000 A 
ATOM     18  C   UNL     1      47.405   4.713  15.901  0.00  0.00    +0.000 A 
ATOM     19  C   UNL     1      47.920   5.722  15.082  0.00  0.00    +0.000 A 
ATOM     20  C   UNL     1      49.154   6.292  15.378  0.00  0.00    +0.000 A 
ATOM     21  N   UNL     1      49.770   7.223  14.566  0.00  0.00    +0.000 N 
ATOM     22  N   UNL     1      49.865   5.909  16.457  0.00  0.00    +0.000 NA
ATOM     23  C   UNL     1      49.345   4.930  17.249  0.00  0.00    +0.000 A 
ATOM     24  H   UNL     1      50.598   7.572  15.045  0.00  0.00    +0.000 HD
BRANCH  17  26
ATOM     25  N   UNL     1      48.326   3.113  19.114  0.00  0.00    +0.000 N 
ATOM     26  C   UNL     1      47.687   3.222  17.913  0.00  0.00    +0.000 C 
ATOM     27  O   UNL     1      46.756   2.484  17.622  0.00  0.00    +0.000 OA
ATOM     28  H   UNL     1      47.941   2.443  19.772  0.00  0.00    +0.000 HD
ATOM     29  H   UNL     1      48.903   3.854  19.495  0.00  0.00    +0.000 HD
ENDBRANCH  17  26
ENDBRANCH  16  21
ENDBRANCH   1  16
TORSDOF 5
ENDMDL
