MODEL 1
REMARK VINA RESULT:    -9.218      0.000      0.000
REMARK INTER + INTRA:         -14.205
REMARK INTER:                 -12.990
REMARK INTRA:                  -1.215
REMARK UNBOUND:                -1.215
REMARK  Name = 
REMARK  7 active torsions:
REMARK  status: ('A' for Active; 'I' for Inactive)
REMARK    1  A    between atoms: C_2  and  C_4
REMARK    2  A    between atoms: C_7  and  N_8
REMARK    3  A    between atoms: N_8  and  C_9
REMARK    4  A    between atoms: C_9  and  C_10
REMARK    5  A    between atoms: C_10  and  C_13
REMARK    6  A    between atoms: C_15  and  C_16
REMARK    7  A    between atoms: C_19  and  C_20
REMARK                            x       y       z     vdW  Elec       q    Type
REMARK                         _______ _______ _______ _____ _____    ______ ____
ROOT
ATOM      1  C   UNL     1      43.459   5.313  12.316  0.00  0.00    +0.000 C 
ATOM      2  F   UNL     1      43.080   6.524  11.803  0.00  0.00    +0.000 F 
ATOM      3  F   UNL     1      42.581   5.077  13.346  0.00  0.00    +0.000 F 
ENDROOT
BRANCH   1   4
ATOM      4  C   UNL     1      44.901   5.338  12.808  0.00  0.00    +0.000 A 
ATOM      5  C   UNL     1      45.749   6.346  12.346  0.00  0.00    +0.000 A 
ATOM      6  C   UNL     1      47.075   6.421  12.801  0.00  0.00    +0.000 A 
ATOM      7  C   UNL     1      47.488   5.441  13.713  0.00  0.00    +0.000 A 
ATOM      8  C   UNL     1      46.597   4.458  14.112  0.00  0.00    +0.000 A 
ATOM      9  N   UNL     1      45.323   4.389  13.686  0.00  0.00    +0.000 NA
BRANCH   6  10
ATOM     10  C   UNL     1      47.998   7.484  12.337  0.00  0.00    +0.000 A 
ATOM     11  C   UNL     1      47.552   8.799  12.110  0.00  0.00    +0.000 A 
ATOM     12  C   UNL     1      48.421   9.800  11.661  0.00  0.00    +0.000 A 
ATOM     13  C   UNL     1      49.775   9.524  11.437  0.00  0.00    +0.000 A 
ATOM     14  C   UNL     1      50.236   8.221  11.668  0.00  0.00    +0.000 A 
ATOM     15  C   UNL     1      49.359   7.221  12.103  0.00  0.00    +0.000 A 
BRANCH  13  16
ATOM     16  C   UNL     1      50.727  10.586  10.957  0.00  0.00    +0.000 C 
ATOM     17  F   UNL     1      51.781  10.095  10.246  0.00  0.00    +0.000 F 
ATOM     18  F   UNL     1      50.122  11.497  10.145  0.00  0.00    +0.000 F 
ATOM     19  F   UNL     1      51.270  11.302  11.980  0.00  0.00    +0.000 F 
ENDBRANCH  13  16
ENDBRANCH   6  10
ENDBRANCH   1   4
BRANCH   1  20
ATOM     20  C   UNL     1      43.244   4.219  11.247  0.00  0.00    +0.000 C 
BRANCH  20  21
ATOM     21  N   UNL     1      43.649   4.632   9.891  0.00  0.00    +0.000 N 
ATOM     22  H   UNL     1      42.879   4.915   9.287  0.00  0.00    +0.000 HD
BRANCH  21  26
ATOM     23  C   UNL     1      46.554   2.482   7.723  0.00  0.00    +0.000 A 
ATOM     24  C   UNL     1      46.538   3.876   7.646  0.00  0.00    +0.000 A 
ATOM     25  C   UNL     1      45.595   4.605   8.382  0.00  0.00    +0.000 A 
ATOM     26  C   UNL     1      44.675   3.968   9.225  0.00  0.00    +0.000 A 
ATOM     27  C   UNL     1      44.705   2.568   9.285  0.00  0.00    +0.000 A 
ATOM     28  C   UNL     1      45.628   1.828   8.539  0.00  0.00    +0.000 A 
BRANCH  23  30
ATOM     29  N   UNL     1      48.546   2.312   6.334  0.00  0.00    +0.000 N 
ATOM     30  C   UNL     1      47.494   1.664   6.915  0.00  0.00    +0.000 C 
ATOM     31  O   UNL     1      47.355   0.454   6.794  0.00  0.00    +0.000 OA
ATOM     32  H   UNL     1      49.229   1.726   5.870  0.00  0.00    +0.000 HD
ATOM     33  H   UNL     1      48.833   3.239   6.611  0.00  0.00    +0.000 HD
ENDBRANCH  23  30
ENDBRANCH  21  26
ENDBRANCH  20  21
ENDBRANCH   1  20
TORSDOF 7
ENDMDL
MODEL 2
REMARK VINA RESULT:    -9.157      3.557      4.862
REMARK INTER + INTRA:         -14.119
REMARK INTER:                 -12.809
REMARK INTRA:                  -1.311
REMARK UNBOUND:                -1.215
REMARK  Name = 
REMARK  7 active torsions:
REMARK  status: ('A' for Active; 'I' for Inactive)
REMARK    1  A    between atoms: C_2  and  C_4
REMARK    2  A    between atoms: C_7  and  N_8
REMARK    3  A    between atoms: N_8  and  C_9
REMARK    4  A    between atoms: C_9  and  C_10
REMARK    5  A    between atoms: C_10  and  C_13
REMARK    6  A    between atoms: C_15  and  C_16
REMARK    7  A    between atoms: C_19  and  C_20
REMARK                            x       y       z     vdW  Elec       q    Type
REMARK                         _______ _______ _______ _____ _____    ______ ____
ROOT
ATOM      1  C   UNL     1      43.229   5.449  12.060  0.00  0.00    +0.000 C 
ATOM      2  F   UNL     1      42.493   6.519  11.626  0.00  0.00    +0.000 F 
ATOM      3  F   UNL     1      42.643   5.076  13.245  0.00  0.00    +0.000 F 
ENDROOT
BRANCH   1   4
ATOM      4  C   UNL     1      44.695   5.818  12.255  0.00  0.00    +0.000 A 
ATOM      5  C   UNL     1      45.345   5.389  13.412  0.00  0.00    +0.000 A 
ATOM      6  C   UNL     1      46.704   5.682  13.612  0.00  0.00    +0.000 A 
ATOM      7  C   UNL     1      47.346   6.422  12.611  0.00  0.00    +0.000 A 
ATOM      8  C   UNL     1      46.631   6.832  11.497  0.00  0.00    +0.000 A 
ATOM      9  N   UNL     1      45.333   6.544  11.297  0.00  0.00    +0.000 NA
BRANCH   6  10
ATOM     10  C   UNL     1      47.426   5.233  14.826  0.00  0.00    +0.000 A 
ATOM     11  C   UNL     1      48.391   6.044  15.452  0.00  0.00    +0.000 A 
ATOM     12  C   UNL     1      49.081   5.616  16.591  0.00  0.00    +0.000 A 
ATOM     13  C   UNL     1      48.818   4.363  17.158  0.00  0.00    +0.000 A 
ATOM     14  C   UNL     1      47.852   3.548  16.552  0.00  0.00    +0.000 A 
ATOM     15  C   UNL     1      47.176   3.976  15.404  0.00  0.00    +0.000 A 
BRANCH  13  16
ATOM     16  C   UNL     1      49.547   3.884  18.385  0.00  0.00    +0.000 C 
ATOM     17  F   UNL     1      48.746   3.240  19.280  0.00  0.00    +0.000 F 
ATOM     18  F   UNL     1      50.549   3.012  18.086  0.00  0.00    +0.000 F 
ATOM     19  F   UNL     1      50.131   4.902  19.075  0.00  0.00    +0.000 F 
ENDBRANCH  13  16
ENDBRANCH   6  10
ENDBRANCH   1   4
BRANCH   1  20
ATOM     20  C   UNL     1      43.066   4.282  11.060  0.00  0.00    +0.000 C 
BRANCH  20  21
ATOM     21  N   UNL     1      43.541   4.600   9.702  0.00  0.00    +0.000 N 
ATOM     22  H   UNL     1      42.806   4.868   9.049  0.00  0.00    +0.000 HD
BRANCH  21  26
ATOM     23  C   UNL     1      46.460   2.217   7.814  0.00  0.00    +0.000 A 
ATOM     24  C   UNL     1      46.427   3.589   7.556  0.00  0.00    +0.000 A 
ATOM     25  C   UNL     1      45.479   4.397   8.196  0.00  0.00    +0.000 A 
ATOM     26  C   UNL     1      44.571   3.865   9.121  0.00  0.00    +0.000 A 
ATOM     27  C   UNL     1      44.619   2.486   9.364  0.00  0.00    +0.000 A 
ATOM     28  C   UNL     1      45.546   1.665   8.715  0.00  0.00    +0.000 A 
BRANCH  23  30
ATOM     29  N   UNL     1      48.441   1.890   6.437  0.00  0.00    +0.000 N 
ATOM     30  C   UNL     1      47.406   1.311   7.114  0.00  0.00    +0.000 C 
ATOM     31  O   UNL     1      47.286   0.094   7.161  0.00  0.00    +0.000 OA
ATOM     32  H   UNL     1      49.129   1.257   6.050  0.00  0.00    +0.000 HD
ATOM     33  H   UNL     1      48.715   2.850   6.582  0.00  0.00    +0.000 HD
ENDBRANCH  23  30
ENDBRANCH  21  26
ENDBRANCH  20  21
ENDBRANCH   1  20
TORSDOF 7
ENDMDL
MODEL 3
REMARK VINA RESULT:    -8.616      1.739      2.428
REMARK INTER + INTRA:         -13.358
REMARK INTER:                 -12.012
REMARK INTRA:                  -1.345
REMARK UNBOUND:                -1.215
REMARK  Name = 
REMARK  7 active torsions:
REMARK  status: ('A' for Active; 'I' for Inactive)
REMARK    1  A    between atoms: C_2  and  C_4
REMARK    2  A    between atoms: C_7  and  N_8
REMARK    3  A    between atoms: N_8  and  C_9
REMARK    4  A    between atoms: C_9  and  C_10
REMARK    5  A    between atoms: C_10  and  C_13
REMARK    6  A    between atoms: C_15  and  C_16
REMARK    7  A    between atoms: C_19  and  C_20
REMARK                            x       y       z     vdW  Elec       q    Type
REMARK                         _______ _______ _______ _____ _____    ______ ____
ROOT
ATOM      1  C   UNL     1      44.263   3.650  12.464  0.00  0.00    +0.000 C 
ATOM      2  F   UNL     1      43.564   3.526  13.635  0.00  0.00    +0.000 F 
ATOM      3  F   UNL     1      45.357   2.834  12.620  0.00  0.00    +0.000 F 
ENDROOT
BRANCH   1   4
ATOM      4  C   UNL     1      44.675   5.094  12.206  0.00  0.00    +0.000 A 
ATOM      5  C   UNL     1      45.988   5.475  12.486  0.00  0.00    +0.000 A 
ATOM      6  C   UNL     1      46.414   6.789  12.232  0.00  0.00    +0.000 A 
ATOM      7  C   UNL     1      45.463   7.673  11.705  0.00  0.00    +0.000 A 
ATOM      8  C   UNL     1      44.171   7.229  11.472  0.00  0.00    +0.000 A 
ATOM      9  N   UNL     1      43.762   5.968  11.704  0.00  0.00    +0.000 NA
BRANCH   6  10
ATOM     10  C   UNL     1      47.804   7.223  12.510  0.00  0.00    +0.000 A 
ATOM     11  C   UNL     1      48.387   7.059  13.779  0.00  0.00    +0.000 A 
ATOM     12  C   UNL     1      49.695   7.479  14.044  0.00  0.00    +0.000 A 
ATOM     13  C   UNL     1      50.475   8.067  13.041  0.00  0.00    +0.000 A 
ATOM     14  C   UNL     1      49.910   8.228  11.769  0.00  0.00    +0.000 A 
ATOM     15  C   UNL     1      48.597   7.819  11.514  0.00  0.00    +0.000 A 
BRANCH  13  16
ATOM     16  C   UNL     1      51.884   8.524  13.305  0.00  0.00    +0.000 C 
ATOM     17  F   UNL     1      51.990   9.862  13.543  0.00  0.00    +0.000 F 
ATOM     18  F   UNL     1      52.437   7.909  14.386  0.00  0.00    +0.000 F 
ATOM     19  F   UNL     1      52.720   8.266  12.261  0.00  0.00    +0.000 F 
ENDBRANCH  13  16
ENDBRANCH   6  10
ENDBRANCH   1   4
BRANCH   1  20
ATOM     20  C   UNL     1      43.412   3.087  11.303  0.00  0.00    +0.000 C 
BRANCH  20  21
ATOM     21  N   UNL     1      43.620   3.792  10.025  0.00  0.00    +0.000 N 
ATOM     22  H   UNL     1      42.763   4.010   9.518  0.00  0.00    +0.000 HD
BRANCH  21  26
ATOM     23  C   UNL     1      46.696   2.654   7.378  0.00  0.00    +0.000 A 
ATOM     24  C   UNL     1      46.396   4.009   7.535  0.00  0.00    +0.000 A 
ATOM     25  C   UNL     1      45.394   4.403   8.431  0.00  0.00    +0.000 A 
ATOM     26  C   UNL     1      44.696   3.467   9.204  0.00  0.00    +0.000 A 
ATOM     27  C   UNL     1      45.009   2.112   9.029  0.00  0.00    +0.000 A 
ATOM     28  C   UNL     1      45.993   1.704   8.123  0.00  0.00    +0.000 A 
BRANCH  23  30
ATOM     29  N   UNL     1      47.942   2.980   5.312  0.00  0.00    +0.000 N 
ATOM     30  C   UNL     1      47.706   2.184   6.397  0.00  0.00    +0.000 C 
ATOM     31  O   UNL     1      48.327   1.142   6.561  0.00  0.00    +0.000 OA
ATOM     32  H   UNL     1      48.701   2.694   4.706  0.00  0.00    +0.000 HD
ATOM     33  H   UNL     1      47.645   3.943   5.270  0.00  0.00    +0.000 HD
ENDBRANCH  23  30
ENDBRANCH  21  26
ENDBRANCH  20  21
ENDBRANCH   1  20
TORSDOF 7
ENDMDL
MODEL 4
REMARK VINA RESULT:    -8.407      1.705      2.466
REMARK INTER + INTRA:         -13.062
REMARK INTER:                 -11.540
REMARK INTRA:                  -1.522
REMARK UNBOUND:                -1.215
REMARK  Name = 
REMARK  7 active torsions:
REMARK  status: ('A' for Active; 'I' for Inactive)
REMARK    1  A    between atoms: C_2  and  C_4
REMARK    2  A    between atoms: C_7  and  N_8
REMARK    3  A    between atoms: N_8  and  C_9
REMARK    4  A    between atoms: C_9  and  C_10
REMARK    5  A    between atoms: C_10  and  C_13
REMARK    6  A    between atoms: C_15  and  C_16
REMARK    7  A    between atoms: C_19  and  C_20
REMARK                            x       y       z     vdW  Elec       q    Type
REMARK                         _______ _______ _______ _____ _____    ______ ____
ROOT
ATOM      1  C   UNL     1      44.643   4.674  12.369  0.00  0.00    +0.000 C 
ATOM      2  F   UNL     1      44.226   4.461  13.656  0.00  0.00    +0.000 F 
ATOM      3  F   UNL     1      45.647   3.757  12.169  0.00  0.00    +0.000 F 
ENDROOT
BRANCH   1   4
ATOM      4  C   UNL     1      45.142   6.099  12.169  0.00  0.00    +0.000 A 
ATOM      5  C   UNL     1      46.496   6.370  12.370  0.00  0.00    +0.000 A 
ATOM      6  C   UNL     1      46.998   7.665  12.164  0.00  0.00    +0.000 A 
ATOM      7  C   UNL     1      46.080   8.645  11.766  0.00  0.00    +0.000 A 
ATOM      8  C   UNL     1      44.746   8.308  11.605  0.00  0.00    +0.000 A 
ATOM      9  N   UNL     1      44.262   7.066  11.792  0.00  0.00    +0.000 NA
BRANCH   6  10
ATOM     10  C   UNL     1      48.433   7.983  12.361  0.00  0.00    +0.000 A 
ATOM     11  C   UNL     1      49.388   7.731  11.359  0.00  0.00    +0.000 A 
ATOM     12  C   UNL     1      50.743   8.021  11.549  0.00  0.00    +0.000 A 
ATOM     13  C   UNL     1      51.191   8.591  12.746  0.00  0.00    +0.000 A 
ATOM     14  C   UNL     1      50.250   8.857  13.750  0.00  0.00    +0.000 A 
ATOM     15  C   UNL     1      48.899   8.551  13.559  0.00  0.00    +0.000 A 
BRANCH  13  16
ATOM     16  C   UNL     1      52.645   8.912  12.970  0.00  0.00    +0.000 C 
ATOM     17  F   UNL     1      53.452   7.814  12.986  0.00  0.00    +0.000 F 
ATOM     18  F   UNL     1      53.150   9.732  12.008  0.00  0.00    +0.000 F 
ATOM     19  F   UNL     1      52.862   9.549  14.154  0.00  0.00    +0.000 F 
ENDBRANCH  13  16
ENDBRANCH   6  10
ENDBRANCH   1   4
BRANCH   1  20
ATOM     20  C   UNL     1      43.489   4.335  11.399  0.00  0.00    +0.000 C 
BRANCH  20  21
ATOM     21  N   UNL     1      43.757   4.729  10.005  0.00  0.00    +0.000 N 
ATOM     22  H   UNL     1      42.960   5.141   9.520  0.00  0.00    +0.000 HD
BRANCH  21  26
ATOM     23  C   UNL     1      46.445   2.474   7.669  0.00  0.00    +0.000 A 
ATOM     24  C   UNL     1      45.541   1.811   8.502  0.00  0.00    +0.000 A 
ATOM     25  C   UNL     1      44.624   2.547   9.264  0.00  0.00    +0.000 A 
ATOM     26  C   UNL     1      44.569   3.944   9.190  0.00  0.00    +0.000 A 
ATOM     27  C   UNL     1      45.487   4.591   8.352  0.00  0.00    +0.000 A 
ATOM     28  C   UNL     1      46.421   3.869   7.603  0.00  0.00    +0.000 A 
BRANCH  23  30
ATOM     29  N   UNL     1      48.551   2.457   6.448  0.00  0.00    +0.000 N 
ATOM     30  C   UNL     1      47.474   1.741   6.890  0.00  0.00    +0.000 C 
ATOM     31  O   UNL     1      47.384   0.541   6.671  0.00  0.00    +0.000 OA
ATOM     32  H   UNL     1      49.289   1.924   6.005  0.00  0.00    +0.000 HD
ATOM     33  H   UNL     1      48.784   3.368   6.814  0.00  0.00    +0.000 HD
ENDBRANCH  23  30
ENDBRANCH  21  26
ENDBRANCH  20  21
ENDBRANCH   1  20
TORSDOF 7
ENDMDL
MODEL 5
REMARK VINA RESULT:    -8.373      3.952      5.247
REMARK INTER + INTRA:         -13.014
REMARK INTER:                 -11.890
REMARK INTRA:                  -1.124
REMARK UNBOUND:                -1.215
REMARK  Name = 
REMARK  7 active torsions:
REMARK  status: ('A' for Active; 'I' for Inactive)
REMARK    1  A    between atoms: C_2  and  C_4
REMARK    2  A    between atoms: C_7  and  N_8
REMARK    3  A    between atoms: N_8  and  C_9
REMARK    4  A    between atoms: C_9  and  C_10
REMARK    5  A    between atoms: C_10  and  C_13
REMARK    6  A    between atoms: C_15  and  C_16
REMARK    7  A    between atoms: C_19  and  C_20
REMARK                            x       y       z     vdW  Elec       q    Type
REMARK                         _______ _______ _______ _____ _____    ______ ____
ROOT
ATOM      1  C   UNL     1      44.607   4.236  12.560  0.00  0.00    +0.000 C 
ATOM      2  F   UNL     1      43.665   4.328  13.550  0.00  0.00    +0.000 F 
ATOM      3  F   UNL     1      44.883   2.894  12.462  0.00  0.00    +0.000 F 
ENDROOT
BRANCH   1   4
ATOM      4  C   UNL     1      45.856   5.040  12.897  0.00  0.00    +0.000 A 
ATOM      5  C   UNL     1      46.420   4.901  14.166  0.00  0.00    +0.000 A 
ATOM      6  C   UNL     1      47.590   5.601  14.503  0.00  0.00    +0.000 A 
ATOM      7  C   UNL     1      48.136   6.434  13.518  0.00  0.00    +0.000 A 
ATOM      8  C   UNL     1      47.509   6.539  12.287  0.00  0.00    +0.000 A 
ATOM      9  N   UNL     1      46.395   5.862  11.957  0.00  0.00    +0.000 NA
BRANCH   6  10
ATOM     10  C   UNL     1      48.218   5.468  15.839  0.00  0.00    +0.000 A 
ATOM     11  C   UNL     1      49.210   6.364  16.279  0.00  0.00    +0.000 A 
ATOM     12  C   UNL     1      49.811   6.232  17.536  0.00  0.00    +0.000 A 
ATOM     13  C   UNL     1      49.430   5.204  18.407  0.00  0.00    +0.000 A 
ATOM     14  C   UNL     1      48.436   4.310  17.986  0.00  0.00    +0.000 A 
ATOM     15  C   UNL     1      47.849   4.439  16.723  0.00  0.00    +0.000 A 
BRANCH  13  16
ATOM     16  C   UNL     1      50.062   5.045  19.763  0.00  0.00    +0.000 C 
ATOM     17  F   UNL     1      50.400   6.228  20.351  0.00  0.00    +0.000 F 
ATOM     18  F   UNL     1      49.244   4.411  20.647  0.00  0.00    +0.000 F 
ATOM     19  F   UNL     1      51.208   4.311  19.722  0.00  0.00    +0.000 F 
ENDBRANCH  13  16
ENDBRANCH   6  10
ENDBRANCH   1   4
BRANCH   1  20
ATOM     20  C   UNL     1      43.983   4.693  11.222  0.00  0.00    +0.000 C 
BRANCH  20  21
ATOM     21  N   UNL     1      43.642   3.579  10.320  0.00  0.00    +0.000 N 
ATOM     22  H   UNL     1      43.156   2.804  10.769  0.00  0.00    +0.000 HD
BRANCH  21  26
ATOM     23  C   UNL     1      46.509   2.553   7.405  0.00  0.00    +0.000 A 
ATOM     24  C   UNL     1      45.931   1.545   8.179  0.00  0.00    +0.000 A 
ATOM     25  C   UNL     1      44.958   1.868   9.134  0.00  0.00    +0.000 A 
ATOM     26  C   UNL     1      44.523   3.187   9.315  0.00  0.00    +0.000 A 
ATOM     27  C   UNL     1      45.118   4.184   8.531  0.00  0.00    +0.000 A 
ATOM     28  C   UNL     1      46.105   3.877   7.590  0.00  0.00    +0.000 A 
BRANCH  23  30
ATOM     29  N   UNL     1      47.696   3.107   5.353  0.00  0.00    +0.000 N 
ATOM     30  C   UNL     1      47.587   2.267   6.425  0.00  0.00    +0.000 C 
ATOM     31  O   UNL     1      48.367   1.336   6.578  0.00  0.00    +0.000 OA
ATOM     32  H   UNL     1      48.494   2.957   4.749  0.00  0.00    +0.000 HD
ATOM     33  H   UNL     1      47.248   4.011   5.324  0.00  0.00    +0.000 HD
ENDBRANCH  23  30
ENDBRANCH  21  26
ENDBRANCH  20  21
ENDBRANCH   1  20
TORSDOF 7
ENDMDL
MODEL 6
REMARK VINA RESULT:    -8.103      4.066      7.573
REMARK INTER + INTRA:         -12.634
REMARK INTER:                 -11.392
REMARK INTRA:                  -1.243
REMARK UNBOUND:                -1.215
REMARK  Name = 
REMARK  7 active torsions:
REMARK  status: ('A' for Active; 'I' for Inactive)
REMARK    1  A    between atoms: C_2  and  C_4
REMARK    2  A    between atoms: C_7  and  N_8
REMARK    3  A    between atoms: N_8  and  C_9
REMARK    4  A    between atoms: C_9  and  C_10
REMARK    5  A    between atoms: C_10  and  C_13
REMARK    6  A    between atoms: C_15  and  C_16
REMARK    7  A    between atoms: C_19  and  C_20
REMARK                            x       y       z     vdW  Elec       q    Type
REMARK                         _______ _______ _______ _____ _____    ______ ____
ROOT
ATOM      1  C   UNL     1      45.766   8.404  12.529  0.00  0.00    +0.000 C 
ATOM      2  F   UNL     1      44.824   9.325  12.905  0.00  0.00    +0.000 F 
ATOM      3  F   UNL     1      46.362   8.946  11.416  0.00  0.00    +0.000 F 
ENDROOT
BRANCH   1   4
ATOM      4  C   UNL     1      45.137   7.051  12.223  0.00  0.00    +0.000 A 
ATOM      5  C   UNL     1      45.592   6.337  11.113  0.00  0.00    +0.000 A 
ATOM      6  C   UNL     1      45.059   5.072  10.817  0.00  0.00    +0.000 A 
ATOM      7  C   UNL     1      44.061   4.589  11.673  0.00  0.00    +0.000 A 
ATOM      8  C   UNL     1      43.644   5.362  12.744  0.00  0.00    +0.000 A 
ATOM      9  N   UNL     1      44.160   6.569  13.037  0.00  0.00    +0.000 NA
BRANCH   6  10
ATOM     10  C   UNL     1      45.527   4.285   9.651  0.00  0.00    +0.000 A 
ATOM     11  C   UNL     1      45.379   2.886   9.600  0.00  0.00    +0.000 A 
ATOM     12  C   UNL     1      45.831   2.142   8.505  0.00  0.00    +0.000 A 
ATOM     13  C   UNL     1      46.434   2.773   7.410  0.00  0.00    +0.000 A 
ATOM     14  C   UNL     1      46.579   4.167   7.443  0.00  0.00    +0.000 A 
ATOM     15  C   UNL     1      46.138   4.904   8.547  0.00  0.00    +0.000 A 
BRANCH  13  16
ATOM     16  C   UNL     1      46.925   1.992   6.221  0.00  0.00    +0.000 C 
ATOM     17  F   UNL     1      46.698   0.651   6.317  0.00  0.00    +0.000 F 
ATOM     18  F   UNL     1      46.336   2.388   5.060  0.00  0.00    +0.000 F 
ATOM     19  F   UNL     1      48.266   2.128   6.025  0.00  0.00    +0.000 F 
ENDBRANCH  13  16
ENDBRANCH   6  10
ENDBRANCH   1   4
BRANCH   1  20
ATOM     20  C   UNL     1      46.838   8.293  13.637  0.00  0.00    +0.000 C 
BRANCH  20  21
ATOM     21  N   UNL     1      47.763   7.162  13.450  0.00  0.00    +0.000 N 
ATOM     22  H   UNL     1      47.879   6.865  12.482  0.00  0.00    +0.000 HD
BRANCH  21  26
ATOM     23  C   UNL     1      47.738   4.172  16.420  0.00  0.00    +0.000 A 
ATOM     24  C   UNL     1      47.094   3.933  15.204  0.00  0.00    +0.000 A 
ATOM     25  C   UNL     1      47.116   4.907  14.198  0.00  0.00    +0.000 A 
ATOM     26  C   UNL     1      47.800   6.117  14.370  0.00  0.00    +0.000 A 
ATOM     27  C   UNL     1      48.437   6.339  15.598  0.00  0.00    +0.000 A 
ATOM     28  C   UNL     1      48.404   5.383  16.618  0.00  0.00    +0.000 A 
BRANCH  23  30
ATOM     29  N   UNL     1      48.781   3.128  18.356  0.00  0.00    +0.000 N 
ATOM     30  C   UNL     1      47.690   3.195  17.537  0.00  0.00    +0.000 C 
ATOM     31  O   UNL     1      46.706   2.496  17.740  0.00  0.00    +0.000 OA
ATOM     32  H   UNL     1      48.693   2.530  19.168  0.00  0.00    +0.000 HD
ATOM     33  H   UNL     1      49.490   3.846  18.377  0.00  0.00    +0.000 HD
ENDBRANCH  23  30
ENDBRANCH  21  26
ENDBRANCH  20  21
ENDBRANCH   1  20
TORSDOF 7
ENDMDL
MODEL 7
REMARK VINA RESULT:    -7.710      1.941      2.462
REMARK INTER + INTRA:         -12.080
REMARK INTER:                 -11.209
REMARK INTRA:                  -0.872
REMARK UNBOUND:                -1.215
REMARK  Name = 
REMARK  7 active torsions:
REMARK  status: ('A' for Active; 'I' for Inactive)
REMARK    1  A    between atoms: C_2  and  C_4
REMARK    2  A    between atoms: C_7  and  N_8
REMARK    3  A    between atoms: N_8  and  C_9
REMARK    4  A    between atoms: C_9  and  C_10
REMARK    5  A    between atoms: C_10  and  C_13
REMARK    6  A    between atoms: C_15  and  C_16
REMARK    7  A    between atoms: C_19  and  C_20
REMARK                            x       y       z     vdW  Elec       q    Type
REMARK                         _______ _______ _______ _____ _____    ______ ____
ROOT
ATOM      1  C   UNL     1      44.825   6.273  11.535  0.00  0.00    +0.000 C 
ATOM      2  F   UNL     1      45.463   6.636  10.379  0.00  0.00    +0.000 F 
ATOM      3  F   UNL     1      44.085   7.376  11.889  0.00  0.00    +0.000 F 
ENDROOT
BRANCH   1   4
ATOM      4  C   UNL     1      45.816   5.892  12.628  0.00  0.00    +0.000 A 
ATOM      5  C   UNL     1      46.996   6.626  12.748  0.00  0.00    +0.000 A 
ATOM      6  C   UNL     1      47.919   6.325  13.762  0.00  0.00    +0.000 A 
ATOM      7  C   UNL     1      47.596   5.263  14.617  0.00  0.00    +0.000 A 
ATOM      8  C   UNL     1      46.414   4.565  14.426  0.00  0.00    +0.000 A 
ATOM      9  N   UNL     1      45.524   4.857  13.461  0.00  0.00    +0.000 NA
BRANCH   6  10
ATOM     10  C   UNL     1      49.178   7.091  13.922  0.00  0.00    +0.000 A 
ATOM     11  C   UNL     1      49.849   7.156  15.157  0.00  0.00    +0.000 A 
ATOM     12  C   UNL     1      51.031   7.889  15.310  0.00  0.00    +0.000 A 
ATOM     13  C   UNL     1      51.595   8.572  14.226  0.00  0.00    +0.000 A 
ATOM     14  C   UNL     1      50.943   8.508  12.987  0.00  0.00    +0.000 A 
ATOM     15  C   UNL     1      49.754   7.785  12.843  0.00  0.00    +0.000 A 
BRANCH  13  16
ATOM     16  C   UNL     1      52.867   9.364  14.369  0.00  0.00    +0.000 C 
ATOM     17  F   UNL     1      52.793  10.617  13.839  0.00  0.00    +0.000 F 
ATOM     18  F   UNL     1      53.232   9.530  15.670  0.00  0.00    +0.000 F 
ATOM     19  F   UNL     1      53.926   8.765  13.757  0.00  0.00    +0.000 F 
ENDBRANCH  13  16
ENDBRANCH   6  10
ENDBRANCH   1   4
BRANCH   1  20
ATOM     20  C   UNL     1      43.843   5.119  11.232  0.00  0.00    +0.000 C 
BRANCH  20  21
ATOM     21  N   UNL     1      43.732   4.801   9.797  0.00  0.00    +0.000 N 
ATOM     22  H   UNL     1      42.782   4.625   9.474  0.00  0.00    +0.000 HD
BRANCH  21  26
ATOM     23  C   UNL     1      46.437   2.286   7.767  0.00  0.00    +0.000 A 
ATOM     24  C   UNL     1      46.481   3.663   7.537  0.00  0.00    +0.000 A 
ATOM     25  C   UNL     1      45.605   4.513   8.224  0.00  0.00    +0.000 A 
ATOM     26  C   UNL     1      44.697   4.018   9.168  0.00  0.00    +0.000 A 
ATOM     27  C   UNL     1      44.667   2.633   9.381  0.00  0.00    +0.000 A 
ATOM     28  C   UNL     1      45.520   1.772   8.686  0.00  0.00    +0.000 A 
BRANCH  23  30
ATOM     29  N   UNL     1      48.333   1.871   6.296  0.00  0.00    +0.000 N 
ATOM     30  C   UNL     1      47.302   1.339   7.018  0.00  0.00    +0.000 C 
ATOM     31  O   UNL     1      47.124   0.130   7.064  0.00  0.00    +0.000 OA
ATOM     32  H   UNL     1      48.969   1.208   5.873  0.00  0.00    +0.000 HD
ATOM     33  H   UNL     1      48.661   2.816   6.433  0.00  0.00    +0.000 HD
ENDBRANCH  23  30
ENDBRANCH  21  26
ENDBRANCH  20  21
ENDBRANCH   1  20
TORSDOF 7
ENDMDL
MODEL 8
REMARK VINA RESULT:    -7.271      4.328      8.381
REMARK INTER + INTRA:         -11.462
REMARK INTER:                  -9.758
REMARK INTRA:                  -1.704
REMARK UNBOUND:                -1.215
REMARK  Name = 
REMARK  7 active torsions:
REMARK  status: ('A' for Active; 'I' for Inactive)
REMARK    1  A    between atoms: C_2  and  C_4
REMARK    2  A    between atoms: C_7  and  N_8
REMARK    3  A    between atoms: N_8  and  C_9
REMARK    4  A    between atoms: C_9  and  C_10
REMARK    5  A    between atoms: C_10  and  C_13
REMARK    6  A    between atoms: C_15  and  C_16
REMARK    7  A    between atoms: C_19  and  C_20
REMARK                            x       y       z     vdW  Elec       q    Type
REMARK                         _______ _______ _______ _____ _____    ______ ____
ROOT
ATOM      1  C   UNL     1      49.465   8.972  16.089  0.00  0.00    +0.000 C 
ATOM      2  F   UNL     1      49.298  10.331  16.087  0.00  0.00    +0.000 F 
ATOM      3  F   UNL     1      50.707   8.771  16.641  0.00  0.00    +0.000 F 
ENDROOT
BRANCH   1   4
ATOM      4  C   UNL     1      49.379   8.393  14.682  0.00  0.00    +0.000 A 
ATOM      5  C   UNL     1      48.309   7.553  14.368  0.00  0.00    +0.000 A 
ATOM      6  C   UNL     1      48.179   7.026  13.073  0.00  0.00    +0.000 A 
ATOM      7  C   UNL     1      49.168   7.376  12.144  0.00  0.00    +0.000 A 
ATOM      8  C   UNL     1      50.212   8.199  12.533  0.00  0.00    +0.000 A 
ATOM      9  N   UNL     1      50.335   8.714  13.770  0.00  0.00    +0.000 NA
BRANCH   6  10
ATOM     10  C   UNL     1      47.050   6.139  12.704  0.00  0.00    +0.000 A 
ATOM     11  C   UNL     1      46.586   5.136  13.576  0.00  0.00    +0.000 A 
ATOM     12  C   UNL     1      45.528   4.291  13.224  0.00  0.00    +0.000 A 
ATOM     13  C   UNL     1      44.884   4.429  11.989  0.00  0.00    +0.000 A 
ATOM     14  C   UNL     1      45.329   5.430  11.114  0.00  0.00    +0.000 A 
ATOM     15  C   UNL     1      46.396   6.262  11.466  0.00  0.00    +0.000 A 
BRANCH  13  16
ATOM     16  C   UNL     1      43.743   3.532  11.591  0.00  0.00    +0.000 C 
ATOM     17  F   UNL     1      43.441   2.585  12.523  0.00  0.00    +0.000 F 
ATOM     18  F   UNL     1      42.589   4.223  11.375  0.00  0.00    +0.000 F 
ATOM     19  F   UNL     1      43.992   2.852  10.437  0.00  0.00    +0.000 F 
ENDBRANCH  13  16
ENDBRANCH   6  10
ENDBRANCH   1   4
BRANCH   1  20
ATOM     20  C   UNL     1      48.418   8.334  17.030  0.00  0.00    +0.000 C 
BRANCH  20  21
ATOM     21  N   UNL     1      49.011   7.536  18.117  0.00  0.00    +0.000 N 
ATOM     22  H   UNL     1      49.710   8.029  18.672  0.00  0.00    +0.000 HD
BRANCH  21  26
ATOM     23  C   UNL     1      49.793   3.479  17.284  0.00  0.00    +0.000 A 
ATOM     24  C   UNL     1      50.800   4.268  17.844  0.00  0.00    +0.000 A 
ATOM     25  C   UNL     1      50.547   5.611  18.150  0.00  0.00    +0.000 A 
ATOM     26  C   UNL     1      49.286   6.183  17.935  0.00  0.00    +0.000 A 
ATOM     27  C   UNL     1      48.291   5.376  17.370  0.00  0.00    +0.000 A 
ATOM     28  C   UNL     1      48.538   4.040  17.040  0.00  0.00    +0.000 A 
BRANCH  23  30
ATOM     29  N   UNL     1      50.945   1.359  17.616  0.00  0.00    +0.000 N 
ATOM     30  C   UNL     1      50.033   2.069  16.887  0.00  0.00    +0.000 C 
ATOM     31  O   UNL     1      49.422   1.547  15.964  0.00  0.00    +0.000 OA
ATOM     32  H   UNL     1      51.024   0.375  17.394  0.00  0.00    +0.000 HD
ATOM     33  H   UNL     1      51.274   1.666  18.519  0.00  0.00    +0.000 HD
ENDBRANCH  23  30
ENDBRANCH  21  26
ENDBRANCH  20  21
ENDBRANCH   1  20
TORSDOF 7
ENDMDL
MODEL 9
REMARK VINA RESULT:    -7.111      3.139      3.704
REMARK INTER + INTRA:         -11.236
REMARK INTER:                 -10.289
REMARK INTRA:                  -0.947
REMARK UNBOUND:                -1.215
REMARK  Name = 
REMARK  7 active torsions:
REMARK  status: ('A' for Active; 'I' for Inactive)
REMARK    1  A    between atoms: C_2  and  C_4
REMARK    2  A    between atoms: C_7  and  N_8
REMARK    3  A    between atoms: N_8  and  C_9
REMARK    4  A    between atoms: C_9  and  C_10
REMARK    5  A    between atoms: C_10  and  C_13
REMARK    6  A    between atoms: C_15  and  C_16
REMARK    7  A    between atoms: C_19  and  C_20
REMARK                            x       y       z     vdW  Elec       q    Type
REMARK                         _______ _______ _______ _____ _____    ______ ____
ROOT
ATOM      1  C   UNL     1      45.685   5.770  12.362  0.00  0.00    +0.000 C 
ATOM      2  F   UNL     1      46.486   6.088  11.298  0.00  0.00    +0.000 F 
ATOM      3  F   UNL     1      44.931   6.896  12.583  0.00  0.00    +0.000 F 
ENDROOT
BRANCH   1   4
ATOM      4  C   UNL     1      46.505   5.397  13.591  0.00  0.00    +0.000 A 
ATOM      5  C   UNL     1      47.412   6.328  14.099  0.00  0.00    +0.000 A 
ATOM      6  C   UNL     1      48.162   6.033  15.248  0.00  0.00    +0.000 A 
ATOM      7  C   UNL     1      47.958   4.776  15.832  0.00  0.00    +0.000 A 
ATOM      8  C   UNL     1      47.056   3.894  15.261  0.00  0.00    +0.000 A 
ATOM      9  N   UNL     1      46.328   4.177  14.166  0.00  0.00    +0.000 NA
BRANCH   6  10
ATOM     10  C   UNL     1      49.127   7.004  15.818  0.00  0.00    +0.000 A 
ATOM     11  C   UNL     1      48.781   7.841  16.894  0.00  0.00    +0.000 A 
ATOM     12  C   UNL     1      49.688   8.765  17.425  0.00  0.00    +0.000 A 
ATOM     13  C   UNL     1      50.984   8.874  16.905  0.00  0.00    +0.000 A 
ATOM     14  C   UNL     1      51.346   8.040  15.839  0.00  0.00    +0.000 A 
ATOM     15  C   UNL     1      50.430   7.128  15.304  0.00  0.00    +0.000 A 
BRANCH  13  16
ATOM     16  C   UNL     1      51.976   9.860  17.462  0.00  0.00    +0.000 C 
ATOM     17  F   UNL     1      52.946  10.219  16.576  0.00  0.00    +0.000 F 
ATOM     18  F   UNL     1      51.386  11.021  17.861  0.00  0.00    +0.000 F 
ATOM     19  F   UNL     1      52.631   9.380  18.555  0.00  0.00    +0.000 F 
ENDBRANCH  13  16
ENDBRANCH   6  10
ENDBRANCH   1   4
BRANCH   1  20
ATOM     20  C   UNL     1      44.728   4.628  11.952  0.00  0.00    +0.000 C 
BRANCH  20  21
ATOM     21  N   UNL     1      44.295   4.698  10.545  0.00  0.00    +0.000 N 
ATOM     22  H   UNL     1      43.289   4.791  10.415  0.00  0.00    +0.000 HD
BRANCH  21  26
ATOM     23  C   UNL     1      46.445   2.460   7.693  0.00  0.00    +0.000 A 
ATOM     24  C   UNL     1      45.662   1.792   8.637  0.00  0.00    +0.000 A 
ATOM     25  C   UNL     1      44.922   2.524   9.574  0.00  0.00    +0.000 A 
ATOM     26  C   UNL     1      44.922   3.924   9.572  0.00  0.00    +0.000 A 
ATOM     27  C   UNL     1      45.717   4.576   8.619  0.00  0.00    +0.000 A 
ATOM     28  C   UNL     1      46.477   3.856   7.692  0.00  0.00    +0.000 A 
BRANCH  23  30
ATOM     29  N   UNL     1      48.288   2.432   6.102  0.00  0.00    +0.000 N 
ATOM     30  C   UNL     1      47.294   1.727   6.719  0.00  0.00    +0.000 C 
ATOM     31  O   UNL     1      47.134   0.535   6.495  0.00  0.00    +0.000 OA
ATOM     32  H   UNL     1      48.917   1.897   5.517  0.00  0.00    +0.000 HD
ATOM     33  H   UNL     1      48.608   3.328   6.439  0.00  0.00    +0.000 HD
ENDBRANCH  23  30
ENDBRANCH  21  26
ENDBRANCH  20  21
ENDBRANCH   1  20
TORSDOF 7
ENDMDL
