MODEL 1
REMARK VINA RESULT:    -9.454      0.000      0.000
REMARK INTER + INTRA:         -14.278
REMARK INTER:                 -13.323
REMARK INTRA:                  -0.954
REMARK UNBOUND:                -0.954
REMARK  Name = 
REMARK  7 active torsions:
REMARK  status: ('A' for Active; 'I' for Inactive)
REMARK    1  A    between atoms: C_2  and  C_4
REMARK    2  A    between atoms: C_7  and  N_8
REMARK    3  A    between atoms: N_8  and  C_9
REMARK    4  A    between atoms: C_9  and  C_10
REMARK    5  A    between atoms: C_10  and  C_13
REMARK    6  A    between atoms: C_17  and  O_18
REMARK    7  A    between atoms: O_18  and  C_19
REMARK                            x       y       z     vdW  Elec       q    Type
REMARK                         _______ _______ _______ _____ _____    ______ ____
ROOT
ATOM      1  C   UNL     1      43.684   5.812  12.001  0.00  0.00    +0.000 C 
ATOM      2  F   UNL     1      43.256   6.980  11.433  0.00  0.00    +0.000 F 
ATOM      3  F   UNL     1      42.939   5.675  13.142  0.00  0.00    +0.000 F 
ENDROOT
BRANCH   1   4
ATOM      4  C   UNL     1      45.174   5.864  12.321  0.00  0.00    +0.000 A 
ATOM      5  C   UNL     1      45.991   6.810  11.686  0.00  0.00    +0.000 A 
ATOM      6  C   UNL     1      47.351   6.906  12.006  0.00  0.00    +0.000 A 
ATOM      7  C   UNL     1      47.920   6.058  12.963  0.00  0.00    +0.000 A 
ATOM      8  C   UNL     1      47.125   5.108  13.585  0.00  0.00    +0.000 A 
ATOM      9  C   UNL     1      45.773   5.011  13.261  0.00  0.00    +0.000 A 
BRANCH   8  10
ATOM     10  O   UNL     1      47.516   4.245  14.573  0.00  0.00    +0.000 OA
BRANCH  10  11
ATOM     11  C   UNL     1      47.298   4.598  15.955  0.00  0.00    +0.000 C 
ATOM     12  C   UNL     1      48.460   5.259  16.719  0.00  0.00    +0.000 C 
ATOM     13  N   UNL     1      48.332   4.201  17.699  0.00  0.00    +0.000 N 
ATOM     14  C   UNL     1      48.749   4.159  18.984  0.00  0.00    +0.000 C 
ATOM     15  N   UNL     1      48.398   3.041  19.666  0.00  0.00    +0.000 N 
ATOM     16  O   UNL     1      49.387   5.048  19.531  0.00  0.00    +0.000 OA
ATOM     17  C   UNL     1      47.418   3.400  16.923  0.00  0.00    +0.000 C 
ATOM     18  H   UNL     1      48.378   2.177  19.147  0.00  0.00    +0.000 HD
ATOM     19  H   UNL     1      48.821   2.986  20.584  0.00  0.00    +0.000 HD
ENDBRANCH  10  11
ENDBRANCH   8  10
ENDBRANCH   1   4
BRANCH   1  20
ATOM     20  C   UNL     1      43.313   4.636  11.059  0.00  0.00    +0.000 C 
BRANCH  20  21
ATOM     21  N   UNL     1      43.687   4.803   9.645  0.00  0.00    +0.000 N 
ATOM     22  H   UNL     1      42.896   4.990   9.028  0.00  0.00    +0.000 HD
BRANCH  21  26
ATOM     23  C   UNL     1      46.296   2.055   7.931  0.00  0.00    +0.000 A 
ATOM     24  C   UNL     1      46.452   3.384   7.576  0.00  0.00    +0.000 A 
ATOM     25  C   UNL     1      45.602   4.323   8.157  0.00  0.00    +0.000 A 
ATOM     26  C   UNL     1      44.640   3.938   9.100  0.00  0.00    +0.000 A 
ATOM     27  C   UNL     1      44.576   2.568   9.375  0.00  0.00    +0.000 A 
ATOM     28  N   UNL     1      45.372   1.616   8.827  0.00  0.00    +0.000 NA
BRANCH  23  30
ATOM     29  N   UNL     1      46.857  -0.278   7.628  0.00  0.00    +0.000 N 
ATOM     30  C   UNL     1      47.152   1.012   7.281  0.00  0.00    +0.000 C 
ATOM     31  O   UNL     1      48.039   1.286   6.484  0.00  0.00    +0.000 OA
ATOM     32  H   UNL     1      47.362  -1.038   7.200  0.00  0.00    +0.000 HD
ATOM     33  H   UNL     1      46.087  -0.456   8.262  0.00  0.00    +0.000 HD
ENDBRANCH  23  30
ENDBRANCH  21  26
ENDBRANCH  20  21
ENDBRANCH   1  20
TORSDOF 7
ENDMDL
MODEL 2
REMARK VINA RESULT:    -9.060      1.164      1.284
REMARK INTER + INTRA:         -13.722
REMARK INTER:                 -12.624
REMARK INTRA:                  -1.097
REMARK UNBOUND:                -0.954
REMARK  Name = 
REMARK  7 active torsions:
REMARK  status: ('A' for Active; 'I' for Inactive)
REMARK    1  A    between atoms: C_2  and  C_4
REMARK    2  A    between atoms: C_7  and  N_8
REMARK    3  A    between atoms: N_8  and  C_9
REMARK    4  A    between atoms: C_9  and  C_10
REMARK    5  A    between atoms: C_10  and  C_13
REMARK    6  A    between atoms: C_17  and  O_18
REMARK    7  A    between atoms: O_18  and  C_19
REMARK                            x       y       z     vdW  Elec       q    Type
REMARK                         _______ _______ _______ _____ _____    ______ ____
ROOT
ATOM      1  C   UNL     1      43.533   4.708  12.508  0.00  0.00    +0.000 C 
ATOM      2  F   UNL     1      42.614   5.638  12.906  0.00  0.00    +0.000 F 
ATOM      3  F   UNL     1      43.343   3.637  13.341  0.00  0.00    +0.000 F 
ENDROOT
BRANCH   1   4
ATOM      4  C   UNL     1      44.955   5.248  12.626  0.00  0.00    +0.000 A 
ATOM      5  C   UNL     1      45.359   6.326  11.827  0.00  0.00    +0.000 A 
ATOM      6  C   UNL     1      46.645   6.867  11.958  0.00  0.00    +0.000 A 
ATOM      7  C   UNL     1      47.549   6.341  12.888  0.00  0.00    +0.000 A 
ATOM      8  C   UNL     1      47.165   5.264  13.672  0.00  0.00    +0.000 A 
ATOM      9  C   UNL     1      45.888   4.724  13.535  0.00  0.00    +0.000 A 
BRANCH   8  10
ATOM     10  O   UNL     1      47.908   4.672  14.656  0.00  0.00    +0.000 OA
BRANCH  10  11
ATOM     11  C   UNL     1      47.546   4.868  16.039  0.00  0.00    +0.000 C 
ATOM     12  C   UNL     1      48.603   5.477  16.979  0.00  0.00    +0.000 C 
ATOM     13  N   UNL     1      48.424   4.317  17.826  0.00  0.00    +0.000 N 
ATOM     14  C   UNL     1      48.719   4.150  19.135  0.00  0.00    +0.000 C 
ATOM     15  N   UNL     1      48.349   2.956  19.659  0.00  0.00    +0.000 N 
ATOM     16  O   UNL     1      49.266   4.994  19.832  0.00  0.00    +0.000 OA
ATOM     17  C   UNL     1      47.621   3.577  16.885  0.00  0.00    +0.000 C 
ATOM     18  H   UNL     1      48.413   2.152  19.053  0.00  0.00    +0.000 HD
ATOM     19  H   UNL     1      48.685   2.815  20.604  0.00  0.00    +0.000 HD
ENDBRANCH  10  11
ENDBRANCH   8  10
ENDBRANCH   1   4
BRANCH   1  20
ATOM     20  C   UNL     1      43.184   4.247  11.068  0.00  0.00    +0.000 C 
BRANCH  20  21
ATOM     21  N   UNL     1      43.793   2.979  10.635  0.00  0.00    +0.000 N 
ATOM     22  H   UNL     1      44.037   2.354  11.403  0.00  0.00    +0.000 HD
BRANCH  21  26
ATOM     23  C   UNL     1      46.440   2.881   7.427  0.00  0.00    +0.000 A 
ATOM     24  C   UNL     1      46.013   4.126   7.860  0.00  0.00    +0.000 A 
ATOM     25  C   UNL     1      45.143   4.180   8.948  0.00  0.00    +0.000 A 
ATOM     26  C   UNL     1      44.741   3.011   9.607  0.00  0.00    +0.000 A 
ATOM     27  C   UNL     1      45.235   1.816   9.077  0.00  0.00    +0.000 A 
ATOM     28  N   UNL     1      46.072   1.711   8.014  0.00  0.00    +0.000 NA
BRANCH  23  30
ATOM     29  N   UNL     1      48.642   2.528   6.494  0.00  0.00    +0.000 N 
ATOM     30  C   UNL     1      47.326   2.782   6.224  0.00  0.00    +0.000 C 
ATOM     31  O   UNL     1      46.907   2.902   5.081  0.00  0.00    +0.000 OA
ATOM     32  H   UNL     1      49.294   2.406   5.734  0.00  0.00    +0.000 HD
ATOM     33  H   UNL     1      48.934   2.398   7.456  0.00  0.00    +0.000 HD
ENDBRANCH  23  30
ENDBRANCH  21  26
ENDBRANCH  20  21
ENDBRANCH   1  20
TORSDOF 7
ENDMDL
MODEL 3
REMARK VINA RESULT:    -8.136      2.585      8.554
REMARK INTER + INTRA:         -12.420
REMARK INTER:                 -11.783
REMARK INTRA:                  -0.637
REMARK UNBOUND:                -0.954
REMARK  Name = 
REMARK  7 active torsions:
REMARK  status: ('A' for Active; 'I' for Inactive)
REMARK    1  A    between atoms: C_2  and  C_4
REMARK    2  A    between atoms: C_7  and  N_8
REMARK    3  A    between atoms: N_8  and  C_9
REMARK    4  A    between atoms: C_9  and  C_10
REMARK    5  A    between atoms: C_10  and  C_13
REMARK    6  A    between atoms: C_17  and  O_18
REMARK    7  A    between atoms: O_18  and  C_19
REMARK                            x       y       z     vdW  Elec       q    Type
REMARK                         _______ _______ _______ _____ _____    ______ ____
ROOT
ATOM      1  C   UNL     1      46.593   5.129  13.571  0.00  0.00    +0.000 C 
ATOM      2  F   UNL     1      46.426   6.386  14.081  0.00  0.00    +0.000 F 
ATOM      3  F   UNL     1      47.813   5.155  12.948  0.00  0.00    +0.000 F 
ENDROOT
BRANCH   1   4
ATOM      4  C   UNL     1      45.482   4.778  12.586  0.00  0.00    +0.000 A 
ATOM      5  C   UNL     1      44.240   4.339  13.065  0.00  0.00    +0.000 A 
ATOM      6  C   UNL     1      43.193   4.060  12.177  0.00  0.00    +0.000 A 
ATOM      7  C   UNL     1      43.367   4.214  10.797  0.00  0.00    +0.000 A 
ATOM      8  C   UNL     1      44.597   4.632  10.312  0.00  0.00    +0.000 A 
ATOM      9  C   UNL     1      45.639   4.903  11.197  0.00  0.00    +0.000 A 
BRANCH   8  10
ATOM     10  O   UNL     1      44.911   4.879   9.003  0.00  0.00    +0.000 OA
BRANCH  10  11
ATOM     11  C   UNL     1      45.072   3.775   8.088  0.00  0.00    +0.000 C 
ATOM     12  C   UNL     1      45.475   2.410   8.674  0.00  0.00    +0.000 C 
ATOM     13  N   UNL     1      46.595   2.419   7.758  0.00  0.00    +0.000 N 
ATOM     14  C   UNL     1      47.349   1.393   7.304  0.00  0.00    +0.000 C 
ATOM     15  N   UNL     1      48.281   1.729   6.379  0.00  0.00    +0.000 N 
ATOM     16  O   UNL     1      47.221   0.231   7.666  0.00  0.00    +0.000 OA
ATOM     17  C   UNL     1      46.423   3.788   7.339  0.00  0.00    +0.000 C 
ATOM     18  H   UNL     1      48.723   2.630   6.484  0.00  0.00    +0.000 HD
ATOM     19  H   UNL     1      48.904   0.966   6.146  0.00  0.00    +0.000 HD
ENDBRANCH  10  11
ENDBRANCH   8  10
ENDBRANCH   1   4
BRANCH   1  20
ATOM     20  C   UNL     1      46.693   4.122  14.748  0.00  0.00    +0.000 C 
BRANCH  20  21
ATOM     21  N   UNL     1      47.291   4.642  15.987  0.00  0.00    +0.000 N 
ATOM     22  H   UNL     1      47.382   5.658  16.009  0.00  0.00    +0.000 HD
BRANCH  21  26
ATOM     23  C   UNL     1      50.609   2.529  17.340  0.00  0.00    +0.000 A 
ATOM     24  C   UNL     1      50.515   3.862  17.703  0.00  0.00    +0.000 A 
ATOM     25  C   UNL     1      49.399   4.581  17.279  0.00  0.00    +0.000 A 
ATOM     26  C   UNL     1      48.384   3.963  16.535  0.00  0.00    +0.000 A 
ATOM     27  C   UNL     1      48.594   2.615  16.228  0.00  0.00    +0.000 A 
ATOM     28  N   UNL     1      49.667   1.877  16.608  0.00  0.00    +0.000 NA
BRANCH  23  30
ATOM     29  N   UNL     1      51.601   0.414  17.967  0.00  0.00    +0.000 N 
ATOM     30  C   UNL     1      51.823   1.743  17.728  0.00  0.00    +0.000 C 
ATOM     31  O   UNL     1      52.937   2.242  17.812  0.00  0.00    +0.000 OA
ATOM     32  H   UNL     1      52.376  -0.189  18.193  0.00  0.00    +0.000 HD
ATOM     33  H   UNL     1      50.667   0.039  17.847  0.00  0.00    +0.000 HD
ENDBRANCH  23  30
ENDBRANCH  21  26
ENDBRANCH  20  21
ENDBRANCH   1  20
TORSDOF 7
ENDMDL
MODEL 4
REMARK VINA RESULT:    -8.099      3.218      4.339
REMARK INTER + INTRA:         -12.367
REMARK INTER:                 -11.666
REMARK INTRA:                  -0.702
REMARK UNBOUND:                -0.954
REMARK  Name = 
REMARK  7 active torsions:
REMARK  status: ('A' for Active; 'I' for Inactive)
REMARK    1  A    between atoms: C_2  and  C_4
REMARK    2  A    between atoms: C_7  and  N_8
REMARK    3  A    between atoms: N_8  and  C_9
REMARK    4  A    between atoms: C_9  and  C_10
REMARK    5  A    between atoms: C_10  and  C_13
REMARK    6  A    between atoms: C_17  and  O_18
REMARK    7  A    between atoms: O_18  and  C_19
REMARK                            x       y       z     vdW  Elec       q    Type
REMARK                         _______ _______ _______ _____ _____    ______ ____
ROOT
ATOM      1  C   UNL     1      43.426   5.503  12.257  0.00  0.00    +0.000 C 
ATOM      2  F   UNL     1      43.002   6.676  11.698  0.00  0.00    +0.000 F 
ATOM      3  F   UNL     1      42.544   5.253  13.275  0.00  0.00    +0.000 F 
ENDROOT
BRANCH   1   4
ATOM      4  C   UNL     1      44.852   5.622  12.784  0.00  0.00    +0.000 A 
ATOM      5  C   UNL     1      45.544   4.472  13.188  0.00  0.00    +0.000 A 
ATOM      6  C   UNL     1      46.872   4.557  13.627  0.00  0.00    +0.000 A 
ATOM      7  C   UNL     1      47.532   5.791  13.670  0.00  0.00    +0.000 A 
ATOM      8  C   UNL     1      46.851   6.937  13.287  0.00  0.00    +0.000 A 
ATOM      9  C   UNL     1      45.529   6.850  12.857  0.00  0.00    +0.000 A 
BRANCH   8  10
ATOM     10  O   UNL     1      47.367   8.203  13.223  0.00  0.00    +0.000 OA
BRANCH  10  11
ATOM     11  C   UNL     1      48.202   8.577  12.108  0.00  0.00    +0.000 C 
ATOM     12  C   UNL     1      49.045   7.475  11.441  0.00  0.00    +0.000 C 
ATOM     13  N   UNL     1      50.206   8.306  11.684  0.00  0.00    +0.000 N 
ATOM     14  C   UNL     1      51.420   8.289  11.090  0.00  0.00    +0.000 C 
ATOM     15  N   UNL     1      52.271   9.263  11.494  0.00  0.00    +0.000 N 
ATOM     16  O   UNL     1      51.760   7.478  10.238  0.00  0.00    +0.000 OA
ATOM     17  C   UNL     1      49.525   9.255  12.529  0.00  0.00    +0.000 C 
ATOM     18  H   UNL     1      52.222   9.539  12.463  0.00  0.00    +0.000 HD
ATOM     19  H   UNL     1      53.206   9.155  11.121  0.00  0.00    +0.000 HD
ENDBRANCH  10  11
ENDBRANCH   8  10
ENDBRANCH   1   4
BRANCH   1  20
ATOM     20  C   UNL     1      43.265   4.366  11.213  0.00  0.00    +0.000 C 
BRANCH  20  21
ATOM     21  N   UNL     1      43.705   4.684   9.845  0.00  0.00    +0.000 N 
ATOM     22  H   UNL     1      42.947   4.969   9.223  0.00  0.00    +0.000 HD
BRANCH  21  26
ATOM     23  C   UNL     1      46.308   2.031   7.978  0.00  0.00    +0.000 A 
ATOM     24  C   UNL     1      46.357   3.357   7.578  0.00  0.00    +0.000 A 
ATOM     25  C   UNL     1      45.509   4.265   8.208  0.00  0.00    +0.000 A 
ATOM     26  C   UNL     1      44.655   3.856   9.240  0.00  0.00    +0.000 A 
ATOM     27  C   UNL     1      44.692   2.493   9.553  0.00  0.00    +0.000 A 
ATOM     28  N   UNL     1      45.490   1.570   8.961  0.00  0.00    +0.000 NA
BRANCH  23  30
ATOM     29  N   UNL     1      46.876  -0.285   7.583  0.00  0.00    +0.000 N 
ATOM     30  C   UNL     1      47.162   1.018   7.281  0.00  0.00    +0.000 C 
ATOM     31  O   UNL     1      48.040   1.325   6.487  0.00  0.00    +0.000 OA
ATOM     32  H   UNL     1      47.381  -1.027   7.122  0.00  0.00    +0.000 HD
ATOM     33  H   UNL     1      46.113  -0.491   8.217  0.00  0.00    +0.000 HD
ENDBRANCH  23  30
ENDBRANCH  21  26
ENDBRANCH  20  21
ENDBRANCH   1  20
TORSDOF 7
ENDMDL
MODEL 5
REMARK VINA RESULT:    -8.085      2.026      7.852
REMARK INTER + INTRA:         -12.348
REMARK INTER:                 -11.294
REMARK INTRA:                  -1.054
REMARK UNBOUND:                -0.954
REMARK  Name = 
REMARK  7 active torsions:
REMARK  status: ('A' for Active; 'I' for Inactive)
REMARK    1  A    between atoms: C_2  and  C_4
REMARK    2  A    between atoms: C_7  and  N_8
REMARK    3  A    between atoms: N_8  and  C_9
REMARK    4  A    between atoms: C_9  and  C_10
REMARK    5  A    between atoms: C_10  and  C_13
REMARK    6  A    between atoms: C_17  and  O_18
REMARK    7  A    between atoms: O_18  and  C_19
REMARK                            x       y       z     vdW  Elec       q    Type
REMARK                         _______ _______ _______ _____ _____    ______ ____
ROOT
ATOM      1  C   UNL     1      45.581   7.828  12.087  0.00  0.00    +0.000 C 
ATOM      2  F   UNL     1      45.302   8.338  13.324  0.00  0.00    +0.000 F 
ATOM      3  F   UNL     1      45.340   8.856  11.214  0.00  0.00    +0.000 F 
ENDROOT
BRANCH   1   4
ATOM      4  C   UNL     1      44.700   6.623  11.772  0.00  0.00    +0.000 A 
ATOM      5  C   UNL     1      43.618   6.313  12.609  0.00  0.00    +0.000 A 
ATOM      6  C   UNL     1      42.769   5.241  12.306  0.00  0.00    +0.000 A 
ATOM      7  C   UNL     1      42.984   4.459  11.165  0.00  0.00    +0.000 A 
ATOM      8  C   UNL     1      44.060   4.747  10.339  0.00  0.00    +0.000 A 
ATOM      9  C   UNL     1      44.907   5.811  10.646  0.00  0.00    +0.000 A 
BRANCH   8  10
ATOM     10  O   UNL     1      44.375   4.116   9.167  0.00  0.00    +0.000 OA
BRANCH  10  11
ATOM     11  C   UNL     1      45.624   3.403   9.055  0.00  0.00    +0.000 C 
ATOM     12  C   UNL     1      46.292   3.339   7.668  0.00  0.00    +0.000 C 
ATOM     13  N   UNL     1      46.290   1.898   7.805  0.00  0.00    +0.000 N 
ATOM     14  C   UNL     1      47.039   0.969   7.171  0.00  0.00    +0.000 C 
ATOM     15  N   UNL     1      46.850  -0.306   7.591  0.00  0.00    +0.000 N 
ATOM     16  O   UNL     1      47.848   1.221   6.288  0.00  0.00    +0.000 OA
ATOM     17  C   UNL     1      45.455   1.870   8.980  0.00  0.00    +0.000 C 
ATOM     18  H   UNL     1      45.914  -0.562   7.867  0.00  0.00    +0.000 HD
ATOM     19  H   UNL     1      47.335  -0.989   7.021  0.00  0.00    +0.000 HD
ENDBRANCH  10  11
ENDBRANCH   8  10
ENDBRANCH   1   4
BRANCH   1  20
ATOM     20  C   UNL     1      47.095   7.499  12.013  0.00  0.00    +0.000 C 
BRANCH  20  21
ATOM     21  N   UNL     1      47.824   7.542  13.291  0.00  0.00    +0.000 N 
ATOM     22  H   UNL     1      48.732   8.004  13.233  0.00  0.00    +0.000 HD
BRANCH  21  26
ATOM     23  C   UNL     1      47.731   4.330  15.932  0.00  0.00    +0.000 A 
ATOM     24  C   UNL     1      46.993   4.214  14.765  0.00  0.00    +0.000 A 
ATOM     25  C   UNL     1      47.030   5.270  13.857  0.00  0.00    +0.000 A 
ATOM     26  C   UNL     1      47.818   6.403  14.101  0.00  0.00    +0.000 A 
ATOM     27  C   UNL     1      48.515   6.406  15.314  0.00  0.00    +0.000 A 
ATOM     28  N   UNL     1      48.501   5.408  16.234  0.00  0.00    +0.000 NA
BRANCH  23  30
ATOM     29  N   UNL     1      48.872   2.687  17.290  0.00  0.00    +0.000 N 
ATOM     30  C   UNL     1      47.666   3.240  16.957  0.00  0.00    +0.000 C 
ATOM     31  O   UNL     1      46.618   2.878  17.474  0.00  0.00    +0.000 OA
ATOM     32  H   UNL     1      48.915   1.976  18.003  0.00  0.00    +0.000 HD
ATOM     33  H   UNL     1      49.717   3.047  16.862  0.00  0.00    +0.000 HD
ENDBRANCH  23  30
ENDBRANCH  21  26
ENDBRANCH  20  21
ENDBRANCH   1  20
TORSDOF 7
ENDMDL
MODEL 6
REMARK VINA RESULT:    -8.032      1.832      2.120
REMARK INTER + INTRA:         -12.274
REMARK INTER:                 -11.542
REMARK INTRA:                  -0.731
REMARK UNBOUND:                -0.954
REMARK  Name = 
REMARK  7 active torsions:
REMARK  status: ('A' for Active; 'I' for Inactive)
REMARK    1  A    between atoms: C_2  and  C_4
REMARK    2  A    between atoms: C_7  and  N_8
REMARK    3  A    between atoms: N_8  and  C_9
REMARK    4  A    between atoms: C_9  and  C_10
REMARK    5  A    between atoms: C_10  and  C_13
REMARK    6  A    between atoms: C_17  and  O_18
REMARK    7  A    between atoms: O_18  and  C_19
REMARK                            x       y       z     vdW  Elec       q    Type
REMARK                         _______ _______ _______ _____ _____    ______ ____
ROOT
ATOM      1  C   UNL     1      43.562   4.764  12.600  0.00  0.00    +0.000 C 
ATOM      2  F   UNL     1      42.392   5.459  12.479  0.00  0.00    +0.000 F 
ATOM      3  F   UNL     1      43.450   4.077  13.780  0.00  0.00    +0.000 F 
ENDROOT
BRANCH   1   4
ATOM      4  C   UNL     1      44.765   5.701  12.623  0.00  0.00    +0.000 A 
ATOM      5  C   UNL     1      44.689   6.949  11.989  0.00  0.00    +0.000 A 
ATOM      6  C   UNL     1      45.766   7.842  12.043  0.00  0.00    +0.000 A 
ATOM      7  C   UNL     1      46.938   7.507  12.731  0.00  0.00    +0.000 A 
ATOM      8  C   UNL     1      47.030   6.269  13.349  0.00  0.00    +0.000 A 
ATOM      9  C   UNL     1      45.959   5.379  13.288  0.00  0.00    +0.000 A 
BRANCH   8  10
ATOM     10  O   UNL     1      48.080   5.813  14.100  0.00  0.00    +0.000 OA
BRANCH  10  11
ATOM     11  C   UNL     1      48.476   6.536  15.283  0.00  0.00    +0.000 C 
ATOM     12  C   UNL     1      49.967   6.887  15.445  0.00  0.00    +0.000 C 
ATOM     13  N   UNL     1      49.921   6.212  16.724  0.00  0.00    +0.000 N 
ATOM     14  C   UNL     1      50.744   6.324  17.791  0.00  0.00    +0.000 C 
ATOM     15  N   UNL     1      50.375   5.607  18.880  0.00  0.00    +0.000 N 
ATOM     16  O   UNL     1      51.750   7.021  17.814  0.00  0.00    +0.000 OA
ATOM     17  C   UNL     1      48.610   5.642  16.536  0.00  0.00    +0.000 C 
ATOM     18  H   UNL     1      49.938   4.713  18.712  0.00  0.00    +0.000 HD
ATOM     19  H   UNL     1      51.069   5.619  19.618  0.00  0.00    +0.000 HD
ENDBRANCH  10  11
ENDBRANCH   8  10
ENDBRANCH   1   4
BRANCH   1  20
ATOM     20  C   UNL     1      43.639   3.717  11.457  0.00  0.00    +0.000 C 
BRANCH  20  21
ATOM     21  N   UNL     1      43.720   4.261  10.093  0.00  0.00    +0.000 N 
ATOM     22  H   UNL     1      42.814   4.492   9.685  0.00  0.00    +0.000 HD
BRANCH  21  26
ATOM     23  C   UNL     1      46.585   2.705   7.509  0.00  0.00    +0.000 A 
ATOM     24  C   UNL     1      45.920   1.811   8.332  0.00  0.00    +0.000 A 
ATOM     25  C   UNL     1      44.941   2.310   9.188  0.00  0.00    +0.000 A 
ATOM     26  C   UNL     1      44.614   3.673   9.192  0.00  0.00    +0.000 A 
ATOM     27  C   UNL     1      45.356   4.476   8.320  0.00  0.00    +0.000 A 
ATOM     28  N   UNL     1      46.325   4.040   7.478  0.00  0.00    +0.000 NA
BRANCH  23  30
ATOM     29  N   UNL     1      47.947   3.000   5.533  0.00  0.00    +0.000 N 
ATOM     30  C   UNL     1      47.685   2.213   6.620  0.00  0.00    +0.000 C 
ATOM     31  O   UNL     1      48.317   1.191   6.852  0.00  0.00    +0.000 OA
ATOM     32  H   UNL     1      48.702   2.757   4.910  0.00  0.00    +0.000 HD
ATOM     33  H   UNL     1      47.422   3.858   5.405  0.00  0.00    +0.000 HD
ENDBRANCH  23  30
ENDBRANCH  21  26
ENDBRANCH  20  21
ENDBRANCH   1  20
TORSDOF 7
ENDMDL
MODEL 7
REMARK VINA RESULT:    -7.993      2.352      2.777
REMARK INTER + INTRA:         -12.218
REMARK INTER:                 -11.515
REMARK INTRA:                  -0.704
REMARK UNBOUND:                -0.954
REMARK  Name = 
REMARK  7 active torsions:
REMARK  status: ('A' for Active; 'I' for Inactive)
REMARK    1  A    between atoms: C_2  and  C_4
REMARK    2  A    between atoms: C_7  and  N_8
REMARK    3  A    between atoms: N_8  and  C_9
REMARK    4  A    between atoms: C_9  and  C_10
REMARK    5  A    between atoms: C_10  and  C_13
REMARK    6  A    between atoms: C_17  and  O_18
REMARK    7  A    between atoms: O_18  and  C_19
REMARK                            x       y       z     vdW  Elec       q    Type
REMARK                         _______ _______ _______ _____ _____    ______ ____
ROOT
ATOM      1  C   UNL     1      44.071   4.975  12.494  0.00  0.00    +0.000 C 
ATOM      2  F   UNL     1      43.207   5.759  13.205  0.00  0.00    +0.000 F 
ATOM      3  F   UNL     1      44.050   3.758  13.123  0.00  0.00    +0.000 F 
ENDROOT
BRANCH   1   4
ATOM      4  C   UNL     1      45.478   5.564  12.487  0.00  0.00    +0.000 A 
ATOM      5  C   UNL     1      45.914   6.314  11.386  0.00  0.00    +0.000 A 
ATOM      6  C   UNL     1      47.184   6.905  11.385  0.00  0.00    +0.000 A 
ATOM      7  C   UNL     1      48.041   6.758  12.483  0.00  0.00    +0.000 A 
ATOM      8  C   UNL     1      47.626   6.005  13.570  0.00  0.00    +0.000 A 
ATOM      9  C   UNL     1      46.364   5.413  13.566  0.00  0.00    +0.000 A 
BRANCH   8  10
ATOM     10  O   UNL     1      48.319   5.810  14.734  0.00  0.00    +0.000 OA
BRANCH  10  11
ATOM     11  C   UNL     1      49.030   6.913  15.334  0.00  0.00    +0.000 C 
ATOM     12  C   UNL     1      48.988   7.045  16.867  0.00  0.00    +0.000 C 
ATOM     13  N   UNL     1      48.486   8.389  16.672  0.00  0.00    +0.000 N 
ATOM     14  C   UNL     1      48.487   9.442  17.520  0.00  0.00    +0.000 C 
ATOM     15  N   UNL     1      48.011  10.600  16.998  0.00  0.00    +0.000 N 
ATOM     16  O   UNL     1      48.890   9.398  18.674  0.00  0.00    +0.000 OA
ATOM     17  C   UNL     1      48.268   8.254  15.254  0.00  0.00    +0.000 C 
ATOM     18  H   UNL     1      47.252  10.525  16.337  0.00  0.00    +0.000 HD
ATOM     19  H   UNL     1      47.915  11.336  17.686  0.00  0.00    +0.000 HD
ENDBRANCH  10  11
ENDBRANCH   8  10
ENDBRANCH   1   4
BRANCH   1  20
ATOM     20  C   UNL     1      43.499   4.771  11.066  0.00  0.00    +0.000 C 
BRANCH  20  21
ATOM     21  N   UNL     1      43.686   3.432  10.485  0.00  0.00    +0.000 N 
ATOM     22  H   UNL     1      43.624   2.674  11.164  0.00  0.00    +0.000 HD
BRANCH  21  26
ATOM     23  C   UNL     1      46.503   2.688   7.516  0.00  0.00    +0.000 A 
ATOM     24  C   UNL     1      46.084   3.999   7.679  0.00  0.00    +0.000 A 
ATOM     25  C   UNL     1      45.158   4.272   8.684  0.00  0.00    +0.000 A 
ATOM     26  C   UNL     1      44.690   3.255   9.527  0.00  0.00    +0.000 A 
ATOM     27  C   UNL     1      45.183   1.973   9.262  0.00  0.00    +0.000 A 
ATOM     28  N   UNL     1      46.075   1.657   8.290  0.00  0.00    +0.000 NA
BRANCH  23  30
ATOM     29  N   UNL     1      47.322   3.115   5.281  0.00  0.00    +0.000 N 
ATOM     30  C   UNL     1      47.452   2.350   6.407  0.00  0.00    +0.000 C 
ATOM     31  O   UNL     1      48.293   1.467   6.502  0.00  0.00    +0.000 OA
ATOM     32  H   UNL     1      47.953   2.975   4.507  0.00  0.00    +0.000 HD
ATOM     33  H   UNL     1      46.636   3.861   5.265  0.00  0.00    +0.000 HD
ENDBRANCH  23  30
ENDBRANCH  21  26
ENDBRANCH  20  21
ENDBRANCH   1  20
TORSDOF 7
ENDMDL
MODEL 8
REMARK VINA RESULT:    -7.632      1.997      8.713
REMARK INTER + INTRA:         -11.710
REMARK INTER:                 -11.239
REMARK INTRA:                  -0.471
REMARK UNBOUND:                -0.954
REMARK  Name = 
REMARK  7 active torsions:
REMARK  status: ('A' for Active; 'I' for Inactive)
REMARK    1  A    between atoms: C_2  and  C_4
REMARK    2  A    between atoms: C_7  and  N_8
REMARK    3  A    between atoms: N_8  and  C_9
REMARK    4  A    between atoms: C_9  and  C_10
REMARK    5  A    between atoms: C_10  and  C_13
REMARK    6  A    between atoms: C_17  and  O_18
REMARK    7  A    between atoms: O_18  and  C_19
REMARK                            x       y       z     vdW  Elec       q    Type
REMARK                         _______ _______ _______ _____ _____    ______ ____
ROOT
ATOM      1  C   UNL     1      46.722   6.543  12.337  0.00  0.00    +0.000 C 
ATOM      2  F   UNL     1      46.486   7.755  12.923  0.00  0.00    +0.000 F 
ATOM      3  F   UNL     1      47.550   6.812  11.279  0.00  0.00    +0.000 F 
ENDROOT
BRANCH   1   4
ATOM      4  C   UNL     1      45.426   5.892  11.867  0.00  0.00    +0.000 A 
ATOM      5  C   UNL     1      44.242   6.641  11.833  0.00  0.00    +0.000 A 
ATOM      6  C   UNL     1      43.053   6.073  11.357  0.00  0.00    +0.000 A 
ATOM      7  C   UNL     1      43.025   4.747  10.907  0.00  0.00    +0.000 A 
ATOM      8  C   UNL     1      44.187   3.992  10.951  0.00  0.00    +0.000 A 
ATOM      9  C   UNL     1      45.367   4.558  11.431  0.00  0.00    +0.000 A 
BRANCH   8  10
ATOM     10  O   UNL     1      44.337   2.708  10.504  0.00  0.00    +0.000 OA
BRANCH  10  11
ATOM     11  C   UNL     1      44.498   2.459   9.092  0.00  0.00    +0.000 C 
ATOM     12  C   UNL     1      45.606   1.481   8.657  0.00  0.00    +0.000 C 
ATOM     13  N   UNL     1      46.120   2.540   7.815  0.00  0.00    +0.000 N 
ATOM     14  C   UNL     1      46.933   2.469   6.737  0.00  0.00    +0.000 C 
ATOM     15  N   UNL     1      47.164   3.650   6.112  0.00  0.00    +0.000 N 
ATOM     16  O   UNL     1      47.433   1.434   6.318  0.00  0.00    +0.000 OA
ATOM     17  C   UNL     1      45.271   3.574   8.354  0.00  0.00    +0.000 C 
ATOM     18  H   UNL     1      47.222   4.471   6.696  0.00  0.00    +0.000 HD
ATOM     19  H   UNL     1      47.865   3.585   5.385  0.00  0.00    +0.000 HD
ENDBRANCH  10  11
ENDBRANCH   8  10
ENDBRANCH   1   4
BRANCH   1  20
ATOM     20  C   UNL     1      47.514   5.655  13.333  0.00  0.00    +0.000 C 
BRANCH  20  21
ATOM     21  N   UNL     1      46.749   5.136  14.478  0.00  0.00    +0.000 N 
ATOM     22  H   UNL     1      45.855   5.606  14.625  0.00  0.00    +0.000 HD
BRANCH  21  26
ATOM     23  C   UNL     1      48.698   4.515  18.100  0.00  0.00    +0.000 A 
ATOM     24  C   UNL     1      47.849   3.515  17.657  0.00  0.00    +0.000 A 
ATOM     25  C   UNL     1      47.204   3.694  16.434  0.00  0.00    +0.000 A 
ATOM     26  C   UNL     1      47.435   4.838  15.659  0.00  0.00    +0.000 A 
ATOM     27  C   UNL     1      48.310   5.779  16.213  0.00  0.00    +0.000 A 
ATOM     28  N   UNL     1      48.951   5.655  17.402  0.00  0.00    +0.000 NA
BRANCH  23  30
ATOM     29  N   UNL     1      48.581   3.831  20.416  0.00  0.00    +0.000 N 
ATOM     30  C   UNL     1      49.360   4.383  19.436  0.00  0.00    +0.000 C 
ATOM     31  O   UNL     1      50.517   4.725  19.640  0.00  0.00    +0.000 OA
ATOM     32  H   UNL     1      48.970   3.671  21.332  0.00  0.00    +0.000 HD
ATOM     33  H   UNL     1      47.641   3.528  20.189  0.00  0.00    +0.000 HD
ENDBRANCH  23  30
ENDBRANCH  21  26
ENDBRANCH  20  21
ENDBRANCH   1  20
TORSDOF 7
ENDMDL
MODEL 9
REMARK VINA RESULT:    -7.606      3.530      4.233
REMARK INTER + INTRA:         -11.672
REMARK INTER:                 -10.995
REMARK INTRA:                  -0.677
REMARK UNBOUND:                -0.954
REMARK  Name = 
REMARK  7 active torsions:
REMARK  status: ('A' for Active; 'I' for Inactive)
REMARK    1  A    between atoms: C_2  and  C_4
REMARK    2  A    between atoms: C_7  and  N_8
REMARK    3  A    between atoms: N_8  and  C_9
REMARK    4  A    between atoms: C_9  and  C_10
REMARK    5  A    between atoms: C_10  and  C_13
REMARK    6  A    between atoms: C_17  and  O_18
REMARK    7  A    between atoms: O_18  and  C_19
REMARK                            x       y       z     vdW  Elec       q    Type
REMARK                         _______ _______ _______ _____ _____    ______ ____
ROOT
ATOM      1  C   UNL     1      44.271   3.966  12.534  0.00  0.00    +0.000 C 
ATOM      2  F   UNL     1      43.478   3.988  13.647  0.00  0.00    +0.000 F 
ATOM      3  F   UNL     1      45.166   2.952  12.752  0.00  0.00    +0.000 F 
ENDROOT
BRANCH   1   4
ATOM      4  C   UNL     1      44.987   5.297  12.335  0.00  0.00    +0.000 A 
ATOM      5  C   UNL     1      44.245   6.454  12.059  0.00  0.00    +0.000 A 
ATOM      6  C   UNL     1      44.882   7.694  11.924  0.00  0.00    +0.000 A 
ATOM      7  C   UNL     1      46.271   7.801  12.061  0.00  0.00    +0.000 A 
ATOM      8  C   UNL     1      47.017   6.661  12.319  0.00  0.00    +0.000 A 
ATOM      9  C   UNL     1      46.381   5.428  12.447  0.00  0.00    +0.000 A 
BRANCH   8  10
ATOM     10  O   UNL     1      48.368   6.606  12.530  0.00  0.00    +0.000 OA
BRANCH  10  11
ATOM     11  C   UNL     1      49.135   7.828  12.561  0.00  0.00    +0.000 C 
ATOM     12  C   UNL     1      50.347   7.939  11.617  0.00  0.00    +0.000 C 
ATOM     13  N   UNL     1      51.148   8.232  12.786  0.00  0.00    +0.000 N 
ATOM     14  C   UNL     1      52.351   8.841  12.878  0.00  0.00    +0.000 C 
ATOM     15  N   UNL     1      52.801   9.039  14.142  0.00  0.00    +0.000 N 
ATOM     16  O   UNL     1      53.011   9.213  11.916  0.00  0.00    +0.000 OA
ATOM     17  C   UNL     1      50.123   7.906  13.745  0.00  0.00    +0.000 C 
ATOM     18  H   UNL     1      52.577   8.328  14.822  0.00  0.00    +0.000 HD
ATOM     19  H   UNL     1      53.750   9.389  14.176  0.00  0.00    +0.000 HD
ENDBRANCH  10  11
ENDBRANCH   8  10
ENDBRANCH   1   4
BRANCH   1  20
ATOM     20  C   UNL     1      43.402   3.564  11.313  0.00  0.00    +0.000 C 
BRANCH  20  21
ATOM     21  N   UNL     1      43.706   4.258  10.052  0.00  0.00    +0.000 N 
ATOM     22  H   UNL     1      42.889   4.666   9.597  0.00  0.00    +0.000 HD
BRANCH  21  26
ATOM     23  C   UNL     1      46.610   2.697   7.516  0.00  0.00    +0.000 A 
ATOM     24  C   UNL     1      45.937   1.805   8.335  0.00  0.00    +0.000 A 
ATOM     25  C   UNL     1      44.944   2.306   9.176  0.00  0.00    +0.000 A 
ATOM     26  C   UNL     1      44.613   3.668   9.167  0.00  0.00    +0.000 A 
ATOM     27  C   UNL     1      45.364   4.468   8.300  0.00  0.00    +0.000 A 
ATOM     28  N   UNL     1      46.346   4.030   7.473  0.00  0.00    +0.000 NA
BRANCH  23  30
ATOM     29  N   UNL     1      47.989   2.977   5.550  0.00  0.00    +0.000 N 
ATOM     30  C   UNL     1      47.723   2.202   6.645  0.00  0.00    +0.000 C 
ATOM     31  O   UNL     1      48.362   1.190   6.897  0.00  0.00    +0.000 OA
ATOM     32  H   UNL     1      48.752   2.732   4.938  0.00  0.00    +0.000 HD
ATOM     33  H   UNL     1      47.458   3.828   5.405  0.00  0.00    +0.000 HD
ENDBRANCH  23  30
ENDBRANCH  21  26
ENDBRANCH  20  21
ENDBRANCH   1  20
TORSDOF 7
ENDMDL
