MODEL 1
REMARK VINA RESULT:    -9.305      0.000      0.000
REMARK INTER + INTRA:         -12.628
REMARK INTER:                 -12.025
REMARK INTRA:                  -0.603
REMARK UNBOUND:                -0.603
REMARK  Name = 
REMARK  5 active torsions:
REMARK  status: ('A' for Active; 'I' for Inactive)
REMARK    1  A    between atoms: C_2  and  C_4
REMARK    2  A    between atoms: C_7  and  O_8
REMARK    3  A    between atoms: O_8  and  C_9
REMARK    4  A    between atoms: C_9  and  C_10
REMARK    5  A    between atoms: C_15  and  N_16
REMARK                            x       y       z     vdW  Elec       q    Type
REMARK                         _______ _______ _______ _____ _____    ______ ____
ROOT
ATOM      1  C   UNL     1      43.815   4.932  11.127  0.00  0.00    +0.000 C 
ATOM      2  C   UNL     1      43.311   3.886  12.108  0.00  0.00    +0.000 C 
ATOM      3  C   UNL     1      42.452   5.064  11.791  0.00  0.00    +0.000 C 
ENDROOT
BRANCH   1   4
ATOM      4  C   UNL     1      44.944   5.826  11.614  0.00  0.00    +0.000 A 
ATOM      5  C   UNL     1      44.951   7.206  11.381  0.00  0.00    +0.000 A 
ATOM      6  C   UNL     1      45.764   8.040  12.144  0.00  0.00    +0.000 A 
ATOM      7  C   UNL     1      46.604   7.495  13.116  0.00  0.00    +0.000 A 
ATOM      8  F   UNL     1      47.301   8.346  13.885  0.00  0.00    +0.000 F 
ATOM      9  C   UNL     1      46.741   6.111  13.286  0.00  0.00    +0.000 A 
ATOM     10  C   UNL     1      45.919   5.304  12.488  0.00  0.00    +0.000 A 
BRANCH   9  11
ATOM     11  N   UNL     1      47.569   5.520  14.225  0.00  0.00    +0.000 N 
ATOM     12  C   UNL     1      47.261   4.217  14.811  0.00  0.00    +0.000 C 
ATOM     13  C   UNL     1      47.052   4.364  16.306  0.00  0.00    +0.000 C 
ATOM     14  C   UNL     1      48.217   5.120  16.912  0.00  0.00    +0.000 C 
ATOM     15  F   UNL     1      47.982   5.314  18.238  0.00  0.00    +0.000 F 
ATOM     16  F   UNL     1      49.339   4.354  16.840  0.00  0.00    +0.000 F 
ATOM     17  C   UNL     1      48.481   6.458  16.254  0.00  0.00    +0.000 C 
ATOM     18  C   UNL     1      48.715   6.244  14.768  0.00  0.00    +0.000 C 
ENDBRANCH   9  11
ENDBRANCH   1   4
BRANCH   1  19
ATOM     19  O   UNL     1      43.670   4.707   9.712  0.00  0.00    +0.000 OA
BRANCH  19  23
ATOM     20  C   UNL     1      46.515   2.532   7.733  0.00  0.00    +0.000 A 
ATOM     21  C   UNL     1      45.674   1.898   8.650  0.00  0.00    +0.000 A 
ATOM     22  C   UNL     1      44.740   2.661   9.339  0.00  0.00    +0.000 A 
ATOM     23  C   UNL     1      44.691   4.020   9.084  0.00  0.00    +0.000 A 
ATOM     24  N   UNL     1      45.545   4.671   8.260  0.00  0.00    +0.000 NA
ATOM     25  C   UNL     1      46.447   3.909   7.603  0.00  0.00    +0.000 A 
BRANCH  20  27
ATOM     26  N   UNL     1      48.497   2.433   6.374  0.00  0.00    +0.000 N 
ATOM     27  C   UNL     1      47.408   1.765   6.845  0.00  0.00    +0.000 C 
ATOM     28  O   UNL     1      47.212   0.581   6.609  0.00  0.00    +0.000 OA
ATOM     29  H   UNL     1      49.193   1.877   5.886  0.00  0.00    +0.000 HD
ATOM     30  H   UNL     1      48.808   3.308   6.772  0.00  0.00    +0.000 HD
ENDBRANCH  20  27
ENDBRANCH  19  23
ENDBRANCH   1  19
TORSDOF 5
ENDMDL
MODEL 2
REMARK VINA RESULT:    -9.001      1.485      2.105
REMARK INTER + INTRA:         -12.235
REMARK INTER:                 -11.448
REMARK INTRA:                  -0.787
REMARK UNBOUND:                -0.603
REMARK  Name = 
REMARK  5 active torsions:
REMARK  status: ('A' for Active; 'I' for Inactive)
REMARK    1  A    between atoms: C_2  and  C_4
REMARK    2  A    between atoms: C_7  and  O_8
REMARK    3  A    between atoms: O_8  and  C_9
REMARK    4  A    between atoms: C_9  and  C_10
REMARK    5  A    between atoms: C_15  and  N_16
REMARK                            x       y       z     vdW  Elec       q    Type
REMARK                         _______ _______ _______ _____ _____    ______ ____
ROOT
ATOM      1  C   UNL     1      44.471   4.447  11.934  0.00  0.00    +0.000 C 
ATOM      2  C   UNL     1      43.696   3.280  12.524  0.00  0.00    +0.000 C 
ATOM      3  C   UNL     1      43.191   4.669  12.727  0.00  0.00    +0.000 C 
ENDROOT
BRANCH   1   4
ATOM      4  C   UNL     1      45.797   4.781  12.596  0.00  0.00    +0.000 A 
ATOM      5  C   UNL     1      46.589   5.856  12.173  0.00  0.00    +0.000 A 
ATOM      6  C   UNL     1      47.574   6.371  13.011  0.00  0.00    +0.000 A 
ATOM      7  C   UNL     1      47.802   5.789  14.259  0.00  0.00    +0.000 A 
ATOM      8  F   UNL     1      48.700   6.377  15.065  0.00  0.00    +0.000 F 
ATOM      9  C   UNL     1      47.138   4.625  14.666  0.00  0.00    +0.000 A 
ATOM     10  C   UNL     1      46.166   4.126  13.788  0.00  0.00    +0.000 A 
BRANCH   9  11
ATOM     11  N   UNL     1      47.336   4.001  15.886  0.00  0.00    +0.000 N 
ATOM     12  C   UNL     1      46.889   4.604  17.140  0.00  0.00    +0.000 C 
ATOM     13  C   UNL     1      48.086   4.887  18.027  0.00  0.00    +0.000 C 
ATOM     14  C   UNL     1      48.943   3.643  18.143  0.00  0.00    +0.000 C 
ATOM     15  F   UNL     1      50.052   3.929  18.876  0.00  0.00    +0.000 F 
ATOM     16  F   UNL     1      48.266   2.693  18.845  0.00  0.00    +0.000 F 
ATOM     17  C   UNL     1      49.365   3.070  16.806  0.00  0.00    +0.000 C 
ATOM     18  C   UNL     1      48.127   2.777  15.977  0.00  0.00    +0.000 C 
ENDBRANCH   9  11
ENDBRANCH   1   4
BRANCH   1  19
ATOM     19  O   UNL     1      44.278   4.802  10.551  0.00  0.00    +0.000 OA
BRANCH  19  23
ATOM     20  C   UNL     1      46.417   2.585   7.858  0.00  0.00    +0.000 A 
ATOM     21  C   UNL     1      46.429   3.979   7.771  0.00  0.00    +0.000 A 
ATOM     22  C   UNL     1      45.666   4.711   8.671  0.00  0.00    +0.000 A 
ATOM     23  C   UNL     1      44.925   4.020   9.613  0.00  0.00    +0.000 A 
ATOM     24  N   UNL     1      44.833   2.671   9.670  0.00  0.00    +0.000 NA
ATOM     25  C   UNL     1      45.582   1.979   8.782  0.00  0.00    +0.000 A 
BRANCH  20  27
ATOM     26  N   UNL     1      48.390   2.398   6.496  0.00  0.00    +0.000 N 
ATOM     27  C   UNL     1      47.329   1.752   7.052  0.00  0.00    +0.000 C 
ATOM     28  O   UNL     1      47.171   0.543   6.953  0.00  0.00    +0.000 OA
ATOM     29  H   UNL     1      49.101   1.814   6.064  0.00  0.00    +0.000 HD
ATOM     30  H   UNL     1      48.675   3.323   6.788  0.00  0.00    +0.000 HD
ENDBRANCH  20  27
ENDBRANCH  19  23
ENDBRANCH   1  19
TORSDOF 5
ENDMDL
MODEL 3
REMARK VINA RESULT:    -8.990      1.857      2.396
REMARK INTER + INTRA:         -12.221
REMARK INTER:                 -11.071
REMARK INTRA:                  -1.151
REMARK UNBOUND:                -0.603
REMARK  Name = 
REMARK  5 active torsions:
REMARK  status: ('A' for Active; 'I' for Inactive)
REMARK    1  A    between atoms: C_2  and  C_4
REMARK    2  A    between atoms: C_7  and  O_8
REMARK    3  A    between atoms: O_8  and  C_9
REMARK    4  A    between atoms: C_9  and  C_10
REMARK    5  A    between atoms: C_15  and  N_16
REMARK                            x       y       z     vdW  Elec       q    Type
REMARK                         _______ _______ _______ _____ _____    ______ ____
ROOT
ATOM      1  C   UNL     1      44.372   4.492  11.549  0.00  0.00    +0.000 C 
ATOM      2  C   UNL     1      44.824   3.420  12.527  0.00  0.00    +0.000 C 
ATOM      3  C   UNL     1      43.498   4.077  12.724  0.00  0.00    +0.000 C 
ENDROOT
BRANCH   1   4
ATOM      4  C   UNL     1      45.098   5.825  11.626  0.00  0.00    +0.000 A 
ATOM      5  C   UNL     1      44.441   7.042  11.411  0.00  0.00    +0.000 A 
ATOM      6  C   UNL     1      45.010   8.233  11.855  0.00  0.00    +0.000 A 
ATOM      7  C   UNL     1      46.257   8.218  12.480  0.00  0.00    +0.000 A 
ATOM      8  F   UNL     1      46.722   9.379  12.969  0.00  0.00    +0.000 F 
ATOM      9  C   UNL     1      47.019   7.047  12.588  0.00  0.00    +0.000 A 
ATOM     10  C   UNL     1      46.420   5.873  12.113  0.00  0.00    +0.000 A 
BRANCH   9  11
ATOM     11  N   UNL     1      48.266   6.981  13.186  0.00  0.00    +0.000 N 
ATOM     12  C   UNL     1      48.423   6.671  14.605  0.00  0.00    +0.000 C 
ATOM     13  C   UNL     1      49.060   7.848  15.319  0.00  0.00    +0.000 C 
ATOM     14  C   UNL     1      50.310   8.279  14.578  0.00  0.00    +0.000 C 
ATOM     15  F   UNL     1      50.829   9.382  15.182  0.00  0.00    +0.000 F 
ATOM     16  F   UNL     1      51.258   7.310  14.691  0.00  0.00    +0.000 F 
ATOM     17  C   UNL     1      50.074   8.579  13.113  0.00  0.00    +0.000 C 
ATOM     18  C   UNL     1      49.467   7.357  12.446  0.00  0.00    +0.000 C 
ENDBRANCH   9  11
ENDBRANCH   1   4
BRANCH   1  19
ATOM     19  O   UNL     1      43.763   4.106  10.303  0.00  0.00    +0.000 OA
BRANCH  19  23
ATOM     20  C   UNL     1      46.391   2.426   7.654  0.00  0.00    +0.000 A 
ATOM     21  C   UNL     1      46.191   3.808   7.648  0.00  0.00    +0.000 A 
ATOM     22  C   UNL     1      45.267   4.354   8.529  0.00  0.00    +0.000 A 
ATOM     23  C   UNL     1      44.583   3.497   9.372  0.00  0.00    +0.000 A 
ATOM     24  N   UNL     1      44.700   2.149   9.346  0.00  0.00    +0.000 NA
ATOM     25  C   UNL     1      45.603   1.640   8.478  0.00  0.00    +0.000 A 
BRANCH  20  27
ATOM     26  N   UNL     1      48.496   2.615   6.508  0.00  0.00    +0.000 N 
ATOM     27  C   UNL     1      47.471   1.797   6.872  0.00  0.00    +0.000 C 
ATOM     28  O   UNL     1      47.472   0.598   6.630  0.00  0.00    +0.000 OA
ATOM     29  H   UNL     1      49.312   2.167   6.099  0.00  0.00    +0.000 HD
ATOM     30  H   UNL     1      48.637   3.525   6.925  0.00  0.00    +0.000 HD
ENDBRANCH  20  27
ENDBRANCH  19  23
ENDBRANCH   1  19
TORSDOF 5
ENDMDL
MODEL 4
REMARK VINA RESULT:    -8.738      2.191      3.679
REMARK INTER + INTRA:         -11.895
REMARK INTER:                 -11.255
REMARK INTRA:                  -0.640
REMARK UNBOUND:                -0.603
REMARK  Name = 
REMARK  5 active torsions:
REMARK  status: ('A' for Active; 'I' for Inactive)
REMARK    1  A    between atoms: C_2  and  C_4
REMARK    2  A    between atoms: C_7  and  O_8
REMARK    3  A    between atoms: O_8  and  C_9
REMARK    4  A    between atoms: C_9  and  C_10
REMARK    5  A    between atoms: C_15  and  N_16
REMARK                            x       y       z     vdW  Elec       q    Type
REMARK                         _______ _______ _______ _____ _____    ______ ____
ROOT
ATOM      1  C   UNL     1      44.042   4.753  11.429  0.00  0.00    +0.000 C 
ATOM      2  C   UNL     1      43.261   3.557  11.950  0.00  0.00    +0.000 C 
ATOM      3  C   UNL     1      42.594   4.890  11.875  0.00  0.00    +0.000 C 
ENDROOT
BRANCH   1   4
ATOM      4  C   UNL     1      45.132   5.297  12.338  0.00  0.00    +0.000 A 
ATOM      5  C   UNL     1      45.610   4.575  13.437  0.00  0.00    +0.000 A 
ATOM      6  C   UNL     1      46.837   4.902  14.009  0.00  0.00    +0.000 A 
ATOM      7  C   UNL     1      47.573   5.977  13.511  0.00  0.00    +0.000 A 
ATOM      8  F   UNL     1      48.789   6.196  14.037  0.00  0.00    +0.000 F 
ATOM      9  C   UNL     1      47.072   6.819  12.510  0.00  0.00    +0.000 A 
ATOM     10  C   UNL     1      45.826   6.468  11.972  0.00  0.00    +0.000 A 
BRANCH   9  11
ATOM     11  N   UNL     1      47.755   7.905  11.991  0.00  0.00    +0.000 N 
ATOM     12  C   UNL     1      49.022   7.749  11.280  0.00  0.00    +0.000 C 
ATOM     13  C   UNL     1      50.124   8.469  12.034  0.00  0.00    +0.000 C 
ATOM     14  C   UNL     1      49.690   9.888  12.340  0.00  0.00    +0.000 C 
ATOM     15  F   UNL     1      50.652  10.499  13.083  0.00  0.00    +0.000 F 
ATOM     16  F   UNL     1      49.608  10.595  11.180  0.00  0.00    +0.000 F 
ATOM     17  C   UNL     1      48.368   9.975  13.072  0.00  0.00    +0.000 C 
ATOM     18  C   UNL     1      47.299   9.267  12.257  0.00  0.00    +0.000 C 
ENDBRANCH   9  11
ENDBRANCH   1   4
BRANCH   1  19
ATOM     19  O   UNL     1      44.156   4.963  10.008  0.00  0.00    +0.000 OA
BRANCH  19  23
ATOM     20  C   UNL     1      46.251   2.114   7.949  0.00  0.00    +0.000 A 
ATOM     21  C   UNL     1      46.426   3.463   7.635  0.00  0.00    +0.000 A 
ATOM     22  C   UNL     1      45.678   4.412   8.320  0.00  0.00    +0.000 A 
ATOM     23  C   UNL     1      44.788   3.971   9.283  0.00  0.00    +0.000 A 
ATOM     24  N   UNL     1      44.541   2.668   9.552  0.00  0.00    +0.000 NA
ATOM     25  C   UNL     1      45.279   1.762   8.871  0.00  0.00    +0.000 A 
BRANCH  20  27
ATOM     26  N   UNL     1      46.794  -0.215   7.693  0.00  0.00    +0.000 N 
ATOM     27  C   UNL     1      47.127   1.069   7.388  0.00  0.00    +0.000 C 
ATOM     28  O   UNL     1      48.054   1.346   6.639  0.00  0.00    +0.000 OA
ATOM     29  H   UNL     1      47.298  -0.944   7.196  0.00  0.00    +0.000 HD
ATOM     30  H   UNL     1      45.893  -0.463   8.077  0.00  0.00    +0.000 HD
ENDBRANCH  20  27
ENDBRANCH  19  23
ENDBRANCH   1  19
TORSDOF 5
ENDMDL
MODEL 5
REMARK VINA RESULT:    -7.380      3.921      5.699
REMARK INTER + INTRA:         -10.140
REMARK INTER:                  -8.990
REMARK INTRA:                  -1.150
REMARK UNBOUND:                -0.603
REMARK  Name = 
REMARK  5 active torsions:
REMARK  status: ('A' for Active; 'I' for Inactive)
REMARK    1  A    between atoms: C_2  and  C_4
REMARK    2  A    between atoms: C_7  and  O_8
REMARK    3  A    between atoms: O_8  and  C_9
REMARK    4  A    between atoms: C_9  and  C_10
REMARK    5  A    between atoms: C_15  and  N_16
REMARK                            x       y       z     vdW  Elec       q    Type
REMARK                         _______ _______ _______ _____ _____    ______ ____
ROOT
ATOM      1  C   UNL     1      49.260   7.917  13.127  0.00  0.00    +0.000 C 
ATOM      2  C   UNL     1      49.180   9.194  12.305  0.00  0.00    +0.000 C 
ATOM      3  C   UNL     1      50.486   8.480  12.422  0.00  0.00    +0.000 C 
ENDROOT
BRANCH   1   4
ATOM      4  C   UNL     1      49.158   8.077  14.635  0.00  0.00    +0.000 A 
ATOM      5  C   UNL     1      48.792   9.290  15.230  0.00  0.00    +0.000 A 
ATOM      6  C   UNL     1      48.338   9.315  16.546  0.00  0.00    +0.000 A 
ATOM      7  C   UNL     1      48.285   8.134  17.287  0.00  0.00    +0.000 A 
ATOM      8  F   UNL     1      47.756   8.196  18.519  0.00  0.00    +0.000 F 
ATOM      9  C   UNL     1      48.777   6.922  16.786  0.00  0.00    +0.000 A 
ATOM     10  C   UNL     1      49.242   6.941  15.464  0.00  0.00    +0.000 A 
BRANCH   9  11
ATOM     11  N   UNL     1      48.761   5.726  17.485  0.00  0.00    +0.000 N 
ATOM     12  C   UNL     1      49.949   5.216  18.165  0.00  0.00    +0.000 C 
ATOM     13  C   UNL     1      50.364   3.894  17.548  0.00  0.00    +0.000 C 
ATOM     14  C   UNL     1      49.169   2.964  17.484  0.00  0.00    +0.000 C 
ATOM     15  F   UNL     1      49.534   1.811  16.860  0.00  0.00    +0.000 F 
ATOM     16  F   UNL     1      48.807   2.606  18.747  0.00  0.00    +0.000 F 
ATOM     17  C   UNL     1      47.974   3.559  16.771  0.00  0.00    +0.000 C 
ATOM     18  C   UNL     1      47.585   4.860  17.450  0.00  0.00    +0.000 C 
ENDBRANCH   9  11
ENDBRANCH   1   4
BRANCH   1  19
ATOM     19  O   UNL     1      48.865   6.665  12.535  0.00  0.00    +0.000 OA
BRANCH  19  23
ATOM     20  C   UNL     1      45.047   5.325  13.142  0.00  0.00    +0.000 A 
ATOM     21  C   UNL     1      45.256   6.577  12.558  0.00  0.00    +0.000 A 
ATOM     22  C   UNL     1      46.559   7.029  12.395  0.00  0.00    +0.000 A 
ATOM     23  C   UNL     1      47.591   6.214  12.825  0.00  0.00    +0.000 A 
ATOM     24  N   UNL     1      47.415   5.034  13.464  0.00  0.00    +0.000 NA
ATOM     25  C   UNL     1      46.138   4.616  13.614  0.00  0.00    +0.000 A 
BRANCH  20  27
ATOM     26  N   UNL     1      42.656   5.555  13.017  0.00  0.00    +0.000 N 
ATOM     27  C   UNL     1      43.708   4.709  13.191  0.00  0.00    +0.000 C 
ATOM     28  O   UNL     1      43.564   3.500  13.311  0.00  0.00    +0.000 OA
ATOM     29  H   UNL     1      41.743   5.126  12.901  0.00  0.00    +0.000 HD
ATOM     30  H   UNL     1      42.770   6.491  12.653  0.00  0.00    +0.000 HD
ENDBRANCH  20  27
ENDBRANCH  19  23
ENDBRANCH   1  19
TORSDOF 5
ENDMDL
MODEL 6
REMARK VINA RESULT:    -7.229      3.754      7.323
REMARK INTER + INTRA:          -9.945
REMARK INTER:                  -8.573
REMARK INTRA:                  -1.372
REMARK UNBOUND:                -0.603
REMARK  Name = 
REMARK  5 active torsions:
REMARK  status: ('A' for Active; 'I' for Inactive)
REMARK    1  A    between atoms: C_2  and  C_4
REMARK    2  A    between atoms: C_7  and  O_8
REMARK    3  A    between atoms: O_8  and  C_9
REMARK    4  A    between atoms: C_9  and  C_10
REMARK    5  A    between atoms: C_15  and  N_16
REMARK                            x       y       z     vdW  Elec       q    Type
REMARK                         _______ _______ _______ _____ _____    ______ ____
ROOT
ATOM      1  C   UNL     1      47.024   4.533  13.892  0.00  0.00    +0.000 C 
ATOM      2  C   UNL     1      46.951   4.424  15.406  0.00  0.00    +0.000 C 
ATOM      3  C   UNL     1      47.544   3.302  14.620  0.00  0.00    +0.000 C 
ENDROOT
BRANCH   1   4
ATOM      4  C   UNL     1      45.707   4.426  13.142  0.00  0.00    +0.000 A 
ATOM      5  C   UNL     1      44.524   4.991  13.633  0.00  0.00    +0.000 A 
ATOM      6  C   UNL     1      43.448   5.215  12.779  0.00  0.00    +0.000 A 
ATOM      7  C   UNL     1      43.533   4.838  11.438  0.00  0.00    +0.000 A 
ATOM      8  F   UNL     1      42.504   5.156  10.636  0.00  0.00    +0.000 F 
ATOM      9  C   UNL     1      44.636   4.138  10.933  0.00  0.00    +0.000 A 
ATOM     10  C   UNL     1      45.691   3.916  11.828  0.00  0.00    +0.000 A 
BRANCH   9  11
ATOM     11  N   UNL     1      44.763   3.730   9.616  0.00  0.00    +0.000 N 
ATOM     12  C   UNL     1      44.579   2.335   9.222  0.00  0.00    +0.000 C 
ATOM     13  C   UNL     1      45.872   1.790   8.647  0.00  0.00    +0.000 C 
ATOM     14  C   UNL     1      46.394   2.732   7.581  0.00  0.00    +0.000 C 
ATOM     15  F   UNL     1      47.592   2.274   7.128  0.00  0.00    +0.000 F 
ATOM     16  F   UNL     1      45.556   2.708   6.509  0.00  0.00    +0.000 F 
ATOM     17  C   UNL     1      46.556   4.159   8.058  0.00  0.00    +0.000 C 
ATOM     18  C   UNL     1      45.225   4.661   8.590  0.00  0.00    +0.000 C 
ENDBRANCH   9  11
ENDBRANCH   1   4
BRANCH   1  19
ATOM     19  O   UNL     1      48.110   5.259  13.284  0.00  0.00    +0.000 OA
BRANCH  19  23
ATOM     20  C   UNL     1      47.322   9.181  12.426  0.00  0.00    +0.000 A 
ATOM     21  C   UNL     1      47.837   8.346  11.432  0.00  0.00    +0.000 A 
ATOM     22  C   UNL     1      48.133   7.028  11.754  0.00  0.00    +0.000 A 
ATOM     23  C   UNL     1      47.905   6.606  13.052  0.00  0.00    +0.000 A 
ATOM     24  N   UNL     1      47.482   7.412  14.052  0.00  0.00    +0.000 NA
ATOM     25  C   UNL     1      47.203   8.692  13.716  0.00  0.00    +0.000 A 
BRANCH  20  27
ATOM     26  N   UNL     1      45.488  10.728  12.267  0.00  0.00    +0.000 N 
ATOM     27  C   UNL     1      46.827  10.535  12.118  0.00  0.00    +0.000 C 
ATOM     28  O   UNL     1      47.590  11.442  11.815  0.00  0.00    +0.000 OA
ATOM     29  H   UNL     1      45.157  11.687  12.201  0.00  0.00    +0.000 HD
ATOM     30  H   UNL     1      44.899  10.077  12.767  0.00  0.00    +0.000 HD
ENDBRANCH  20  27
ENDBRANCH  19  23
ENDBRANCH   1  19
TORSDOF 5
ENDMDL
MODEL 7
REMARK VINA RESULT:    -7.138      4.165      7.218
REMARK INTER + INTRA:          -9.828
REMARK INTER:                  -9.457
REMARK INTRA:                  -0.371
REMARK UNBOUND:                -0.603
REMARK  Name = 
REMARK  5 active torsions:
REMARK  status: ('A' for Active; 'I' for Inactive)
REMARK    1  A    between atoms: C_2  and  C_4
REMARK    2  A    between atoms: C_7  and  O_8
REMARK    3  A    between atoms: O_8  and  C_9
REMARK    4  A    between atoms: C_9  and  C_10
REMARK    5  A    between atoms: C_15  and  N_16
REMARK                            x       y       z     vdW  Elec       q    Type
REMARK                         _______ _______ _______ _____ _____    ______ ____
ROOT
ATOM      1  C   UNL     1      48.499   7.875  13.141  0.00  0.00    +0.000 C 
ATOM      2  C   UNL     1      49.268   7.024  12.142  0.00  0.00    +0.000 C 
ATOM      3  C   UNL     1      49.580   8.479  12.256  0.00  0.00    +0.000 C 
ENDROOT
BRANCH   1   4
ATOM      4  C   UNL     1      47.046   8.164  12.804  0.00  0.00    +0.000 A 
ATOM      5  C   UNL     1      46.591   9.458  12.525  0.00  0.00    +0.000 A 
ATOM      6  C   UNL     1      45.384   9.647  11.858  0.00  0.00    +0.000 A 
ATOM      7  C   UNL     1      44.605   8.546  11.502  0.00  0.00    +0.000 A 
ATOM      8  F   UNL     1      43.495   8.775  10.782  0.00  0.00    +0.000 F 
ATOM      9  C   UNL     1      44.944   7.242  11.886  0.00  0.00    +0.000 A 
ATOM     10  C   UNL     1      46.157   7.094  12.572  0.00  0.00    +0.000 A 
BRANCH   9  11
ATOM     11  N   UNL     1      44.200   6.118  11.571  0.00  0.00    +0.000 N 
ATOM     12  C   UNL     1      42.927   5.829  12.227  0.00  0.00    +0.000 C 
ATOM     13  C   UNL     1      43.032   4.526  12.996  0.00  0.00    +0.000 C 
ATOM     14  C   UNL     1      43.589   3.444  12.094  0.00  0.00    +0.000 C 
ATOM     15  F   UNL     1      43.752   2.301  12.814  0.00  0.00    +0.000 F 
ATOM     16  F   UNL     1      42.678   3.149  11.127  0.00  0.00    +0.000 F 
ATOM     17  C   UNL     1      44.906   3.813  11.444  0.00  0.00    +0.000 C 
ATOM     18  C   UNL     1      44.731   5.104  10.663  0.00  0.00    +0.000 C 
ENDBRANCH   9  11
ENDBRANCH   1   4
BRANCH   1  19
ATOM     19  O   UNL     1      48.907   7.891  14.522  0.00  0.00    +0.000 OA
BRANCH  19  23
ATOM     20  C   UNL     1      48.118   4.627  16.861  0.00  0.00    +0.000 A 
ATOM     21  C   UNL     1      48.982   5.621  17.328  0.00  0.00    +0.000 A 
ATOM     22  C   UNL     1      49.266   6.702  16.504  0.00  0.00    +0.000 A 
ATOM     23  C   UNL     1      48.679   6.740  15.251  0.00  0.00    +0.000 A 
ATOM     24  N   UNL     1      47.902   5.755  14.744  0.00  0.00    +0.000 NA
ATOM     25  C   UNL     1      47.642   4.711  15.563  0.00  0.00    +0.000 A 
BRANCH  20  27
ATOM     26  N   UNL     1      48.319   3.380  18.906  0.00  0.00    +0.000 N 
ATOM     27  C   UNL     1      47.639   3.544  17.739  0.00  0.00    +0.000 C 
ATOM     28  O   UNL     1      46.648   2.885  17.458  0.00  0.00    +0.000 OA
ATOM     29  H   UNL     1      47.911   2.740  19.582  0.00  0.00    +0.000 HD
ATOM     30  H   UNL     1      48.954   4.079  19.266  0.00  0.00    +0.000 HD
ENDBRANCH  20  27
ENDBRANCH  19  23
ENDBRANCH   1  19
TORSDOF 5
ENDMDL
MODEL 8
REMARK VINA RESULT:    -6.913      4.327      7.811
REMARK INTER + INTRA:          -9.537
REMARK INTER:                  -8.375
REMARK INTRA:                  -1.162
REMARK UNBOUND:                -0.603
REMARK  Name = 
REMARK  5 active torsions:
REMARK  status: ('A' for Active; 'I' for Inactive)
REMARK    1  A    between atoms: C_2  and  C_4
REMARK    2  A    between atoms: C_7  and  O_8
REMARK    3  A    between atoms: O_8  and  C_9
REMARK    4  A    between atoms: C_9  and  C_10
REMARK    5  A    between atoms: C_15  and  N_16
REMARK                            x       y       z     vdW  Elec       q    Type
REMARK                         _______ _______ _______ _____ _____    ______ ____
ROOT
ATOM      1  C   UNL     1      49.250   8.442  12.988  0.00  0.00    +0.000 C 
ATOM      2  C   UNL     1      50.153   7.771  11.966  0.00  0.00    +0.000 C 
ATOM      3  C   UNL     1      49.909   9.241  11.873  0.00  0.00    +0.000 C 
ENDROOT
BRANCH   1   4
ATOM      4  C   UNL     1      47.765   8.140  12.878  0.00  0.00    +0.000 A 
ATOM      5  C   UNL     1      46.795   9.146  12.948  0.00  0.00    +0.000 A 
ATOM      6  C   UNL     1      45.508   8.913  12.471  0.00  0.00    +0.000 A 
ATOM      7  C   UNL     1      45.172   7.659  11.957  0.00  0.00    +0.000 A 
ATOM      8  F   UNL     1      43.948   7.511  11.427  0.00  0.00    +0.000 F 
ATOM      9  C   UNL     1      46.063   6.578  11.999  0.00  0.00    +0.000 A 
ATOM     10  C   UNL     1      47.342   6.848  12.504  0.00  0.00    +0.000 A 
BRANCH   9  11
ATOM     11  N   UNL     1      45.775   5.313  11.517  0.00  0.00    +0.000 N 
ATOM     12  C   UNL     1      45.238   5.105  10.173  0.00  0.00    +0.000 C 
ATOM     13  C   UNL     1      43.859   4.481  10.264  0.00  0.00    +0.000 C 
ATOM     14  C   UNL     1      43.907   3.266  11.168  0.00  0.00    +0.000 C 
ATOM     15  F   UNL     1      42.652   2.760  11.304  0.00  0.00    +0.000 F 
ATOM     16  F   UNL     1      44.642   2.288  10.572  0.00  0.00    +0.000 F 
ATOM     17  C   UNL     1      44.479   3.553  12.541  0.00  0.00    +0.000 C 
ATOM     18  C   UNL     1      45.869   4.145  12.388  0.00  0.00    +0.000 C 
ENDBRANCH   9  11
ENDBRANCH   1   4
BRANCH   1  19
ATOM     19  O   UNL     1      49.787   8.823  14.269  0.00  0.00    +0.000 OA
BRANCH  19  23
ATOM     20  C   UNL     1      48.642   6.446  17.397  0.00  0.00    +0.000 A 
ATOM     21  C   UNL     1      48.403   7.821  17.449  0.00  0.00    +0.000 A 
ATOM     22  C   UNL     1      48.833   8.616  16.394  0.00  0.00    +0.000 A 
ATOM     23  C   UNL     1      49.484   8.002  15.339  0.00  0.00    +0.000 A 
ATOM     24  N   UNL     1      49.798   6.687  15.298  0.00  0.00    +0.000 NA
ATOM     25  C   UNL     1      49.373   5.934  16.338  0.00  0.00    +0.000 A 
BRANCH  20  27
ATOM     26  N   UNL     1      46.710   5.525  18.493  0.00  0.00    +0.000 N 
ATOM     27  C   UNL     1      48.068   5.523  18.392  0.00  0.00    +0.000 C 
ATOM     28  O   UNL     1      48.772   4.756  19.035  0.00  0.00    +0.000 OA
ATOM     29  H   UNL     1      46.297   4.794  19.065  0.00  0.00    +0.000 HD
ATOM     30  H   UNL     1      46.116   5.947  17.793  0.00  0.00    +0.000 HD
ENDBRANCH  20  27
ENDBRANCH  19  23
ENDBRANCH   1  19
TORSDOF 5
ENDMDL
MODEL 9
REMARK VINA RESULT:    -6.832      4.582      7.685
REMARK INTER + INTRA:          -9.433
REMARK INTER:                  -8.047
REMARK INTRA:                  -1.386
REMARK UNBOUND:                -0.603
REMARK  Name = 
REMARK  5 active torsions:
REMARK  status: ('A' for Active; 'I' for Inactive)
REMARK    1  A    between atoms: C_2  and  C_4
REMARK    2  A    between atoms: C_7  and  O_8
REMARK    3  A    between atoms: O_8  and  C_9
REMARK    4  A    between atoms: C_9  and  C_10
REMARK    5  A    between atoms: C_15  and  N_16
REMARK                            x       y       z     vdW  Elec       q    Type
REMARK                         _______ _______ _______ _____ _____    ______ ____
ROOT
ATOM      1  C   UNL     1      48.825   8.245  17.259  0.00  0.00    +0.000 C 
ATOM      2  C   UNL     1      49.838   9.041  18.067  0.00  0.00    +0.000 C 
ATOM      3  C   UNL     1      48.460   9.584  17.885  0.00  0.00    +0.000 C 
ENDROOT
BRANCH   1   4
ATOM      4  C   UNL     1      49.053   8.189  15.758  0.00  0.00    +0.000 A 
ATOM      5  C   UNL     1      50.290   8.500  15.182  0.00  0.00    +0.000 A 
ATOM      6  C   UNL     1      50.586   8.081  13.888  0.00  0.00    +0.000 A 
ATOM      7  C   UNL     1      49.631   7.383  13.147  0.00  0.00    +0.000 A 
ATOM      8  F   UNL     1      49.995   6.922  11.940  0.00  0.00    +0.000 F 
ATOM      9  C   UNL     1      48.331   7.174  13.623  0.00  0.00    +0.000 A 
ATOM     10  C   UNL     1      48.066   7.627  14.923  0.00  0.00    +0.000 A 
BRANCH   9  11
ATOM     11  N   UNL     1      47.343   6.501  12.924  0.00  0.00    +0.000 N 
ATOM     12  C   UNL     1      46.449   7.192  11.998  0.00  0.00    +0.000 C 
ATOM     13  C   UNL     1      45.018   7.079  12.490  0.00  0.00    +0.000 C 
ATOM     14  C   UNL     1      44.693   5.630  12.790  0.00  0.00    +0.000 C 
ATOM     15  F   UNL     1      43.436   5.551  13.302  0.00  0.00    +0.000 F 
ATOM     16  F   UNL     1      44.668   4.923  11.627  0.00  0.00    +0.000 F 
ATOM     17  C   UNL     1      45.664   4.977  13.751  0.00  0.00    +0.000 C 
ATOM     18  C   UNL     1      47.071   5.091  13.192  0.00  0.00    +0.000 C 
ENDBRANCH   9  11
ENDBRANCH   1   4
BRANCH   1  19
ATOM     19  O   UNL     1      48.096   7.176  17.890  0.00  0.00    +0.000 OA
BRANCH  19  23
ATOM     20  C   UNL     1      49.657   3.433  17.344  0.00  0.00    +0.000 A 
ATOM     21  C   UNL     1      48.298   3.657  17.108  0.00  0.00    +0.000 A 
ATOM     22  C   UNL     1      47.781   4.925  17.335  0.00  0.00    +0.000 A 
ATOM     23  C   UNL     1      48.641   5.909  17.791  0.00  0.00    +0.000 A 
ATOM     24  N   UNL     1      49.941   5.700  18.102  0.00  0.00    +0.000 NA
ATOM     25  C   UNL     1      50.422   4.457  17.875  0.00  0.00    +0.000 A 
BRANCH  20  27
ATOM     26  N   UNL     1      51.239   1.691  17.836  0.00  0.00    +0.000 N 
ATOM     27  C   UNL     1      50.308   2.166  16.964  0.00  0.00    +0.000 C 
ATOM     28  O   UNL     1      49.976   1.551  15.961  0.00  0.00    +0.000 OA
ATOM     29  H   UNL     1      51.586   0.751  17.662  0.00  0.00    +0.000 HD
ATOM     30  H   UNL     1      51.325   2.040  18.780  0.00  0.00    +0.000 HD
ENDBRANCH  20  27
ENDBRANCH  19  23
ENDBRANCH   1  19
TORSDOF 5
ENDMDL
