MODEL 1
REMARK VINA RESULT:    -9.160      0.000      0.000
REMARK INTER + INTRA:         -13.212
REMARK INTER:                 -12.373
REMARK INTRA:                  -0.839
REMARK UNBOUND:                -0.839
REMARK  Name = 
REMARK  9 active torsions:
REMARK  status: ('A' for Active; 'I' for Inactive)
REMARK    1  A    between atoms: C_1  and  C_2
REMARK    2  A    between atoms: N_5  and  C_6
REMARK    3  A    between atoms: C_8  and  C_9
REMARK    4  A    between atoms: C_9  and  C_10
REMARK    5  A    between atoms: C_9  and  C_11
REMARK    6  A    between atoms: C_9  and  C_12
REMARK    7  A    between atoms: C_12  and  N_13
REMARK    8  A    between atoms: N_13  and  C_14
REMARK    9  A    between atoms: C_17  and  C_18
REMARK                            x       y       z     vdW  Elec       q    Type
REMARK                         _______ _______ _______ _____ _____    ______ ____
ROOT
ATOM      1  C   UNL     1      44.127   4.676  12.260  0.00  0.00    +0.000 C 
ATOM      2  C   UNL     1      44.107   3.126  12.345  0.00  0.00    +0.000 C 
ATOM      3  C   UNL     1      43.014   5.245  13.174  0.00  0.00    +0.000 C 
ENDROOT
BRANCH   1   6
ATOM      4  C   UNL     1      47.231   5.281  14.493  0.00  0.00    +0.000 A 
ATOM      5  C   UNL     1      46.012   4.800  13.986  0.00  0.00    +0.000 A 
ATOM      6  C   UNL     1      45.501   5.190  12.730  0.00  0.00    +0.000 A 
ATOM      7  C   UNL     1      46.287   6.064  11.963  0.00  0.00    +0.000 A 
ATOM      8  C   UNL     1      47.500   6.551  12.432  0.00  0.00    +0.000 A 
ATOM      9  C   UNL     1      47.954   6.167  13.680  0.00  0.00    +0.000 A 
ATOM     10  F   UNL     1      49.141   6.652  14.073  0.00  0.00    +0.000 F 
BRANCH   4  15
ATOM     11  C   UNL     1      51.002   3.185  17.797  0.00  0.00    +0.000 C 
ATOM     12  C   UNL     1      49.631   3.800  17.527  0.00  0.00    +0.000 C 
ATOM     13  C   UNL     1      49.786   5.210  16.938  0.00  0.00    +0.000 C 
ATOM     14  C   UNL     1      48.436   5.818  16.581  0.00  0.00    +0.000 C 
ATOM     15  N   UNL     1      47.664   4.901  15.752  0.00  0.00    +0.000 N 
ATOM     16  C   UNL     1      47.456   3.545  16.248  0.00  0.00    +0.000 C 
ATOM     17  C   UNL     1      48.806   2.912  16.583  0.00  0.00    +0.000 C 
ENDBRANCH   4  15
ENDBRANCH   1   6
BRANCH   1  18
ATOM     18  C   UNL     1      43.809   5.065  10.785  0.00  0.00    +0.000 C 
BRANCH  18  19
ATOM     19  N   UNL     1      43.646   3.906   9.900  0.00  0.00    +0.000 N 
ATOM     20  H   UNL     1      42.708   3.709   9.547  0.00  0.00    +0.000 HD
BRANCH  19  21
ATOM     21  C   UNL     1      44.701   3.507   9.084  0.00  0.00    +0.000 A 
ATOM     22  C   UNL     1      45.483   4.489   8.461  0.00  0.00    +0.000 A 
ATOM     23  C   UNL     1      46.514   4.143   7.579  0.00  0.00    +0.000 A 
ATOM     24  C   UNL     1      46.768   2.799   7.281  0.00  0.00    +0.000 A 
ATOM     25  C   UNL     1      45.986   1.812   7.879  0.00  0.00    +0.000 A 
ATOM     26  C   UNL     1      44.966   2.169   8.752  0.00  0.00    +0.000 A 
ATOM     27  F   UNL     1      44.253   1.172   9.299  0.00  0.00    +0.000 F 
BRANCH  24  28
ATOM     28  C   UNL     1      47.842   2.346   6.345  0.00  0.00    +0.000 C 
ATOM     29  N   UNL     1      47.981   3.013   5.154  0.00  0.00    +0.000 N 
ATOM     30  O   UNL     1      48.574   1.420   6.617  0.00  0.00    +0.000 OA
ATOM     31  H   UNL     1      47.428   3.792   4.846  0.00  0.00    +0.000 HD
ATOM     32  H   UNL     1      48.717   2.684   4.545  0.00  0.00    +0.000 HD
ENDBRANCH  24  28
ENDBRANCH  19  21
ENDBRANCH  18  19
ENDBRANCH   1  18
TORSDOF 6
ENDMDL
MODEL 2
REMARK VINA RESULT:    -8.906      0.995      1.530
REMARK INTER + INTRA:         -12.870
REMARK INTER:                 -12.090
REMARK INTRA:                  -0.780
REMARK UNBOUND:                -0.839
REMARK  Name = 
REMARK  9 active torsions:
REMARK  status: ('A' for Active; 'I' for Inactive)
REMARK    1  A    between atoms: C_1  and  C_2
REMARK    2  A    between atoms: N_5  and  C_6
REMARK    3  A    between atoms: C_8  and  C_9
REMARK    4  A    between atoms: C_9  and  C_10
REMARK    5  A    between atoms: C_9  and  C_11
REMARK    6  A    between atoms: C_9  and  C_12
REMARK    7  A    between atoms: C_12  and  N_13
REMARK    8  A    between atoms: N_13  and  C_14
REMARK    9  A    between atoms: C_17  and  C_18
REMARK                            x       y       z     vdW  Elec       q    Type
REMARK                         _______ _______ _______ _____ _____    ______ ____
ROOT
ATOM      1  C   UNL     1      44.281   4.774  12.258  0.00  0.00    +0.000 C 
ATOM      2  C   UNL     1      44.338   3.232  12.434  0.00  0.00    +0.000 C 
ATOM      3  C   UNL     1      43.209   5.352  13.214  0.00  0.00    +0.000 C 
ENDROOT
BRANCH   1   6
ATOM      4  C   UNL     1      47.511   5.626  14.215  0.00  0.00    +0.000 A 
ATOM      5  C   UNL     1      46.283   5.065  13.825  0.00  0.00    +0.000 A 
ATOM      6  C   UNL     1      45.660   5.373  12.598  0.00  0.00    +0.000 A 
ATOM      7  C   UNL     1      46.340   6.245  11.735  0.00  0.00    +0.000 A 
ATOM      8  C   UNL     1      47.559   6.809  12.087  0.00  0.00    +0.000 A 
ATOM      9  C   UNL     1      48.125   6.506  13.311  0.00  0.00    +0.000 A 
ATOM     10  F   UNL     1      49.313   7.063  13.590  0.00  0.00    +0.000 F 
BRANCH   4  15
ATOM     11  C   UNL     1      47.430   5.895  19.641  0.00  0.00    +0.000 C 
ATOM     12  C   UNL     1      48.045   5.445  18.318  0.00  0.00    +0.000 C 
ATOM     13  C   UNL     1      47.064   4.545  17.553  0.00  0.00    +0.000 C 
ATOM     14  C   UNL     1      47.617   4.148  16.191  0.00  0.00    +0.000 C 
ATOM     15  N   UNL     1      48.056   5.325  15.452  0.00  0.00    +0.000 N 
ATOM     16  C   UNL     1      49.002   6.224  16.103  0.00  0.00    +0.000 C 
ATOM     17  C   UNL     1      48.447   6.655  17.460  0.00  0.00    +0.000 C 
ENDBRANCH   4  15
ENDBRANCH   1   6
BRANCH   1  18
ATOM     18  C   UNL     1      43.845   5.058  10.789  0.00  0.00    +0.000 C 
BRANCH  18  19
ATOM     19  N   UNL     1      43.691   3.841   9.982  0.00  0.00    +0.000 N 
ATOM     20  H   UNL     1      42.746   3.577   9.701  0.00  0.00    +0.000 HD
BRANCH  19  21
ATOM     21  C   UNL     1      44.716   3.448   9.125  0.00  0.00    +0.000 A 
ATOM     22  C   UNL     1      45.496   4.434   8.508  0.00  0.00    +0.000 A 
ATOM     23  C   UNL     1      46.496   4.097   7.586  0.00  0.00    +0.000 A 
ATOM     24  C   UNL     1      46.718   2.759   7.243  0.00  0.00    +0.000 A 
ATOM     25  C   UNL     1      45.936   1.767   7.836  0.00  0.00    +0.000 A 
ATOM     26  C   UNL     1      44.948   2.116   8.748  0.00  0.00    +0.000 A 
ATOM     27  F   UNL     1      44.233   1.116   9.288  0.00  0.00    +0.000 F 
BRANCH  24  28
ATOM     28  C   UNL     1      47.756   2.314   6.264  0.00  0.00    +0.000 C 
ATOM     29  N   UNL     1      47.910   3.046   5.113  0.00  0.00    +0.000 N 
ATOM     30  O   UNL     1      48.447   1.341   6.467  0.00  0.00    +0.000 OA
ATOM     31  H   UNL     1      47.390   3.867   4.862  0.00  0.00    +0.000 HD
ATOM     32  H   UNL     1      48.622   2.721   4.473  0.00  0.00    +0.000 HD
ENDBRANCH  24  28
ENDBRANCH  19  21
ENDBRANCH  18  19
ENDBRANCH   1  18
TORSDOF 6
ENDMDL
MODEL 3
REMARK VINA RESULT:    -8.895      1.964      3.677
REMARK INTER + INTRA:         -12.854
REMARK INTER:                 -11.600
REMARK INTRA:                  -1.254
REMARK UNBOUND:                -0.839
REMARK  Name = 
REMARK  9 active torsions:
REMARK  status: ('A' for Active; 'I' for Inactive)
REMARK    1  A    between atoms: C_1  and  C_2
REMARK    2  A    between atoms: N_5  and  C_6
REMARK    3  A    between atoms: C_8  and  C_9
REMARK    4  A    between atoms: C_9  and  C_10
REMARK    5  A    between atoms: C_9  and  C_11
REMARK    6  A    between atoms: C_9  and  C_12
REMARK    7  A    between atoms: C_12  and  N_13
REMARK    8  A    between atoms: N_13  and  C_14
REMARK    9  A    between atoms: C_17  and  C_18
REMARK                            x       y       z     vdW  Elec       q    Type
REMARK                         _______ _______ _______ _____ _____    ______ ____
ROOT
ATOM      1  C   UNL     1      44.097   4.688  12.292  0.00  0.00    +0.000 C 
ATOM      2  C   UNL     1      44.138   3.136  12.329  0.00  0.00    +0.000 C 
ATOM      3  C   UNL     1      42.900   5.181  13.140  0.00  0.00    +0.000 C 
ENDROOT
BRANCH   1   6
ATOM      4  C   UNL     1      47.252   6.887  12.743  0.00  0.00    +0.000 A 
ATOM      5  C   UNL     1      46.023   6.372  12.293  0.00  0.00    +0.000 A 
ATOM      6  C   UNL     1      45.411   5.242  12.874  0.00  0.00    +0.000 A 
ATOM      7  C   UNL     1      46.060   4.656  13.973  0.00  0.00    +0.000 A 
ATOM      8  C   UNL     1      47.270   5.147  14.447  0.00  0.00    +0.000 A 
ATOM      9  C   UNL     1      47.853   6.239  13.832  0.00  0.00    +0.000 A 
ATOM     10  F   UNL     1      49.011   6.682  14.345  0.00  0.00    +0.000 F 
BRANCH   4  15
ATOM     11  C   UNL     1      50.741  11.052  12.663  0.00  0.00    +0.000 C 
ATOM     12  C   UNL     1      49.662  10.178  12.027  0.00  0.00    +0.000 C 
ATOM     13  C   UNL     1      50.153   8.728  11.906  0.00  0.00    +0.000 C 
ATOM     14  C   UNL     1      49.068   7.815  11.351  0.00  0.00    +0.000 C 
ATOM     15  N   UNL     1      47.831   7.971  12.106  0.00  0.00    +0.000 N 
ATOM     16  C   UNL     1      47.288   9.317  12.253  0.00  0.00    +0.000 C 
ATOM     17  C   UNL     1      48.358  10.238  12.837  0.00  0.00    +0.000 C 
ENDBRANCH   4  15
ENDBRANCH   1   6
BRANCH   1  18
ATOM     18  C   UNL     1      43.867   5.112  10.810  0.00  0.00    +0.000 C 
BRANCH  18  19
ATOM     19  N   UNL     1      43.673   3.974   9.903  0.00  0.00    +0.000 N 
ATOM     20  H   UNL     1      42.732   3.814   9.541  0.00  0.00    +0.000 HD
BRANCH  19  21
ATOM     21  C   UNL     1      44.721   3.557   9.086  0.00  0.00    +0.000 A 
ATOM     22  C   UNL     1      45.507   4.525   8.448  0.00  0.00    +0.000 A 
ATOM     23  C   UNL     1      46.531   4.159   7.563  0.00  0.00    +0.000 A 
ATOM     24  C   UNL     1      46.772   2.811   7.281  0.00  0.00    +0.000 A 
ATOM     25  C   UNL     1      45.985   1.836   7.895  0.00  0.00    +0.000 A 
ATOM     26  C   UNL     1      44.973   2.213   8.769  0.00  0.00    +0.000 A 
ATOM     27  F   UNL     1      44.254   1.228   9.332  0.00  0.00    +0.000 F 
BRANCH  24  28
ATOM     28  C   UNL     1      47.837   2.337   6.345  0.00  0.00    +0.000 C 
ATOM     29  N   UNL     1      47.954   2.968   5.131  0.00  0.00    +0.000 N 
ATOM     30  O   UNL     1      48.579   1.426   6.635  0.00  0.00    +0.000 OA
ATOM     31  H   UNL     1      47.390   3.733   4.807  0.00  0.00    +0.000 HD
ATOM     32  H   UNL     1      48.685   2.626   4.523  0.00  0.00    +0.000 HD
ENDBRANCH  24  28
ENDBRANCH  19  21
ENDBRANCH  18  19
ENDBRANCH   1  18
TORSDOF 6
ENDMDL
MODEL 4
REMARK VINA RESULT:    -8.506      2.479      3.269
REMARK INTER + INTRA:         -12.328
REMARK INTER:                 -11.400
REMARK INTRA:                  -0.928
REMARK UNBOUND:                -0.839
REMARK  Name = 
REMARK  9 active torsions:
REMARK  status: ('A' for Active; 'I' for Inactive)
REMARK    1  A    between atoms: C_1  and  C_2
REMARK    2  A    between atoms: N_5  and  C_6
REMARK    3  A    between atoms: C_8  and  C_9
REMARK    4  A    between atoms: C_9  and  C_10
REMARK    5  A    between atoms: C_9  and  C_11
REMARK    6  A    between atoms: C_9  and  C_12
REMARK    7  A    between atoms: C_12  and  N_13
REMARK    8  A    between atoms: N_13  and  C_14
REMARK    9  A    between atoms: C_17  and  C_18
REMARK                            x       y       z     vdW  Elec       q    Type
REMARK                         _______ _______ _______ _____ _____    ______ ____
ROOT
ATOM      1  C   UNL     1      44.267   4.398  12.306  0.00  0.00    +0.000 C 
ATOM      2  C   UNL     1      45.346   3.297  12.489  0.00  0.00    +0.000 C 
ATOM      3  C   UNL     1      43.353   4.421  13.555  0.00  0.00    +0.000 C 
ENDROOT
BRANCH   1   6
ATOM      4  C   UNL     1      47.028   7.112  12.283  0.00  0.00    +0.000 A 
ATOM      5  C   UNL     1      46.349   5.883  12.360  0.00  0.00    +0.000 A 
ATOM      6  C   UNL     1      44.961   5.764  12.142  0.00  0.00    +0.000 A 
ATOM      7  C   UNL     1      44.264   6.932  11.796  0.00  0.00    +0.000 A 
ATOM      8  C   UNL     1      44.906   8.159  11.704  0.00  0.00    +0.000 A 
ATOM      9  C   UNL     1      46.263   8.241  11.952  0.00  0.00    +0.000 A 
ATOM     10  F   UNL     1      46.835   9.448  11.829  0.00  0.00    +0.000 F 
BRANCH   4  15
ATOM     11  C   UNL     1      51.479   9.930  13.612  0.00  0.00    +0.000 C 
ATOM     12  C   UNL     1      50.755   8.635  13.253  0.00  0.00    +0.000 C 
ATOM     13  C   UNL     1      49.672   8.322  14.296  0.00  0.00    +0.000 C 
ATOM     14  C   UNL     1      48.877   7.079  13.920  0.00  0.00    +0.000 C 
ATOM     15  N   UNL     1      48.384   7.180  12.552  0.00  0.00    +0.000 N 
ATOM     16  C   UNL     1      49.353   7.458  11.498  0.00  0.00    +0.000 C 
ATOM     17  C   UNL     1      50.139   8.721  11.848  0.00  0.00    +0.000 C 
ENDBRANCH   4  15
ENDBRANCH   1   6
BRANCH   1  18
ATOM     18  C   UNL     1      43.408   4.005  11.066  0.00  0.00    +0.000 C 
BRANCH  18  19
ATOM     19  N   UNL     1      43.881   4.610   9.815  0.00  0.00    +0.000 N 
ATOM     20  H   UNL     1      43.859   5.628   9.744  0.00  0.00    +0.000 HD
BRANCH  19  21
ATOM     21  C   UNL     1      44.866   3.967   9.067  0.00  0.00    +0.000 A 
ATOM     22  C   UNL     1      45.762   4.743   8.321  0.00  0.00    +0.000 A 
ATOM     23  C   UNL     1      46.728   4.146   7.500  0.00  0.00    +0.000 A 
ATOM     24  C   UNL     1      46.800   2.753   7.392  0.00  0.00    +0.000 A 
ATOM     25  C   UNL     1      45.902   1.968   8.115  0.00  0.00    +0.000 A 
ATOM     26  C   UNL     1      44.948   2.574   8.924  0.00  0.00    +0.000 A 
ATOM     27  F   UNL     1      44.117   1.764   9.599  0.00  0.00    +0.000 F 
BRANCH  24  28
ATOM     28  C   UNL     1      47.793   2.038   6.534  0.00  0.00    +0.000 C 
ATOM     29  N   UNL     1      48.267   2.687   5.421  0.00  0.00    +0.000 N 
ATOM     30  O   UNL     1      48.177   0.921   6.801  0.00  0.00    +0.000 OA
ATOM     31  H   UNL     1      48.012   3.611   5.123  0.00  0.00    +0.000 HD
ATOM     32  H   UNL     1      48.938   2.178   4.863  0.00  0.00    +0.000 HD
ENDBRANCH  24  28
ENDBRANCH  19  21
ENDBRANCH  18  19
ENDBRANCH   1  18
TORSDOF 6
ENDMDL
MODEL 5
REMARK VINA RESULT:    -8.122      3.140      8.418
REMARK INTER + INTRA:         -11.810
REMARK INTER:                 -10.735
REMARK INTRA:                  -1.075
REMARK UNBOUND:                -0.839
REMARK  Name = 
REMARK  9 active torsions:
REMARK  status: ('A' for Active; 'I' for Inactive)
REMARK    1  A    between atoms: C_1  and  C_2
REMARK    2  A    between atoms: N_5  and  C_6
REMARK    3  A    between atoms: C_8  and  C_9
REMARK    4  A    between atoms: C_9  and  C_10
REMARK    5  A    between atoms: C_9  and  C_11
REMARK    6  A    between atoms: C_9  and  C_12
REMARK    7  A    between atoms: C_12  and  N_13
REMARK    8  A    between atoms: N_13  and  C_14
REMARK    9  A    between atoms: C_17  and  C_18
REMARK                            x       y       z     vdW  Elec       q    Type
REMARK                         _______ _______ _______ _____ _____    ______ ____
ROOT
ATOM      1  C   UNL     1      46.139   7.036  12.172  0.00  0.00    +0.000 C 
ATOM      2  C   UNL     1      47.378   7.051  11.236  0.00  0.00    +0.000 C 
ATOM      3  C   UNL     1      45.232   8.243  11.828  0.00  0.00    +0.000 C 
ENDROOT
BRANCH   1   6
ATOM      4  C   UNL     1      44.726   3.864  10.460  0.00  0.00    +0.000 A 
ATOM      5  C   UNL     1      45.456   5.034  10.733  0.00  0.00    +0.000 A 
ATOM      6  C   UNL     1      45.362   5.723  11.960  0.00  0.00    +0.000 A 
ATOM      7  C   UNL     1      44.529   5.168  12.944  0.00  0.00    +0.000 A 
ATOM      8  C   UNL     1      43.802   4.008  12.709  0.00  0.00    +0.000 A 
ATOM      9  C   UNL     1      43.898   3.378  11.483  0.00  0.00    +0.000 A 
ATOM     10  F   UNL     1      43.189   2.251  11.319  0.00  0.00    +0.000 F 
BRANCH   4  15
ATOM     11  C   UNL     1      47.668   1.896   6.338  0.00  0.00    +0.000 C 
ATOM     12  C   UNL     1      46.341   2.204   7.027  0.00  0.00    +0.000 C 
ATOM     13  C   UNL     1      46.248   1.456   8.364  0.00  0.00    +0.000 C 
ATOM     14  C   UNL     1      44.970   1.808   9.114  0.00  0.00    +0.000 C 
ATOM     15  N   UNL     1      44.820   3.254   9.221  0.00  0.00    +0.000 N 
ATOM     16  C   UNL     1      44.880   4.038   7.992  0.00  0.00    +0.000 C 
ATOM     17  C   UNL     1      46.173   3.716   7.244  0.00  0.00    +0.000 C 
ENDBRANCH   4  15
ENDBRANCH   1   6
BRANCH   1  18
ATOM     18  C   UNL     1      46.658   7.202  13.632  0.00  0.00    +0.000 C 
BRANCH  18  19
ATOM     19  N   UNL     1      47.817   6.353  13.938  0.00  0.00    +0.000 N 
ATOM     20  H   UNL     1      48.671   6.509  13.400  0.00  0.00    +0.000 HD
BRANCH  19  21
ATOM     21  C   UNL     1      47.989   5.860  15.229  0.00  0.00    +0.000 A 
ATOM     22  C   UNL     1      48.764   6.595  16.136  0.00  0.00    +0.000 A 
ATOM     23  C   UNL     1      49.023   6.112  17.425  0.00  0.00    +0.000 A 
ATOM     24  C   UNL     1      48.530   4.865  17.825  0.00  0.00    +0.000 A 
ATOM     25  C   UNL     1      47.773   4.114  16.926  0.00  0.00    +0.000 A 
ATOM     26  C   UNL     1      47.523   4.605  15.650  0.00  0.00    +0.000 A 
ATOM     27  F   UNL     1      46.783   3.837  14.834  0.00  0.00    +0.000 F 
BRANCH  24  28
ATOM     28  C   UNL     1      48.768   4.273  19.177  0.00  0.00    +0.000 C 
ATOM     29  N   UNL     1      48.337   2.990  19.402  0.00  0.00    +0.000 N 
ATOM     30  O   UNL     1      49.322   4.895  20.055  0.00  0.00    +0.000 OA
ATOM     31  H   UNL     1      47.875   2.397  18.736  0.00  0.00    +0.000 HD
ATOM     32  H   UNL     1      48.514   2.618  20.325  0.00  0.00    +0.000 HD
ENDBRANCH  24  28
ENDBRANCH  19  21
ENDBRANCH  18  19
ENDBRANCH   1  18
TORSDOF 6
ENDMDL
MODEL 6
REMARK VINA RESULT:    -7.942      2.202      2.941
REMARK INTER + INTRA:         -11.567
REMARK INTER:                 -11.072
REMARK INTRA:                  -0.495
REMARK UNBOUND:                -0.839
REMARK  Name = 
REMARK  9 active torsions:
REMARK  status: ('A' for Active; 'I' for Inactive)
REMARK    1  A    between atoms: C_1  and  C_2
REMARK    2  A    between atoms: N_5  and  C_6
REMARK    3  A    between atoms: C_8  and  C_9
REMARK    4  A    between atoms: C_9  and  C_10
REMARK    5  A    between atoms: C_9  and  C_11
REMARK    6  A    between atoms: C_9  and  C_12
REMARK    7  A    between atoms: C_12  and  N_13
REMARK    8  A    between atoms: N_13  and  C_14
REMARK    9  A    between atoms: C_17  and  C_18
REMARK                            x       y       z     vdW  Elec       q    Type
REMARK                         _______ _______ _______ _____ _____    ______ ____
ROOT
ATOM      1  C   UNL     1      44.213   5.112  12.210  0.00  0.00    +0.000 C 
ATOM      2  C   UNL     1      45.237   4.030  12.647  0.00  0.00    +0.000 C 
ATOM      3  C   UNL     1      43.034   5.124  13.214  0.00  0.00    +0.000 C 
ENDROOT
BRANCH   1   6
ATOM      4  C   UNL     1      46.729   7.940  13.024  0.00  0.00    +0.000 A 
ATOM      5  C   UNL     1      46.085   6.692  12.946  0.00  0.00    +0.000 A 
ATOM      6  C   UNL     1      44.905   6.488  12.202  0.00  0.00    +0.000 A 
ATOM      7  C   UNL     1      44.400   7.586  11.488  0.00  0.00    +0.000 A 
ATOM      8  C   UNL     1      45.017   8.829  11.537  0.00  0.00    +0.000 A 
ATOM      9  C   UNL     1      46.157   8.997  12.301  0.00  0.00    +0.000 A 
ATOM     10  F   UNL     1      46.722  10.214  12.296  0.00  0.00    +0.000 F 
BRANCH   4  15
ATOM     11  C   UNL     1      49.424   7.215  17.686  0.00  0.00    +0.000 C 
ATOM     12  C   UNL     1      49.314   7.729  16.254  0.00  0.00    +0.000 C 
ATOM     13  C   UNL     1      49.076   6.563  15.284  0.00  0.00    +0.000 C 
ATOM     14  C   UNL     1      48.879   7.054  13.856  0.00  0.00    +0.000 C 
ATOM     15  N   UNL     1      47.860   8.095  13.807  0.00  0.00    +0.000 N 
ATOM     16  C   UNL     1      48.021   9.248  14.687  0.00  0.00    +0.000 C 
ATOM     17  C   UNL     1      48.190   8.770  16.128  0.00  0.00    +0.000 C 
ENDBRANCH   4  15
ENDBRANCH   1   6
BRANCH   1  18
ATOM     18  C   UNL     1      43.671   4.700  10.809  0.00  0.00    +0.000 C 
BRANCH  18  19
ATOM     19  N   UNL     1      44.014   3.322  10.434  0.00  0.00    +0.000 N 
ATOM     20  H   UNL     1      43.325   2.595  10.628  0.00  0.00    +0.000 HD
BRANCH  19  21
ATOM     21  C   UNL     1      44.857   3.092   9.349  0.00  0.00    +0.000 A 
ATOM     22  C   UNL     1      45.160   1.770   8.998  0.00  0.00    +0.000 A 
ATOM     23  C   UNL     1      46.054   1.484   7.958  0.00  0.00    +0.000 A 
ATOM     24  C   UNL     1      46.684   2.522   7.262  0.00  0.00    +0.000 A 
ATOM     25  C   UNL     1      46.405   3.842   7.613  0.00  0.00    +0.000 A 
ATOM     26  C   UNL     1      45.517   4.112   8.647  0.00  0.00    +0.000 A 
ATOM     27  F   UNL     1      45.286   5.403   8.933  0.00  0.00    +0.000 F 
BRANCH  24  28
ATOM     28  C   UNL     1      47.655   2.303   6.147  0.00  0.00    +0.000 C 
ATOM     29  N   UNL     1      47.655   3.200   5.108  0.00  0.00    +0.000 N 
ATOM     30  O   UNL     1      48.425   1.369   6.148  0.00  0.00    +0.000 OA
ATOM     31  H   UNL     1      47.060   4.005   5.024  0.00  0.00    +0.000 HD
ATOM     32  H   UNL     1      48.324   3.026   4.371  0.00  0.00    +0.000 HD
ENDBRANCH  24  28
ENDBRANCH  19  21
ENDBRANCH  18  19
ENDBRANCH   1  18
TORSDOF 6
ENDMDL
MODEL 7
REMARK VINA RESULT:    -7.740      3.205      4.818
REMARK INTER + INTRA:         -11.295
REMARK INTER:                  -9.704
REMARK INTRA:                  -1.590
REMARK UNBOUND:                -0.839
REMARK  Name = 
REMARK  9 active torsions:
REMARK  status: ('A' for Active; 'I' for Inactive)
REMARK    1  A    between atoms: C_1  and  C_2
REMARK    2  A    between atoms: N_5  and  C_6
REMARK    3  A    between atoms: C_8  and  C_9
REMARK    4  A    between atoms: C_9  and  C_10
REMARK    5  A    between atoms: C_9  and  C_11
REMARK    6  A    between atoms: C_9  and  C_12
REMARK    7  A    between atoms: C_12  and  N_13
REMARK    8  A    between atoms: N_13  and  C_14
REMARK    9  A    between atoms: C_17  and  C_18
REMARK                            x       y       z     vdW  Elec       q    Type
REMARK                         _______ _______ _______ _____ _____    ______ ____
ROOT
ATOM      1  C   UNL     1      48.500   8.103  13.192  0.00  0.00    +0.000 C 
ATOM      2  C   UNL     1      49.432   9.219  12.646  0.00  0.00    +0.000 C 
ATOM      3  C   UNL     1      49.011   6.730  12.693  0.00  0.00    +0.000 C 
ENDROOT
BRANCH   1   6
ATOM      4  C   UNL     1      48.736   6.916  16.870  0.00  0.00    +0.000 A 
ATOM      5  C   UNL     1      48.764   6.958  15.464  0.00  0.00    +0.000 A 
ATOM      6  C   UNL     1      48.519   8.138  14.732  0.00  0.00    +0.000 A 
ATOM      7  C   UNL     1      48.282   9.310  15.467  0.00  0.00    +0.000 A 
ATOM      8  C   UNL     1      48.256   9.304  16.855  0.00  0.00    +0.000 A 
ATOM      9  C   UNL     1      48.473   8.121  17.537  0.00  0.00    +0.000 A 
ATOM     10  F   UNL     1      48.456   8.178  18.878  0.00  0.00    +0.000 F 
BRANCH   4  15
ATOM     11  C   UNL     1      50.521   1.786  17.005  0.00  0.00    +0.000 C 
ATOM     12  C   UNL     1      49.870   3.009  17.646  0.00  0.00    +0.000 C 
ATOM     13  C   UNL     1      50.850   4.192  17.656  0.00  0.00    +0.000 C 
ATOM     14  C   UNL     1      50.200   5.451  18.214  0.00  0.00    +0.000 C 
ATOM     15  N   UNL     1      48.938   5.720  17.537  0.00  0.00    +0.000 N 
ATOM     16  C   UNL     1      47.944   4.653  17.498  0.00  0.00    +0.000 C 
ATOM     17  C   UNL     1      48.575   3.390  16.912  0.00  0.00    +0.000 C 
ENDBRANCH   4  15
ENDBRANCH   1   6
BRANCH   1  18
ATOM     18  C   UNL     1      47.081   8.353  12.600  0.00  0.00    +0.000 C 
BRANCH  18  19
ATOM     19  N   UNL     1      46.025   7.589  13.276  0.00  0.00    +0.000 N 
ATOM     20  H   UNL     1      45.352   8.110  13.841  0.00  0.00    +0.000 HD
BRANCH  19  21
ATOM     21  C   UNL     1      45.559   6.405  12.710  0.00  0.00    +0.000 A 
ATOM     22  C   UNL     1      44.813   6.470  11.526  0.00  0.00    +0.000 A 
ATOM     23  C   UNL     1      44.264   5.317  10.950  0.00  0.00    +0.000 A 
ATOM     24  C   UNL     1      44.432   4.072  11.566  0.00  0.00    +0.000 A 
ATOM     25  C   UNL     1      45.157   3.994  12.755  0.00  0.00    +0.000 A 
ATOM     26  C   UNL     1      45.695   5.146  13.315  0.00  0.00    +0.000 A 
ATOM     27  F   UNL     1      46.387   5.005  14.457  0.00  0.00    +0.000 F 
BRANCH  24  28
ATOM     28  C   UNL     1      43.874   2.796  11.024  0.00  0.00    +0.000 C 
ATOM     29  N   UNL     1      44.490   2.236   9.932  0.00  0.00    +0.000 N 
ATOM     30  O   UNL     1      42.908   2.262  11.521  0.00  0.00    +0.000 OA
ATOM     31  H   UNL     1      45.296   2.602   9.458  0.00  0.00    +0.000 HD
ATOM     32  H   UNL     1      44.091   1.373   9.591  0.00  0.00    +0.000 HD
ENDBRANCH  24  28
ENDBRANCH  19  21
ENDBRANCH  18  19
ENDBRANCH   1  18
TORSDOF 6
ENDMDL
MODEL 8
REMARK VINA RESULT:    -7.319      3.528      5.556
REMARK INTER + INTRA:         -10.725
REMARK INTER:                  -9.153
REMARK INTRA:                  -1.572
REMARK UNBOUND:                -0.839
REMARK  Name = 
REMARK  9 active torsions:
REMARK  status: ('A' for Active; 'I' for Inactive)
REMARK    1  A    between atoms: C_1  and  C_2
REMARK    2  A    between atoms: N_5  and  C_6
REMARK    3  A    between atoms: C_8  and  C_9
REMARK    4  A    between atoms: C_9  and  C_10
REMARK    5  A    between atoms: C_9  and  C_11
REMARK    6  A    between atoms: C_9  and  C_12
REMARK    7  A    between atoms: C_12  and  N_13
REMARK    8  A    between atoms: N_13  and  C_14
REMARK    9  A    between atoms: C_17  and  C_18
REMARK                            x       y       z     vdW  Elec       q    Type
REMARK                         _______ _______ _______ _____ _____    ______ ____
ROOT
ATOM      1  C   UNL     1      48.989   8.949  14.518  0.00  0.00    +0.000 C 
ATOM      2  C   UNL     1      49.086  10.493  14.379  0.00  0.00    +0.000 C 
ATOM      3  C   UNL     1      50.346   8.320  14.119  0.00  0.00    +0.000 C 
ENDROOT
BRANCH   1   6
ATOM      4  C   UNL     1      48.603   6.901  17.781  0.00  0.00    +0.000 A 
ATOM      5  C   UNL     1      48.935   7.302  16.474  0.00  0.00    +0.000 A 
ATOM      6  C   UNL     1      48.659   8.593  15.980  0.00  0.00    +0.000 A 
ATOM      7  C   UNL     1      48.065   9.505  16.866  0.00  0.00    +0.000 A 
ATOM      8  C   UNL     1      47.734   9.143  18.165  0.00  0.00    +0.000 A 
ATOM      9  C   UNL     1      47.994   7.859  18.605  0.00  0.00    +0.000 A 
ATOM     10  F   UNL     1      47.671   7.570  19.875  0.00  0.00    +0.000 F 
BRANCH   4  15
ATOM     11  C   UNL     1      50.225   1.811  16.789  0.00  0.00    +0.000 C 
ATOM     12  C   UNL     1      49.707   2.909  17.714  0.00  0.00    +0.000 C 
ATOM     13  C   UNL     1      50.716   4.064  17.789  0.00  0.00    +0.000 C 
ATOM     14  C   UNL     1      50.189   5.213  18.639  0.00  0.00    +0.000 C 
ATOM     15  N   UNL     1      48.855   5.606  18.200  0.00  0.00    +0.000 N 
ATOM     16  C   UNL     1      47.832   4.569  18.117  0.00  0.00    +0.000 C 
ATOM     17  C   UNL     1      48.337   3.422  17.243  0.00  0.00    +0.000 C 
ENDBRANCH   4  15
ENDBRANCH   1   6
BRANCH   1  18
ATOM     18  C   UNL     1      47.899   8.460  13.517  0.00  0.00    +0.000 C 
BRANCH  18  19
ATOM     19  N   UNL     1      48.226   7.177  12.881  0.00  0.00    +0.000 N 
ATOM     20  H   UNL     1      49.148   6.780  13.066  0.00  0.00    +0.000 HD
BRANCH  19  21
ATOM     21  C   UNL     1      47.210   6.263  12.610  0.00  0.00    +0.000 A 
ATOM     22  C   UNL     1      46.486   6.392  11.417  0.00  0.00    +0.000 A 
ATOM     23  C   UNL     1      45.412   5.542  11.126  0.00  0.00    +0.000 A 
ATOM     24  C   UNL     1      45.024   4.556  12.040  0.00  0.00    +0.000 A 
ATOM     25  C   UNL     1      45.724   4.427  13.239  0.00  0.00    +0.000 A 
ATOM     26  C   UNL     1      46.788   5.278  13.515  0.00  0.00    +0.000 A 
ATOM     27  F   UNL     1      47.424   5.101  14.684  0.00  0.00    +0.000 F 
BRANCH  24  28
ATOM     28  C   UNL     1      43.886   3.614  11.811  0.00  0.00    +0.000 C 
ATOM     29  N   UNL     1      43.834   2.471  12.569  0.00  0.00    +0.000 N 
ATOM     30  O   UNL     1      43.029   3.840  10.986  0.00  0.00    +0.000 OA
ATOM     31  H   UNL     1      44.493   2.203  13.278  0.00  0.00    +0.000 HD
ATOM     32  H   UNL     1      43.052   1.857  12.392  0.00  0.00    +0.000 HD
ENDBRANCH  24  28
ENDBRANCH  19  21
ENDBRANCH  18  19
ENDBRANCH   1  18
TORSDOF 6
ENDMDL
MODEL 9
REMARK VINA RESULT:    -7.160      3.368      8.420
REMARK INTER + INTRA:         -10.510
REMARK INTER:                  -9.591
REMARK INTRA:                  -0.919
REMARK UNBOUND:                -0.839
REMARK  Name = 
REMARK  9 active torsions:
REMARK  status: ('A' for Active; 'I' for Inactive)
REMARK    1  A    between atoms: C_1  and  C_2
REMARK    2  A    between atoms: N_5  and  C_6
REMARK    3  A    between atoms: C_8  and  C_9
REMARK    4  A    between atoms: C_9  and  C_10
REMARK    5  A    between atoms: C_9  and  C_11
REMARK    6  A    between atoms: C_9  and  C_12
REMARK    7  A    between atoms: C_12  and  N_13
REMARK    8  A    between atoms: N_13  and  C_14
REMARK    9  A    between atoms: C_17  and  C_18
REMARK                            x       y       z     vdW  Elec       q    Type
REMARK                         _______ _______ _______ _____ _____    ______ ____
ROOT
ATOM      1  C   UNL     1      46.709   6.768  12.763  0.00  0.00    +0.000 C 
ATOM      2  C   UNL     1      47.648   7.026  11.553  0.00  0.00    +0.000 C 
ATOM      3  C   UNL     1      46.031   8.099  13.167  0.00  0.00    +0.000 C 
ENDROOT
BRANCH   1   6
ATOM      4  C   UNL     1      44.736   4.182  10.664  0.00  0.00    +0.000 A 
ATOM      5  C   UNL     1      45.715   5.086  11.111  0.00  0.00    +0.000 A 
ATOM      6  C   UNL     1      45.637   5.738  12.359  0.00  0.00    +0.000 A 
ATOM      7  C   UNL     1      44.546   5.418  13.183  0.00  0.00    +0.000 A 
ATOM      8  C   UNL     1      43.567   4.522  12.773  0.00  0.00    +0.000 A 
ATOM      9  C   UNL     1      43.663   3.925  11.531  0.00  0.00    +0.000 A 
ATOM     10  F   UNL     1      42.700   3.053  11.196  0.00  0.00    +0.000 F 
BRANCH   4  15
ATOM     11  C   UNL     1      47.636   1.737   6.774  0.00  0.00    +0.000 C 
ATOM     12  C   UNL     1      46.337   2.311   7.334  0.00  0.00    +0.000 C 
ATOM     13  C   UNL     1      45.929   1.561   8.610  0.00  0.00    +0.000 C 
ATOM     14  C   UNL     1      44.680   2.166   9.238  0.00  0.00    +0.000 C 
ATOM     15  N   UNL     1      44.838   3.605   9.409  0.00  0.00    +0.000 N 
ATOM     16  C   UNL     1      45.209   4.394   8.240  0.00  0.00    +0.000 C 
ATOM     17  C   UNL     1      46.478   3.815   7.616  0.00  0.00    +0.000 C 
ENDBRANCH   4  15
ENDBRANCH   1   6
BRANCH   1  18
ATOM     18  C   UNL     1      47.599   6.281  13.945  0.00  0.00    +0.000 C 
BRANCH  18  19
ATOM     19  N   UNL     1      48.118   7.377  14.773  0.00  0.00    +0.000 N 
ATOM     20  H   UNL     1      47.574   7.647  15.595  0.00  0.00    +0.000 HD
BRANCH  19  21
ATOM     21  C   UNL     1      49.492   7.591  14.854  0.00  0.00    +0.000 A 
ATOM     22  C   UNL     1      50.116   8.356  13.860  0.00  0.00    +0.000 A 
ATOM     23  C   UNL     1      51.504   8.546  13.856  0.00  0.00    +0.000 A 
ATOM     24  C   UNL     1      52.301   7.949  14.839  0.00  0.00    +0.000 A 
ATOM     25  C   UNL     1      51.696   7.170  15.824  0.00  0.00    +0.000 A 
ATOM     26  C   UNL     1      50.318   6.990  15.815  0.00  0.00    +0.000 A 
ATOM     27  F   UNL     1      49.794   6.233  16.793  0.00  0.00    +0.000 F 
BRANCH  24  28
ATOM     28  C   UNL     1      53.787   8.094  14.902  0.00  0.00    +0.000 C 
ATOM     29  N   UNL     1      54.301   9.158  15.601  0.00  0.00    +0.000 N 
ATOM     30  O   UNL     1      54.528   7.305  14.359  0.00  0.00    +0.000 OA
ATOM     31  H   UNL     1      53.768   9.857  16.087  0.00  0.00    +0.000 HD
ATOM     32  H   UNL     1      55.309   9.227  15.627  0.00  0.00    +0.000 HD
ENDBRANCH  24  28
ENDBRANCH  19  21
ENDBRANCH  18  19
ENDBRANCH   1  18
TORSDOF 6
ENDMDL
