MODEL 1
REMARK VINA RESULT:    -9.276      0.000      0.000
REMARK INTER + INTRA:         -13.479
REMARK INTER:                 -12.530
REMARK INTRA:                  -0.949
REMARK UNBOUND:                -0.949
REMARK  Name = 
REMARK  6 active torsions:
REMARK  status: ('A' for Active; 'I' for Inactive)
REMARK    1  A    between atoms: C_2  and  C_4
REMARK    2  A    between atoms: C_7  and  N_8
REMARK    3  A    between atoms: N_8  and  C_9
REMARK    4  A    between atoms: C_9  and  C_10
REMARK    5  A    between atoms: C_10  and  C_13
REMARK    6  A    between atoms: C_17  and  C_18
REMARK                            x       y       z     vdW  Elec       q    Type
REMARK                         _______ _______ _______ _____ _____    ______ ____
ROOT
ATOM      1  C   UNL     1      43.372   5.317  12.241  0.00  0.00    +0.000 C 
ATOM      2  F   UNL     1      42.727   6.422  11.745  0.00  0.00    +0.000 F 
ATOM      3  F   UNL     1      42.595   4.900  13.287  0.00  0.00    +0.000 F 
ENDROOT
BRANCH   1   4
ATOM      4  C   UNL     1      44.785   5.638  12.690  0.00  0.00    +0.000 A 
ATOM      5  C   UNL     1      45.515   4.699  13.430  0.00  0.00    +0.000 A 
ATOM      6  C   UNL     1      46.817   4.975  13.828  0.00  0.00    +0.000 A 
ATOM      7  C   UNL     1      47.414   6.185  13.470  0.00  0.00    +0.000 A 
ATOM      8  C   UNL     1      46.732   7.145  12.704  0.00  0.00    +0.000 A 
ATOM      9  C   UNL     1      45.397   6.858  12.350  0.00  0.00    +0.000 A 
BRANCH   8  10
ATOM     10  C   UNL     1      47.405   8.390  12.256  0.00  0.00    +0.000 A 
ATOM     11  C   UNL     1      46.739   9.632  12.285  0.00  0.00    +0.000 A 
ATOM     12  C   UNL     1      47.360  10.810  11.851  0.00  0.00    +0.000 A 
ATOM     13  C   UNL     1      48.673  10.778  11.392  0.00  0.00    +0.000 A 
ATOM     14  C   UNL     1      49.346   9.566  11.350  0.00  0.00    +0.000 A 
ATOM     15  F   UNL     1      50.610   9.533  10.903  0.00  0.00    +0.000 F 
ATOM     16  C   UNL     1      48.723   8.392  11.762  0.00  0.00    +0.000 A 
ATOM     17  F   UNL     1      49.418   7.244  11.658  0.00  0.00    +0.000 F 
ENDBRANCH   8  10
ENDBRANCH   1   4
BRANCH   1  18
ATOM     18  C   UNL     1      43.345   4.225  11.137  0.00  0.00    +0.000 C 
BRANCH  18  19
ATOM     19  N   UNL     1      43.770   4.761   9.822  0.00  0.00    +0.000 N 
ATOM     20  H   UNL     1      44.125   5.711   9.886  0.00  0.00    +0.000 HD
BRANCH  19  24
ATOM     21  C   UNL     1      46.338   2.272   7.796  0.00  0.00    +0.000 A 
ATOM     22  C   UNL     1      46.255   3.621   7.480  0.00  0.00    +0.000 A 
ATOM     23  N   UNL     1      45.400   4.474   8.107  0.00  0.00    +0.000 NA
ATOM     24  C   UNL     1      44.614   3.942   9.070  0.00  0.00    +0.000 A 
ATOM     25  C   UNL     1      44.708   2.574   9.367  0.00  0.00    +0.000 A 
ATOM     26  N   UNL     1      45.550   1.701   8.744  0.00  0.00    +0.000 NA
BRANCH  21  28
ATOM     27  N   UNL     1      48.469   2.043   6.654  0.00  0.00    +0.000 N 
ATOM     28  C   UNL     1      47.336   1.415   7.100  0.00  0.00    +0.000 C 
ATOM     29  O   UNL     1      47.163   0.214   6.931  0.00  0.00    +0.000 OA
ATOM     30  H   UNL     1      49.189   1.498   6.203  0.00  0.00    +0.000 HD
ATOM     31  H   UNL     1      48.627   3.021   6.868  0.00  0.00    +0.000 HD
ENDBRANCH  21  28
ENDBRANCH  19  24
ENDBRANCH  18  19
ENDBRANCH   1  18
TORSDOF 6
ENDMDL
MODEL 2
REMARK VINA RESULT:    -9.183      2.194      3.990
REMARK INTER + INTRA:         -13.354
REMARK INTER:                 -12.435
REMARK INTRA:                  -0.919
REMARK UNBOUND:                -0.949
REMARK  Name = 
REMARK  6 active torsions:
REMARK  status: ('A' for Active; 'I' for Inactive)
REMARK    1  A    between atoms: C_2  and  C_4
REMARK    2  A    between atoms: C_7  and  N_8
REMARK    3  A    between atoms: N_8  and  C_9
REMARK    4  A    between atoms: C_9  and  C_10
REMARK    5  A    between atoms: C_10  and  C_13
REMARK    6  A    between atoms: C_17  and  C_18
REMARK                            x       y       z     vdW  Elec       q    Type
REMARK                         _______ _______ _______ _____ _____    ______ ____
ROOT
ATOM      1  C   UNL     1      43.699   5.598  12.123  0.00  0.00    +0.000 C 
ATOM      2  F   UNL     1      43.168   6.725  11.548  0.00  0.00    +0.000 F 
ATOM      3  F   UNL     1      42.946   5.393  13.247  0.00  0.00    +0.000 F 
ENDROOT
BRANCH   1   4
ATOM      4  C   UNL     1      45.168   5.771  12.462  0.00  0.00    +0.000 A 
ATOM      5  C   UNL     1      45.979   6.591  11.669  0.00  0.00    +0.000 A 
ATOM      6  C   UNL     1      47.320   6.773  11.982  0.00  0.00    +0.000 A 
ATOM      7  C   UNL     1      47.860   6.155  13.111  0.00  0.00    +0.000 A 
ATOM      8  C   UNL     1      47.080   5.346  13.955  0.00  0.00    +0.000 A 
ATOM      9  C   UNL     1      45.733   5.144  13.588  0.00  0.00    +0.000 A 
BRANCH   8  10
ATOM     10  C   UNL     1      47.643   4.764  15.198  0.00  0.00    +0.000 A 
ATOM     11  C   UNL     1      47.509   3.391  15.490  0.00  0.00    +0.000 A 
ATOM     12  C   UNL     1      48.025   2.835  16.667  0.00  0.00    +0.000 A 
ATOM     13  C   UNL     1      48.704   3.638  17.577  0.00  0.00    +0.000 A 
ATOM     14  C   UNL     1      48.845   4.992  17.314  0.00  0.00    +0.000 A 
ATOM     15  F   UNL     1      49.496   5.766  18.193  0.00  0.00    +0.000 F 
ATOM     16  C   UNL     1      48.316   5.549  16.154  0.00  0.00    +0.000 A 
ATOM     17  F   UNL     1      48.451   6.876  15.979  0.00  0.00    +0.000 F 
ENDBRANCH   8  10
ENDBRANCH   1   4
BRANCH   1  18
ATOM     18  C   UNL     1      43.463   4.416  11.144  0.00  0.00    +0.000 C 
BRANCH  18  19
ATOM     19  N   UNL     1      43.736   4.802   9.739  0.00  0.00    +0.000 N 
ATOM     20  H   UNL     1      43.992   5.781   9.648  0.00  0.00    +0.000 HD
BRANCH  19  24
ATOM     21  C   UNL     1      46.373   2.271   7.858  0.00  0.00    +0.000 A 
ATOM     22  C   UNL     1      46.366   3.630   7.577  0.00  0.00    +0.000 A 
ATOM     23  N   UNL     1      45.493   4.498   8.157  0.00  0.00    +0.000 NA
ATOM     24  C   UNL     1      44.611   3.971   9.035  0.00  0.00    +0.000 A 
ATOM     25  C   UNL     1      44.630   2.593   9.297  0.00  0.00    +0.000 A 
ATOM     26  N   UNL     1      45.488   1.706   8.720  0.00  0.00    +0.000 NA
BRANCH  21  28
ATOM     27  N   UNL     1      48.428   2.032   6.586  0.00  0.00    +0.000 N 
ATOM     28  C   UNL     1      47.394   1.396   7.221  0.00  0.00    +0.000 C 
ATOM     29  O   UNL     1      47.322   0.173   7.258  0.00  0.00    +0.000 OA
ATOM     30  H   UNL     1      49.161   1.480   6.165  0.00  0.00    +0.000 HD
ATOM     31  H   UNL     1      48.509   3.041   6.630  0.00  0.00    +0.000 HD
ENDBRANCH  21  28
ENDBRANCH  19  24
ENDBRANCH  18  19
ENDBRANCH   1  18
TORSDOF 6
ENDMDL
MODEL 3
REMARK VINA RESULT:    -9.068      1.198      1.503
REMARK INTER + INTRA:         -13.198
REMARK INTER:                 -12.209
REMARK INTRA:                  -0.989
REMARK UNBOUND:                -0.949
REMARK  Name = 
REMARK  6 active torsions:
REMARK  status: ('A' for Active; 'I' for Inactive)
REMARK    1  A    between atoms: C_2  and  C_4
REMARK    2  A    between atoms: C_7  and  N_8
REMARK    3  A    between atoms: N_8  and  C_9
REMARK    4  A    between atoms: C_9  and  C_10
REMARK    5  A    between atoms: C_10  and  C_13
REMARK    6  A    between atoms: C_17  and  C_18
REMARK                            x       y       z     vdW  Elec       q    Type
REMARK                         _______ _______ _______ _____ _____    ______ ____
ROOT
ATOM      1  C   UNL     1      43.443   5.109  12.250  0.00  0.00    +0.000 C 
ATOM      2  F   UNL     1      42.830   6.266  11.841  0.00  0.00    +0.000 F 
ATOM      3  F   UNL     1      42.646   4.628  13.253  0.00  0.00    +0.000 F 
ENDROOT
BRANCH   1   4
ATOM      4  C   UNL     1      44.858   5.358  12.737  0.00  0.00    +0.000 A 
ATOM      5  C   UNL     1      45.503   4.405  13.535  0.00  0.00    +0.000 A 
ATOM      6  C   UNL     1      46.807   4.613  13.968  0.00  0.00    +0.000 A 
ATOM      7  C   UNL     1      47.491   5.769  13.586  0.00  0.00    +0.000 A 
ATOM      8  C   UNL     1      46.897   6.740  12.762  0.00  0.00    +0.000 A 
ATOM      9  C   UNL     1      45.558   6.523  12.373  0.00  0.00    +0.000 A 
BRANCH   8  10
ATOM     10  C   UNL     1      47.662   7.921  12.292  0.00  0.00    +0.000 A 
ATOM     11  C   UNL     1      49.010   7.808  11.893  0.00  0.00    +0.000 A 
ATOM     12  C   UNL     1      49.744   8.919  11.461  0.00  0.00    +0.000 A 
ATOM     13  C   UNL     1      49.143  10.172  11.401  0.00  0.00    +0.000 A 
ATOM     14  C   UNL     1      47.819  10.308  11.792  0.00  0.00    +0.000 A 
ATOM     15  F   UNL     1      47.241  11.516  11.738  0.00  0.00    +0.000 F 
ATOM     16  C   UNL     1      47.094   9.208  12.240  0.00  0.00    +0.000 A 
ATOM     17  F   UNL     1      45.827   9.415  12.644  0.00  0.00    +0.000 F 
ENDBRANCH   8  10
ENDBRANCH   1   4
BRANCH   1  18
ATOM     18  C   UNL     1      43.402   4.111  11.061  0.00  0.00    +0.000 C 
BRANCH  18  19
ATOM     19  N   UNL     1      43.798   4.756   9.787  0.00  0.00    +0.000 N 
ATOM     20  H   UNL     1      44.069   5.728   9.911  0.00  0.00    +0.000 HD
BRANCH  19  24
ATOM     21  C   UNL     1      46.578   2.589   7.671  0.00  0.00    +0.000 A 
ATOM     22  C   UNL     1      46.525   3.973   7.571  0.00  0.00    +0.000 A 
ATOM     23  N   UNL     1      45.604   4.726   8.233  0.00  0.00    +0.000 NA
ATOM     24  C   UNL     1      44.721   4.056   9.007  0.00  0.00    +0.000 A 
ATOM     25  C   UNL     1      44.786   2.657   9.086  0.00  0.00    +0.000 A 
ATOM     26  N   UNL     1      45.692   1.885   8.424  0.00  0.00    +0.000 NA
BRANCH  21  28
ATOM     27  N   UNL     1      48.520   2.593   6.214  0.00  0.00    +0.000 N 
ATOM     28  C   UNL     1      47.647   1.842   6.956  0.00  0.00    +0.000 C 
ATOM     29  O   UNL     1      47.749   0.622   7.023  0.00  0.00    +0.000 OA
ATOM     30  H   UNL     1      49.281   2.133   5.735  0.00  0.00    +0.000 HD
ATOM     31  H   UNL     1      48.463   3.605   6.231  0.00  0.00    +0.000 HD
ENDBRANCH  21  28
ENDBRANCH  19  24
ENDBRANCH  18  19
ENDBRANCH   1  18
TORSDOF 6
ENDMDL
MODEL 4
REMARK VINA RESULT:    -8.960      2.395      4.012
REMARK INTER + INTRA:         -13.052
REMARK INTER:                 -12.103
REMARK INTRA:                  -0.948
REMARK UNBOUND:                -0.949
REMARK  Name = 
REMARK  6 active torsions:
REMARK  status: ('A' for Active; 'I' for Inactive)
REMARK    1  A    between atoms: C_2  and  C_4
REMARK    2  A    between atoms: C_7  and  N_8
REMARK    3  A    between atoms: N_8  and  C_9
REMARK    4  A    between atoms: C_9  and  C_10
REMARK    5  A    between atoms: C_10  and  C_13
REMARK    6  A    between atoms: C_17  and  C_18
REMARK                            x       y       z     vdW  Elec       q    Type
REMARK                         _______ _______ _______ _____ _____    ______ ____
ROOT
ATOM      1  C   UNL     1      44.018   5.786  12.097  0.00  0.00    +0.000 C 
ATOM      2  F   UNL     1      43.476   6.840  11.406  0.00  0.00    +0.000 F 
ATOM      3  F   UNL     1      43.262   5.690  13.234  0.00  0.00    +0.000 F 
ENDROOT
BRANCH   1   4
ATOM      4  C   UNL     1      45.483   6.013  12.421  0.00  0.00    +0.000 A 
ATOM      5  C   UNL     1      46.290   6.746  11.543  0.00  0.00    +0.000 A 
ATOM      6  C   UNL     1      47.627   6.977  11.840  0.00  0.00    +0.000 A 
ATOM      7  C   UNL     1      48.168   6.498  13.035  0.00  0.00    +0.000 A 
ATOM      8  C   UNL     1      47.391   5.782  13.962  0.00  0.00    +0.000 A 
ATOM      9  C   UNL     1      46.048   5.525  13.614  0.00  0.00    +0.000 A 
BRANCH   8  10
ATOM     10  C   UNL     1      47.953   5.352  15.266  0.00  0.00    +0.000 A 
ATOM     11  C   UNL     1      48.673   6.247  16.083  0.00  0.00    +0.000 A 
ATOM     12  C   UNL     1      49.219   5.847  17.309  0.00  0.00    +0.000 A 
ATOM     13  C   UNL     1      49.044   4.542  17.758  0.00  0.00    +0.000 A 
ATOM     14  C   UNL     1      48.342   3.642  16.969  0.00  0.00    +0.000 A 
ATOM     15  F   UNL     1      48.177   2.384  17.398  0.00  0.00    +0.000 F 
ATOM     16  C   UNL     1      47.816   4.034  15.742  0.00  0.00    +0.000 A 
ATOM     17  F   UNL     1      47.183   3.102  15.006  0.00  0.00    +0.000 F 
ENDBRANCH   8  10
ENDBRANCH   1   4
BRANCH   1  18
ATOM     18  C   UNL     1      43.801   4.506  11.246  0.00  0.00    +0.000 C 
BRANCH  18  19
ATOM     19  N   UNL     1      43.853   4.795   9.794  0.00  0.00    +0.000 N 
ATOM     20  H   UNL     1      44.023   5.778   9.599  0.00  0.00    +0.000 HD
BRANCH  19  24
ATOM     21  C   UNL     1      46.369   2.274   7.741  0.00  0.00    +0.000 A 
ATOM     22  C   UNL     1      46.304   3.626   7.430  0.00  0.00    +0.000 A 
ATOM     23  N   UNL     1      45.466   4.489   8.067  0.00  0.00    +0.000 NA
ATOM     24  C   UNL     1      44.680   3.966   9.033  0.00  0.00    +0.000 A 
ATOM     25  C   UNL     1      44.755   2.595   9.324  0.00  0.00    +0.000 A 
ATOM     26  N   UNL     1      45.578   1.713   8.692  0.00  0.00    +0.000 NA
BRANCH  21  28
ATOM     27  N   UNL     1      48.505   2.010   6.616  0.00  0.00    +0.000 N 
ATOM     28  C   UNL     1      47.349   1.405   7.035  0.00  0.00    +0.000 C 
ATOM     29  O   UNL     1      47.142   0.214   6.835  0.00  0.00    +0.000 OA
ATOM     30  H   UNL     1      49.213   1.454   6.159  0.00  0.00    +0.000 HD
ATOM     31  H   UNL     1      48.689   2.977   6.855  0.00  0.00    +0.000 HD
ENDBRANCH  21  28
ENDBRANCH  19  24
ENDBRANCH  18  19
ENDBRANCH   1  18
TORSDOF 6
ENDMDL
MODEL 5
REMARK VINA RESULT:    -8.396      1.754      2.373
REMARK INTER + INTRA:         -12.290
REMARK INTER:                 -11.546
REMARK INTRA:                  -0.744
REMARK UNBOUND:                -0.949
REMARK  Name = 
REMARK  6 active torsions:
REMARK  status: ('A' for Active; 'I' for Inactive)
REMARK    1  A    between atoms: C_2  and  C_4
REMARK    2  A    between atoms: C_7  and  N_8
REMARK    3  A    between atoms: N_8  and  C_9
REMARK    4  A    between atoms: C_9  and  C_10
REMARK    5  A    between atoms: C_10  and  C_13
REMARK    6  A    between atoms: C_17  and  C_18
REMARK                            x       y       z     vdW  Elec       q    Type
REMARK                         _______ _______ _______ _____ _____    ______ ____
ROOT
ATOM      1  C   UNL     1      44.478   4.255  12.184  0.00  0.00    +0.000 C 
ATOM      2  F   UNL     1      43.856   4.047  13.389  0.00  0.00    +0.000 F 
ATOM      3  F   UNL     1      45.495   3.341  12.154  0.00  0.00    +0.000 F 
ENDROOT
BRANCH   1   4
ATOM      4  C   UNL     1      45.001   5.673  12.053  0.00  0.00    +0.000 A 
ATOM      5  C   UNL     1      44.116   6.726  11.791  0.00  0.00    +0.000 A 
ATOM      6  C   UNL     1      44.582   8.031  11.689  0.00  0.00    +0.000 A 
ATOM      7  C   UNL     1      45.939   8.302  11.874  0.00  0.00    +0.000 A 
ATOM      8  C   UNL     1      46.862   7.283  12.168  0.00  0.00    +0.000 A 
ATOM      9  C   UNL     1      46.368   5.962  12.222  0.00  0.00    +0.000 A 
BRANCH   8  10
ATOM     10  C   UNL     1      48.285   7.593  12.447  0.00  0.00    +0.000 A 
ATOM     11  C   UNL     1      49.167   7.974  11.415  0.00  0.00    +0.000 A 
ATOM     12  C   UNL     1      50.516   8.255  11.666  0.00  0.00    +0.000 A 
ATOM     13  C   UNL     1      51.015   8.178  12.962  0.00  0.00    +0.000 A 
ATOM     14  C   UNL     1      50.167   7.802  13.993  0.00  0.00    +0.000 A 
ATOM     15  F   UNL     1      50.648   7.724  15.242  0.00  0.00    +0.000 F 
ATOM     16  C   UNL     1      48.831   7.503  13.742  0.00  0.00    +0.000 A 
ATOM     17  F   UNL     1      48.072   7.104  14.779  0.00  0.00    +0.000 F 
ENDBRANCH   8  10
ENDBRANCH   1   4
BRANCH   1  18
ATOM     18  C   UNL     1      43.461   3.904  11.065  0.00  0.00    +0.000 C 
BRANCH  18  19
ATOM     19  N   UNL     1      43.793   4.578   9.787  0.00  0.00    +0.000 N 
ATOM     20  H   UNL     1      44.008   5.564   9.913  0.00  0.00    +0.000 HD
BRANCH  19  24
ATOM     21  C   UNL     1      46.653   2.589   7.605  0.00  0.00    +0.000 A 
ATOM     22  C   UNL     1      46.529   3.969   7.528  0.00  0.00    +0.000 A 
ATOM     23  N   UNL     1      45.580   4.664   8.213  0.00  0.00    +0.000 NA
ATOM     24  C   UNL     1      44.741   3.939   8.986  0.00  0.00    +0.000 A 
ATOM     25  C   UNL     1      44.878   2.544   9.041  0.00  0.00    +0.000 A 
ATOM     26  N   UNL     1      45.814   1.829   8.356  0.00  0.00    +0.000 NA
BRANCH  21  28
ATOM     27  N   UNL     1      48.655   2.723   6.239  0.00  0.00    +0.000 N 
ATOM     28  C   UNL     1      47.750   1.908   6.866  0.00  0.00    +0.000 C 
ATOM     29  O   UNL     1      47.846   0.687   6.816  0.00  0.00    +0.000 OA
ATOM     30  H   UNL     1      49.435   2.307   5.750  0.00  0.00    +0.000 HD
ATOM     31  H   UNL     1      48.601   3.728   6.353  0.00  0.00    +0.000 HD
ENDBRANCH  21  28
ENDBRANCH  19  24
ENDBRANCH  18  19
ENDBRANCH   1  18
TORSDOF 6
ENDMDL
MODEL 6
REMARK VINA RESULT:    -8.253      4.581      7.589
REMARK INTER + INTRA:         -12.097
REMARK INTER:                 -11.372
REMARK INTRA:                  -0.725
REMARK UNBOUND:                -0.949
REMARK  Name = 
REMARK  6 active torsions:
REMARK  status: ('A' for Active; 'I' for Inactive)
REMARK    1  A    between atoms: C_2  and  C_4
REMARK    2  A    between atoms: C_7  and  N_8
REMARK    3  A    between atoms: N_8  and  C_9
REMARK    4  A    between atoms: C_9  and  C_10
REMARK    5  A    between atoms: C_10  and  C_13
REMARK    6  A    between atoms: C_17  and  C_18
REMARK                            x       y       z     vdW  Elec       q    Type
REMARK                         _______ _______ _______ _____ _____    ______ ____
ROOT
ATOM      1  C   UNL     1      45.924   7.465  12.304  0.00  0.00    +0.000 C 
ATOM      2  F   UNL     1      45.109   8.284  13.045  0.00  0.00    +0.000 F 
ATOM      3  F   UNL     1      46.578   8.308  11.447  0.00  0.00    +0.000 F 
ENDROOT
BRANCH   1   4
ATOM      4  C   UNL     1      45.136   6.409  11.552  0.00  0.00    +0.000 A 
ATOM      5  C   UNL     1      43.753   6.297  11.744  0.00  0.00    +0.000 A 
ATOM      6  C   UNL     1      43.019   5.347  11.045  0.00  0.00    +0.000 A 
ATOM      7  C   UNL     1      43.657   4.513  10.125  0.00  0.00    +0.000 A 
ATOM      8  C   UNL     1      45.036   4.607   9.876  0.00  0.00    +0.000 A 
ATOM      9  C   UNL     1      45.764   5.551  10.632  0.00  0.00    +0.000 A 
BRANCH   8  10
ATOM     10  C   UNL     1      45.688   3.775   8.835  0.00  0.00    +0.000 A 
ATOM     11  C   UNL     1      46.356   4.364   7.740  0.00  0.00    +0.000 A 
ATOM     12  C   UNL     1      46.962   3.587   6.745  0.00  0.00    +0.000 A 
ATOM     13  C   UNL     1      46.930   2.199   6.828  0.00  0.00    +0.000 A 
ATOM     14  C   UNL     1      46.276   1.598   7.893  0.00  0.00    +0.000 A 
ATOM     15  F   UNL     1      46.241   0.260   7.970  0.00  0.00    +0.000 F 
ATOM     16  C   UNL     1      45.656   2.368   8.872  0.00  0.00    +0.000 A 
ATOM     17  F   UNL     1      45.003   1.724   9.856  0.00  0.00    +0.000 F 
ENDBRANCH   8  10
ENDBRANCH   1   4
BRANCH   1  18
ATOM     18  C   UNL     1      46.963   6.837  13.273  0.00  0.00    +0.000 C 
BRANCH  18  19
ATOM     19  N   UNL     1      46.535   5.500  13.746  0.00  0.00    +0.000 N 
ATOM     20  H   UNL     1      46.545   4.804  13.005  0.00  0.00    +0.000 HD
BRANCH  19  24
ATOM     21  C   UNL     1      48.566   4.145  17.054  0.00  0.00    +0.000 A 
ATOM     22  C   UNL     1      47.490   3.436  16.537  0.00  0.00    +0.000 A 
ATOM     23  N   UNL     1      46.775   3.862  15.461  0.00  0.00    +0.000 NA
ATOM     24  C   UNL     1      47.160   5.032  14.904  0.00  0.00    +0.000 A 
ATOM     25  C   UNL     1      48.244   5.737  15.449  0.00  0.00    +0.000 A 
ATOM     26  N   UNL     1      48.966   5.334  16.531  0.00  0.00    +0.000 NA
BRANCH  21  28
ATOM     27  N   UNL     1      48.595   3.207  19.293  0.00  0.00    +0.000 N 
ATOM     28  C   UNL     1      49.330   3.586  18.201  0.00  0.00    +0.000 C 
ATOM     29  O   UNL     1      50.550   3.468  18.180  0.00  0.00    +0.000 OA
ATOM     30  H   UNL     1      49.066   2.794  20.085  0.00  0.00    +0.000 HD
ATOM     31  H   UNL     1      47.582   3.244  19.263  0.00  0.00    +0.000 HD
ENDBRANCH  21  28
ENDBRANCH  19  24
ENDBRANCH  18  19
ENDBRANCH   1  18
TORSDOF 6
ENDMDL
MODEL 7
REMARK VINA RESULT:    -8.027      4.292      7.687
REMARK INTER + INTRA:         -11.792
REMARK INTER:                 -10.497
REMARK INTRA:                  -1.295
REMARK UNBOUND:                -0.949
REMARK  Name = 
REMARK  6 active torsions:
REMARK  status: ('A' for Active; 'I' for Inactive)
REMARK    1  A    between atoms: C_2  and  C_4
REMARK    2  A    between atoms: C_7  and  N_8
REMARK    3  A    between atoms: N_8  and  C_9
REMARK    4  A    between atoms: C_9  and  C_10
REMARK    5  A    between atoms: C_10  and  C_13
REMARK    6  A    between atoms: C_17  and  C_18
REMARK                            x       y       z     vdW  Elec       q    Type
REMARK                         _______ _______ _______ _____ _____    ______ ____
ROOT
ATOM      1  C   UNL     1      48.960   8.311  12.287  0.00  0.00    +0.000 C 
ATOM      2  F   UNL     1      49.182   9.601  12.700  0.00  0.00    +0.000 F 
ATOM      3  F   UNL     1      49.653   8.196  11.113  0.00  0.00    +0.000 F 
ENDROOT
BRANCH   1   4
ATOM      4  C   UNL     1      47.483   8.024  12.091  0.00  0.00    +0.000 A 
ATOM      5  C   UNL     1      46.529   8.989  12.437  0.00  0.00    +0.000 A 
ATOM      6  C   UNL     1      45.175   8.745  12.242  0.00  0.00    +0.000 A 
ATOM      7  C   UNL     1      44.761   7.539  11.673  0.00  0.00    +0.000 A 
ATOM      8  C   UNL     1      45.681   6.552  11.282  0.00  0.00    +0.000 A 
ATOM      9  C   UNL     1      47.046   6.809  11.532  0.00  0.00    +0.000 A 
BRANCH   8  10
ATOM     10  C   UNL     1      45.235   5.313  10.600  0.00  0.00    +0.000 A 
ATOM     11  C   UNL     1      45.556   5.065   9.249  0.00  0.00    +0.000 A 
ATOM     12  C   UNL     1      45.128   3.904   8.593  0.00  0.00    +0.000 A 
ATOM     13  C   UNL     1      44.381   2.951   9.277  0.00  0.00    +0.000 A 
ATOM     14  C   UNL     1      44.050   3.175  10.605  0.00  0.00    +0.000 A 
ATOM     15  F   UNL     1      43.326   2.260  11.264  0.00  0.00    +0.000 F 
ATOM     16  C   UNL     1      44.458   4.337  11.253  0.00  0.00    +0.000 A 
ATOM     17  F   UNL     1      44.068   4.513  12.529  0.00  0.00    +0.000 F 
ENDBRANCH   8  10
ENDBRANCH   1   4
BRANCH   1  18
ATOM     18  C   UNL     1      49.602   7.365  13.338  0.00  0.00    +0.000 C 
BRANCH  18  19
ATOM     19  N   UNL     1      49.167   7.697  14.716  0.00  0.00    +0.000 N 
ATOM     20  H   UNL     1      48.545   8.500  14.744  0.00  0.00    +0.000 HD
BRANCH  19  24
ATOM     21  C   UNL     1      47.917   4.546  17.040  0.00  0.00    +0.000 A 
ATOM     22  C   UNL     1      47.668   4.568  15.675  0.00  0.00    +0.000 A 
ATOM     23  N   UNL     1      48.041   5.603  14.874  0.00  0.00    +0.000 NA
ATOM     24  C   UNL     1      48.675   6.634  15.475  0.00  0.00    +0.000 A 
ATOM     25  C   UNL     1      48.907   6.595  16.858  0.00  0.00    +0.000 A 
ATOM     26  N   UNL     1      48.533   5.574  17.679  0.00  0.00    +0.000 NA
BRANCH  21  28
ATOM     27  N   UNL     1      48.293   3.078  18.938  0.00  0.00    +0.000 N 
ATOM     28  C   UNL     1      47.523   3.354  17.839  0.00  0.00    +0.000 C 
ATOM     29  O   UNL     1      46.565   2.651  17.538  0.00  0.00    +0.000 OA
ATOM     30  H   UNL     1      48.047   2.297  19.528  0.00  0.00    +0.000 HD
ATOM     31  H   UNL     1      49.035   3.712  19.212  0.00  0.00    +0.000 HD
ENDBRANCH  21  28
ENDBRANCH  19  24
ENDBRANCH  18  19
ENDBRANCH   1  18
TORSDOF 6
ENDMDL
MODEL 8
REMARK VINA RESULT:    -7.480      2.887      3.829
REMARK INTER + INTRA:         -11.054
REMARK INTER:                 -10.088
REMARK INTRA:                  -0.966
REMARK UNBOUND:                -0.949
REMARK  Name = 
REMARK  6 active torsions:
REMARK  status: ('A' for Active; 'I' for Inactive)
REMARK    1  A    between atoms: C_2  and  C_4
REMARK    2  A    between atoms: C_7  and  N_8
REMARK    3  A    between atoms: N_8  and  C_9
REMARK    4  A    between atoms: C_9  and  C_10
REMARK    5  A    between atoms: C_10  and  C_13
REMARK    6  A    between atoms: C_17  and  C_18
REMARK                            x       y       z     vdW  Elec       q    Type
REMARK                         _______ _______ _______ _____ _____    ______ ____
ROOT
ATOM      1  C   UNL     1      45.422   6.835  11.873  0.00  0.00    +0.000 C 
ATOM      2  F   UNL     1      45.139   7.650  10.806  0.00  0.00    +0.000 F 
ATOM      3  F   UNL     1      44.506   7.181  12.828  0.00  0.00    +0.000 F 
ENDROOT
BRANCH   1   4
ATOM      4  C   UNL     1      46.843   7.024  12.370  0.00  0.00    +0.000 A 
ATOM      5  C   UNL     1      47.895   7.157  11.455  0.00  0.00    +0.000 A 
ATOM      6  C   UNL     1      49.196   7.352  11.900  0.00  0.00    +0.000 A 
ATOM      7  C   UNL     1      49.458   7.440  13.268  0.00  0.00    +0.000 A 
ATOM      8  C   UNL     1      48.433   7.342  14.224  0.00  0.00    +0.000 A 
ATOM      9  C   UNL     1      47.127   7.101  13.746  0.00  0.00    +0.000 A 
BRANCH   8  10
ATOM     10  C   UNL     1      48.710   7.524  15.670  0.00  0.00    +0.000 A 
ATOM     11  C   UNL     1      48.901   8.807  16.223  0.00  0.00    +0.000 A 
ATOM     12  C   UNL     1      49.177   8.987  17.585  0.00  0.00    +0.000 A 
ATOM     13  C   UNL     1      49.253   7.887  18.433  0.00  0.00    +0.000 A 
ATOM     14  C   UNL     1      49.073   6.615  17.910  0.00  0.00    +0.000 A 
ATOM     15  F   UNL     1      49.150   5.555  18.726  0.00  0.00    +0.000 F 
ATOM     16  C   UNL     1      48.818   6.433  16.555  0.00  0.00    +0.000 A 
ATOM     17  F   UNL     1      48.695   5.171  16.104  0.00  0.00    +0.000 F 
ENDBRANCH   8  10
ENDBRANCH   1   4
BRANCH   1  18
ATOM     18  C   UNL     1      45.150   5.372  11.430  0.00  0.00    +0.000 C 
BRANCH  18  19
ATOM     19  N   UNL     1      44.693   5.298  10.022  0.00  0.00    +0.000 N 
ATOM     20  H   UNL     1      44.750   6.196   9.548  0.00  0.00    +0.000 HD
BRANCH  19  24
ATOM     21  C   UNL     1      46.385   2.182   7.942  0.00  0.00    +0.000 A 
ATOM     22  C   UNL     1      46.618   3.498   7.569  0.00  0.00    +0.000 A 
ATOM     23  N   UNL     1      46.057   4.558   8.213  0.00  0.00    +0.000 NA
ATOM     24  C   UNL     1      45.243   4.270   9.253  0.00  0.00    +0.000 A 
ATOM     25  C   UNL     1      45.013   2.932   9.606  0.00  0.00    +0.000 A 
ATOM     26  N   UNL     1      45.556   1.858   8.968  0.00  0.00    +0.000 NA
BRANCH  21  28
ATOM     27  N   UNL     1      46.740  -0.194   7.591  0.00  0.00    +0.000 N 
ATOM     28  C   UNL     1      47.076   1.081   7.219  0.00  0.00    +0.000 C 
ATOM     29  O   UNL     1      47.902   1.293   6.339  0.00  0.00    +0.000 OA
ATOM     30  H   UNL     1      47.161  -0.975   7.108  0.00  0.00    +0.000 HD
ATOM     31  H   UNL     1      46.002  -0.350   8.268  0.00  0.00    +0.000 HD
ENDBRANCH  21  28
ENDBRANCH  19  24
ENDBRANCH  18  19
ENDBRANCH   1  18
TORSDOF 6
ENDMDL
MODEL 9
REMARK VINA RESULT:    -7.366      3.546      6.208
REMARK INTER + INTRA:         -10.899
REMARK INTER:                  -9.581
REMARK INTRA:                  -1.318
REMARK UNBOUND:                -0.949
REMARK  Name = 
REMARK  6 active torsions:
REMARK  status: ('A' for Active; 'I' for Inactive)
REMARK    1  A    between atoms: C_2  and  C_4
REMARK    2  A    between atoms: C_7  and  N_8
REMARK    3  A    between atoms: N_8  and  C_9
REMARK    4  A    between atoms: C_9  and  C_10
REMARK    5  A    between atoms: C_10  and  C_13
REMARK    6  A    between atoms: C_17  and  C_18
REMARK                            x       y       z     vdW  Elec       q    Type
REMARK                         _______ _______ _______ _____ _____    ______ ____
ROOT
ATOM      1  C   UNL     1      48.007   8.211  12.554  0.00  0.00    +0.000 C 
ATOM      2  F   UNL     1      48.256   7.036  11.891  0.00  0.00    +0.000 F 
ATOM      3  F   UNL     1      48.825   9.129  11.954  0.00  0.00    +0.000 F 
ENDROOT
BRANCH   1   4
ATOM      4  C   UNL     1      48.295   8.097  14.039  0.00  0.00    +0.000 A 
ATOM      5  C   UNL     1      48.216   9.231  14.857  0.00  0.00    +0.000 A 
ATOM      6  C   UNL     1      48.457   9.134  16.222  0.00  0.00    +0.000 A 
ATOM      7  C   UNL     1      48.756   7.894  16.790  0.00  0.00    +0.000 A 
ATOM      8  C   UNL     1      48.818   6.723  16.015  0.00  0.00    +0.000 A 
ATOM      9  C   UNL     1      48.612   6.858  14.626  0.00  0.00    +0.000 A 
BRANCH   8  10
ATOM     10  C   UNL     1      49.051   5.398  16.641  0.00  0.00    +0.000 A 
ATOM     11  C   UNL     1      50.309   5.055  17.179  0.00  0.00    +0.000 A 
ATOM     12  C   UNL     1      50.543   3.802  17.760  0.00  0.00    +0.000 A 
ATOM     13  C   UNL     1      49.518   2.865  17.832  0.00  0.00    +0.000 A 
ATOM     14  C   UNL     1      48.274   3.179  17.306  0.00  0.00    +0.000 A 
ATOM     15  F   UNL     1      47.287   2.274  17.372  0.00  0.00    +0.000 F 
ATOM     16  C   UNL     1      48.045   4.415  16.711  0.00  0.00    +0.000 A 
ATOM     17  F   UNL     1      46.828   4.641  16.183  0.00  0.00    +0.000 F 
ENDBRANCH   8  10
ENDBRANCH   1   4
BRANCH   1  18
ATOM     18  C   UNL     1      46.531   8.603  12.275  0.00  0.00    +0.000 C 
BRANCH  18  19
ATOM     19  N   UNL     1      45.586   7.809  13.095  0.00  0.00    +0.000 N 
ATOM     20  H   UNL     1      44.762   8.341  13.363  0.00  0.00    +0.000 HD
BRANCH  19  24
ATOM     21  C   UNL     1      44.393   4.180  11.576  0.00  0.00    +0.000 A 
ATOM     22  C   UNL     1      45.005   4.267  12.819  0.00  0.00    +0.000 A 
ATOM     23  N   UNL     1      45.439   5.444  13.347  0.00  0.00    +0.000 NA
ATOM     24  C   UNL     1      45.248   6.550  12.594  0.00  0.00    +0.000 A 
ATOM     25  C   UNL     1      44.636   6.438  11.337  0.00  0.00    +0.000 A 
ATOM     26  N   UNL     1      44.205   5.269  10.786  0.00  0.00    +0.000 NA
BRANCH  21  28
ATOM     27  N   UNL     1      44.569   2.319  10.027  0.00  0.00    +0.000 N 
ATOM     28  C   UNL     1      43.900   2.863  11.092  0.00  0.00    +0.000 C 
ATOM     29  O   UNL     1      42.949   2.289  11.610  0.00  0.00    +0.000 OA
ATOM     30  H   UNL     1      44.290   1.412   9.681  0.00  0.00    +0.000 HD
ATOM     31  H   UNL     1      45.397   2.774   9.659  0.00  0.00    +0.000 HD
ENDBRANCH  21  28
ENDBRANCH  19  24
ENDBRANCH  18  19
ENDBRANCH   1  18
TORSDOF 6
ENDMDL
