MODEL 1
REMARK VINA RESULT:    -9.345      0.000      0.000
REMARK INTER + INTRA:         -13.499
REMARK INTER:                 -12.622
REMARK INTRA:                  -0.877
REMARK UNBOUND:                -0.877
REMARK  Name = 
REMARK  6 active torsions:
REMARK  status: ('A' for Active; 'I' for Inactive)
REMARK    1  A    between atoms: C_2  and  C_4
REMARK    2  A    between atoms: C_7  and  N_8
REMARK    3  A    between atoms: N_8  and  C_9
REMARK    4  A    between atoms: C_9  and  C_10
REMARK    5  A    between atoms: C_10  and  C_12
REMARK    6  A    between atoms: C_14  and  C_15
REMARK                            x       y       z     vdW  Elec       q    Type
REMARK                         _______ _______ _______ _____ _____    ______ ____
ROOT
ATOM      1  C   UNL     1      43.325   5.216  12.490  0.00  0.00    +0.000 C 
ATOM      2  F   UNL     1      42.562   4.771  13.541  0.00  0.00    +0.000 F 
ENDROOT
BRANCH   1   3
ATOM      3  C   UNL     1      44.794   5.347  12.836  0.00  0.00    +0.000 A 
ATOM      4  C   UNL     1      45.536   6.444  12.397  0.00  0.00    +0.000 A 
ATOM      5  C   UNL     1      46.895   6.561  12.729  0.00  0.00    +0.000 A 
ATOM      6  C   UNL     1      47.444   5.532  13.506  0.00  0.00    +0.000 A 
ATOM      7  C   UNL     1      46.644   4.478  13.912  0.00  0.00    +0.000 A 
ATOM      8  N   UNL     1      45.341   4.364  13.594  0.00  0.00    +0.000 NA
BRANCH   5   9
ATOM      9  C   UNL     1      47.718   7.710  12.279  0.00  0.00    +0.000 A 
ATOM     10  C   UNL     1      47.177   9.011  12.198  0.00  0.00    +0.000 A 
ATOM     11  C   UNL     1      47.956  10.105  11.808  0.00  0.00    +0.000 A 
ATOM     12  C   UNL     1      49.287   9.912  11.476  0.00  0.00    +0.000 A 
ATOM     13  F   UNL     1      50.035  10.959  11.106  0.00  0.00    +0.000 F 
ATOM     14  C   UNL     1      49.854   8.646  11.526  0.00  0.00    +0.000 A 
ATOM     15  C   UNL     1      49.074   7.556  11.929  0.00  0.00    +0.000 A 
ENDBRANCH   5   9
ENDBRANCH   1   3
BRANCH   1  16
ATOM     16  C   UNL     1      43.153   4.225  11.329  0.00  0.00    +0.000 C 
BRANCH  16  17
ATOM     17  N   UNL     1      43.720   4.740  10.073  0.00  0.00    +0.000 N 
ATOM     18  H   UNL     1      43.047   5.254   9.503  0.00  0.00    +0.000 HD
BRANCH  17  22
ATOM     19  C   UNL     1      46.338   2.348   7.782  0.00  0.00    +0.000 A 
ATOM     20  C   UNL     1      45.488   1.741   8.707  0.00  0.00    +0.000 A 
ATOM     21  C   UNL     1      44.610   2.521   9.467  0.00  0.00    +0.000 A 
ATOM     22  C   UNL     1      44.538   3.911   9.301  0.00  0.00    +0.000 A 
ATOM     23  C   UNL     1      45.419   4.505   8.387  0.00  0.00    +0.000 A 
ATOM     24  C   UNL     1      46.318   3.736   7.638  0.00  0.00    +0.000 A 
BRANCH  19  26
ATOM     25  N   UNL     1      48.419   2.189   6.534  0.00  0.00    +0.000 N 
ATOM     26  C   UNL     1      47.292   1.550   6.971  0.00  0.00    +0.000 C 
ATOM     27  O   UNL     1      47.104   0.364   6.735  0.00  0.00    +0.000 OA
ATOM     28  H   UNL     1      49.112   1.610   6.075  0.00  0.00    +0.000 HD
ATOM     29  H   UNL     1      48.724   3.069   6.920  0.00  0.00    +0.000 HD
ENDBRANCH  19  26
ENDBRANCH  17  22
ENDBRANCH  16  17
ENDBRANCH   1  16
TORSDOF 6
ENDMDL
MODEL 2
REMARK VINA RESULT:    -9.237      2.514      3.893
REMARK INTER + INTRA:         -13.354
REMARK INTER:                 -12.287
REMARK INTRA:                  -1.067
REMARK UNBOUND:                -0.877
REMARK  Name = 
REMARK  6 active torsions:
REMARK  status: ('A' for Active; 'I' for Inactive)
REMARK    1  A    between atoms: C_2  and  C_4
REMARK    2  A    between atoms: C_7  and  N_8
REMARK    3  A    between atoms: N_8  and  C_9
REMARK    4  A    between atoms: C_9  and  C_10
REMARK    5  A    between atoms: C_10  and  C_12
REMARK    6  A    between atoms: C_14  and  C_15
REMARK                            x       y       z     vdW  Elec       q    Type
REMARK                         _______ _______ _______ _____ _____    ______ ____
ROOT
ATOM      1  C   UNL     1      43.337   5.439  12.259  0.00  0.00    +0.000 C 
ATOM      2  F   UNL     1      42.663   5.009  13.375  0.00  0.00    +0.000 F 
ENDROOT
BRANCH   1   3
ATOM      3  C   UNL     1      44.810   5.689  12.516  0.00  0.00    +0.000 A 
ATOM      4  C   UNL     1      45.435   5.169  13.650  0.00  0.00    +0.000 A 
ATOM      5  C   UNL     1      46.801   5.400  13.875  0.00  0.00    +0.000 A 
ATOM      6  C   UNL     1      47.477   6.167  12.916  0.00  0.00    +0.000 A 
ATOM      7  C   UNL     1      46.791   6.644  11.812  0.00  0.00    +0.000 A 
ATOM      8  N   UNL     1      45.482   6.425  11.595  0.00  0.00    +0.000 NA
BRANCH   5   9
ATOM      9  C   UNL     1      47.502   4.867  15.068  0.00  0.00    +0.000 A 
ATOM     10  C   UNL     1      48.320   5.693  15.869  0.00  0.00    +0.000 A 
ATOM     11  C   UNL     1      48.956   5.205  17.014  0.00  0.00    +0.000 A 
ATOM     12  C   UNL     1      48.798   3.875  17.369  0.00  0.00    +0.000 A 
ATOM     13  F   UNL     1      49.404   3.407  18.468  0.00  0.00    +0.000 F 
ATOM     14  C   UNL     1      48.017   3.024  16.600  0.00  0.00    +0.000 A 
ATOM     15  C   UNL     1      47.372   3.519  15.462  0.00  0.00    +0.000 A 
ENDBRANCH   5   9
ENDBRANCH   1   3
BRANCH   1  16
ATOM     16  C   UNL     1      43.177   4.370  11.169  0.00  0.00    +0.000 C 
BRANCH  16  17
ATOM     17  N   UNL     1      43.740   4.803   9.881  0.00  0.00    +0.000 N 
ATOM     18  H   UNL     1      43.063   5.271   9.277  0.00  0.00    +0.000 HD
BRANCH  17  22
ATOM     19  C   UNL     1      46.383   2.275   7.770  0.00  0.00    +0.000 A 
ATOM     20  C   UNL     1      45.471   1.718   8.667  0.00  0.00    +0.000 A 
ATOM     21  C   UNL     1      44.584   2.543   9.366  0.00  0.00    +0.000 A 
ATOM     22  C   UNL     1      44.566   3.930   9.167  0.00  0.00    +0.000 A 
ATOM     23  C   UNL     1      45.508   4.474   8.283  0.00  0.00    +0.000 A 
ATOM     24  C   UNL     1      46.415   3.660   7.596  0.00  0.00    +0.000 A 
BRANCH  19  26
ATOM     25  N   UNL     1      48.460   2.048   6.526  0.00  0.00    +0.000 N 
ATOM     26  C   UNL     1      47.347   1.429   7.024  0.00  0.00    +0.000 C 
ATOM     27  O   UNL     1      47.180   0.224   6.890  0.00  0.00    +0.000 OA
ATOM     28  H   UNL     1      49.161   1.445   6.113  0.00  0.00    +0.000 HD
ATOM     29  H   UNL     1      48.751   2.963   6.834  0.00  0.00    +0.000 HD
ENDBRANCH  19  26
ENDBRANCH  17  22
ENDBRANCH  16  17
ENDBRANCH   1  16
TORSDOF 6
ENDMDL
MODEL 3
REMARK VINA RESULT:    -8.673      1.609      2.033
REMARK INTER + INTRA:         -12.592
REMARK INTER:                 -11.523
REMARK INTRA:                  -1.068
REMARK UNBOUND:                -0.877
REMARK  Name = 
REMARK  6 active torsions:
REMARK  status: ('A' for Active; 'I' for Inactive)
REMARK    1  A    between atoms: C_2  and  C_4
REMARK    2  A    between atoms: C_7  and  N_8
REMARK    3  A    between atoms: N_8  and  C_9
REMARK    4  A    between atoms: C_9  and  C_10
REMARK    5  A    between atoms: C_10  and  C_12
REMARK    6  A    between atoms: C_14  and  C_15
REMARK                            x       y       z     vdW  Elec       q    Type
REMARK                         _______ _______ _______ _____ _____    ______ ____
ROOT
ATOM      1  C   UNL     1      44.601   3.773  12.531  0.00  0.00    +0.000 C 
ATOM      2  F   UNL     1      45.631   2.879  12.385  0.00  0.00    +0.000 F 
ENDROOT
BRANCH   1   3
ATOM      3  C   UNL     1      45.034   5.213  12.347  0.00  0.00    +0.000 A 
ATOM      4  C   UNL     1      46.369   5.584  12.514  0.00  0.00    +0.000 A 
ATOM      5  C   UNL     1      46.762   6.919  12.334  0.00  0.00    +0.000 A 
ATOM      6  C   UNL     1      45.756   7.831  11.987  0.00  0.00    +0.000 A 
ATOM      7  C   UNL     1      44.455   7.388  11.831  0.00  0.00    +0.000 A 
ATOM      8  N   UNL     1      44.075   6.109  12.004  0.00  0.00    +0.000 NA
BRANCH   5   9
ATOM      9  C   UNL     1      48.170   7.354  12.506  0.00  0.00    +0.000 A 
ATOM     10  C   UNL     1      48.947   7.775  11.405  0.00  0.00    +0.000 A 
ATOM     11  C   UNL     1      50.263   8.218  11.563  0.00  0.00    +0.000 A 
ATOM     12  C   UNL     1      50.832   8.231  12.826  0.00  0.00    +0.000 A 
ATOM     13  F   UNL     1      52.092   8.658  12.981  0.00  0.00    +0.000 F 
ATOM     14  C   UNL     1      50.110   7.809  13.933  0.00  0.00    +0.000 A 
ATOM     15  C   UNL     1      48.788   7.378  13.772  0.00  0.00    +0.000 A 
ENDBRANCH   5   9
ENDBRANCH   1   3
BRANCH   1  16
ATOM     16  C   UNL     1      43.520   3.422  11.497  0.00  0.00    +0.000 C 
BRANCH  16  17
ATOM     17  N   UNL     1      43.731   4.115  10.217  0.00  0.00    +0.000 N 
ATOM     18  H   UNL     1      42.866   4.420   9.772  0.00  0.00    +0.000 HD
BRANCH  17  22
ATOM     19  C   UNL     1      46.606   2.649   7.495  0.00  0.00    +0.000 A 
ATOM     20  C   UNL     1      45.892   1.750   8.288  0.00  0.00    +0.000 A 
ATOM     21  C   UNL     1      44.931   2.222   9.188  0.00  0.00    +0.000 A 
ATOM     22  C   UNL     1      44.640   3.589   9.296  0.00  0.00    +0.000 A 
ATOM     23  C   UNL     1      45.387   4.478   8.511  0.00  0.00    +0.000 A 
ATOM     24  C   UNL     1      46.367   4.018   7.624  0.00  0.00    +0.000 A 
BRANCH  19  26
ATOM     25  N   UNL     1      47.815   2.920   5.402  0.00  0.00    +0.000 N 
ATOM     26  C   UNL     1      47.643   2.182   6.541  0.00  0.00    +0.000 C 
ATOM     27  O   UNL     1      48.342   1.205   6.774  0.00  0.00    +0.000 OA
ATOM     28  H   UNL     1      48.594   2.656   4.811  0.00  0.00    +0.000 HD
ATOM     29  H   UNL     1      47.447   3.853   5.304  0.00  0.00    +0.000 HD
ENDBRANCH  19  26
ENDBRANCH  17  22
ENDBRANCH  16  17
ENDBRANCH   1  16
TORSDOF 6
ENDMDL
MODEL 4
REMARK VINA RESULT:    -8.095      3.616      7.268
REMARK INTER + INTRA:         -11.812
REMARK INTER:                 -11.184
REMARK INTRA:                  -0.628
REMARK UNBOUND:                -0.877
REMARK  Name = 
REMARK  6 active torsions:
REMARK  status: ('A' for Active; 'I' for Inactive)
REMARK    1  A    between atoms: C_2  and  C_4
REMARK    2  A    between atoms: C_7  and  N_8
REMARK    3  A    between atoms: N_8  and  C_9
REMARK    4  A    between atoms: C_9  and  C_10
REMARK    5  A    between atoms: C_10  and  C_12
REMARK    6  A    between atoms: C_14  and  C_15
REMARK                            x       y       z     vdW  Elec       q    Type
REMARK                         _______ _______ _______ _____ _____    ______ ____
ROOT
ATOM      1  C   UNL     1      45.757   7.627  12.137  0.00  0.00    +0.000 C 
ATOM      2  F   UNL     1      45.445   8.868  11.640  0.00  0.00    +0.000 F 
ENDROOT
BRANCH   1   3
ATOM      3  C   UNL     1      44.975   6.510  11.477  0.00  0.00    +0.000 A 
ATOM      4  C   UNL     1      45.590   5.653  10.563  0.00  0.00    +0.000 A 
ATOM      5  C   UNL     1      44.859   4.615   9.962  0.00  0.00    +0.000 A 
ATOM      6  C   UNL     1      43.511   4.500  10.327  0.00  0.00    +0.000 A 
ATOM      7  C   UNL     1      42.973   5.383  11.247  0.00  0.00    +0.000 A 
ATOM      8  N   UNL     1      43.670   6.379  11.824  0.00  0.00    +0.000 NA
BRANCH   5   9
ATOM      9  C   UNL     1      45.474   3.685   8.984  0.00  0.00    +0.000 A 
ATOM     10  C   UNL     1      46.194   4.165   7.868  0.00  0.00    +0.000 A 
ATOM     11  C   UNL     1      46.806   3.294   6.962  0.00  0.00    +0.000 A 
ATOM     12  C   UNL     1      46.693   1.926   7.146  0.00  0.00    +0.000 A 
ATOM     13  F   UNL     1      47.281   1.090   6.281  0.00  0.00    +0.000 F 
ATOM     14  C   UNL     1      45.980   1.412   8.220  0.00  0.00    +0.000 A 
ATOM     15  C   UNL     1      45.380   2.286   9.133  0.00  0.00    +0.000 A 
ENDBRANCH   5   9
ENDBRANCH   1   3
BRANCH   1  16
ATOM     16  C   UNL     1      47.261   7.400  11.929  0.00  0.00    +0.000 C 
BRANCH  16  17
ATOM     17  N   UNL     1      48.012   7.471  13.191  0.00  0.00    +0.000 N 
ATOM     18  H   UNL     1      48.973   7.794  13.077  0.00  0.00    +0.000 HD
BRANCH  17  22
ATOM     19  C   UNL     1      47.679   4.414  16.084  0.00  0.00    +0.000 A 
ATOM     20  C   UNL     1      47.035   4.268  14.855  0.00  0.00    +0.000 A 
ATOM     21  C   UNL     1      47.144   5.269  13.885  0.00  0.00    +0.000 A 
ATOM     22  C   UNL     1      47.917   6.417  14.105  0.00  0.00    +0.000 A 
ATOM     23  C   UNL     1      48.533   6.559  15.355  0.00  0.00    +0.000 A 
ATOM     24  C   UNL     1      48.412   5.573  16.341  0.00  0.00    +0.000 A 
BRANCH  19  26
ATOM     25  N   UNL     1      48.729   3.007  17.768  0.00  0.00    +0.000 N 
ATOM     26  C   UNL     1      47.571   3.376  17.140  0.00  0.00    +0.000 C 
ATOM     27  O   UNL     1      46.493   2.897  17.468  0.00  0.00    +0.000 OA
ATOM     28  H   UNL     1      48.631   2.380  18.556  0.00  0.00    +0.000 HD
ATOM     29  H   UNL     1      49.573   3.555  17.706  0.00  0.00    +0.000 HD
ENDBRANCH  19  26
ENDBRANCH  17  22
ENDBRANCH  16  17
ENDBRANCH   1  16
TORSDOF 6
ENDMDL
MODEL 5
REMARK VINA RESULT:    -8.058      3.479      6.779
REMARK INTER + INTRA:         -11.762
REMARK INTER:                 -10.598
REMARK INTRA:                  -1.164
REMARK UNBOUND:                -0.877
REMARK  Name = 
REMARK  6 active torsions:
REMARK  status: ('A' for Active; 'I' for Inactive)
REMARK    1  A    between atoms: C_2  and  C_4
REMARK    2  A    between atoms: C_7  and  N_8
REMARK    3  A    between atoms: N_8  and  C_9
REMARK    4  A    between atoms: C_9  and  C_10
REMARK    5  A    between atoms: C_10  and  C_12
REMARK    6  A    between atoms: C_14  and  C_15
REMARK                            x       y       z     vdW  Elec       q    Type
REMARK                         _______ _______ _______ _____ _____    ______ ____
ROOT
ATOM      1  C   UNL     1      43.725   6.241  11.565  0.00  0.00    +0.000 C 
ATOM      2  F   UNL     1      44.245   7.159  10.688  0.00  0.00    +0.000 F 
ENDROOT
BRANCH   1   3
ATOM      3  C   UNL     1      43.896   4.809  11.098  0.00  0.00    +0.000 A 
ATOM      4  C   UNL     1      44.696   4.510   9.994  0.00  0.00    +0.000 A 
ATOM      5  C   UNL     1      44.854   3.180   9.574  0.00  0.00    +0.000 A 
ATOM      6  C   UNL     1      44.176   2.201  10.312  0.00  0.00    +0.000 A 
ATOM      7  C   UNL     1      43.407   2.573  11.400  0.00  0.00    +0.000 A 
ATOM      8  N   UNL     1      43.252   3.847  11.805  0.00  0.00    +0.000 NA
BRANCH   5   9
ATOM      9  C   UNL     1      45.693   2.821   8.404  0.00  0.00    +0.000 A 
ATOM     10  C   UNL     1      45.983   3.762   7.393  0.00  0.00    +0.000 A 
ATOM     11  C   UNL     1      46.801   3.441   6.306  0.00  0.00    +0.000 A 
ATOM     12  C   UNL     1      47.330   2.164   6.203  0.00  0.00    +0.000 A 
ATOM     13  F   UNL     1      48.116   1.855   5.164  0.00  0.00    +0.000 F 
ATOM     14  C   UNL     1      47.055   1.203   7.165  0.00  0.00    +0.000 A 
ATOM     15  C   UNL     1      46.247   1.533   8.259  0.00  0.00    +0.000 A 
ENDBRANCH   5   9
ENDBRANCH   1   3
BRANCH   1  16
ATOM     16  C   UNL     1      44.425   6.431  12.919  0.00  0.00    +0.000 C 
BRANCH  16  17
ATOM     17  N   UNL     1      45.617   5.579  13.051  0.00  0.00    +0.000 N 
ATOM     18  H   UNL     1      45.565   4.924  13.832  0.00  0.00    +0.000 HD
BRANCH  17  22
ATOM     19  C   UNL     1      49.366   7.470  12.613  0.00  0.00    +0.000 A 
ATOM     20  C   UNL     1      49.051   6.844  13.820  0.00  0.00    +0.000 A 
ATOM     21  C   UNL     1      47.816   6.206  13.975  0.00  0.00    +0.000 A 
ATOM     22  C   UNL     1      46.885   6.153  12.929  0.00  0.00    +0.000 A 
ATOM     23  C   UNL     1      47.208   6.812  11.735  0.00  0.00    +0.000 A 
ATOM     24  C   UNL     1      48.432   7.472  11.577  0.00  0.00    +0.000 A 
BRANCH  19  26
ATOM     25  N   UNL     1      51.545   8.133  13.466  0.00  0.00    +0.000 N 
ATOM     26  C   UNL     1      50.663   8.168  12.422  0.00  0.00    +0.000 C 
ATOM     27  O   UNL     1      50.951   8.716  11.366  0.00  0.00    +0.000 OA
ATOM     28  H   UNL     1      52.465   8.518  13.287  0.00  0.00    +0.000 HD
ATOM     29  H   UNL     1      51.448   7.486  14.232  0.00  0.00    +0.000 HD
ENDBRANCH  19  26
ENDBRANCH  17  22
ENDBRANCH  16  17
ENDBRANCH   1  16
TORSDOF 6
ENDMDL
MODEL 6
REMARK VINA RESULT:    -8.051      1.616      2.329
REMARK INTER + INTRA:         -11.752
REMARK INTER:                 -10.890
REMARK INTRA:                  -0.862
REMARK UNBOUND:                -0.877
REMARK  Name = 
REMARK  6 active torsions:
REMARK  status: ('A' for Active; 'I' for Inactive)
REMARK    1  A    between atoms: C_2  and  C_4
REMARK    2  A    between atoms: C_7  and  N_8
REMARK    3  A    between atoms: N_8  and  C_9
REMARK    4  A    between atoms: C_9  and  C_10
REMARK    5  A    between atoms: C_10  and  C_12
REMARK    6  A    between atoms: C_14  and  C_15
REMARK                            x       y       z     vdW  Elec       q    Type
REMARK                         _______ _______ _______ _____ _____    ______ ____
ROOT
ATOM      1  C   UNL     1      45.065   5.230  12.216  0.00  0.00    +0.000 C 
ATOM      2  F   UNL     1      46.007   4.247  12.039  0.00  0.00    +0.000 F 
ENDROOT
BRANCH   1   3
ATOM      3  C   UNL     1      45.667   6.616  12.325  0.00  0.00    +0.000 A 
ATOM      4  C   UNL     1      46.990   6.850  11.948  0.00  0.00    +0.000 A 
ATOM      5  C   UNL     1      47.537   8.140  12.046  0.00  0.00    +0.000 A 
ATOM      6  C   UNL     1      46.693   9.147  12.533  0.00  0.00    +0.000 A 
ATOM      7  C   UNL     1      45.389   8.840  12.879  0.00  0.00    +0.000 A 
ATOM      8  N   UNL     1      44.863   7.605  12.788  0.00  0.00    +0.000 NA
BRANCH   5   9
ATOM      9  C   UNL     1      48.939   8.430  11.658  0.00  0.00    +0.000 A 
ATOM     10  C   UNL     1      49.867   7.391  11.433  0.00  0.00    +0.000 A 
ATOM     11  C   UNL     1      51.181   7.656  11.034  0.00  0.00    +0.000 A 
ATOM     12  C   UNL     1      51.593   8.968  10.870  0.00  0.00    +0.000 A 
ATOM     13  F   UNL     1      52.850   9.224  10.485  0.00  0.00    +0.000 F 
ATOM     14  C   UNL     1      50.718  10.020  11.098  0.00  0.00    +0.000 A 
ATOM     15  C   UNL     1      49.400   9.751  11.484  0.00  0.00    +0.000 A 
ENDBRANCH   5   9
ENDBRANCH   1   3
BRANCH   1  16
ATOM     16  C   UNL     1      44.098   5.177  11.024  0.00  0.00    +0.000 C 
BRANCH  16  17
ATOM     17  N   UNL     1      43.943   3.813  10.495  0.00  0.00    +0.000 N 
ATOM     18  H   UNL     1      43.841   3.104  11.221  0.00  0.00    +0.000 HD
BRANCH  17  22
ATOM     19  C   UNL     1      46.572   2.650   7.403  0.00  0.00    +0.000 A 
ATOM     20  C   UNL     1      45.998   1.673   8.219  0.00  0.00    +0.000 A 
ATOM     21  C   UNL     1      45.118   2.044   9.241  0.00  0.00    +0.000 A 
ATOM     22  C   UNL     1      44.771   3.385   9.454  0.00  0.00    +0.000 A 
ATOM     23  C   UNL     1      45.380   4.354   8.643  0.00  0.00    +0.000 A 
ATOM     24  C   UNL     1      46.278   3.994   7.632  0.00  0.00    +0.000 A 
BRANCH  19  26
ATOM     25  N   UNL     1      47.511   3.077   5.201  0.00  0.00    +0.000 N 
ATOM     26  C   UNL     1      47.520   2.290   6.319  0.00  0.00    +0.000 C 
ATOM     27  O   UNL     1      48.304   1.356   6.430  0.00  0.00    +0.000 OA
ATOM     28  H   UNL     1      48.232   2.889   4.515  0.00  0.00    +0.000 HD
ATOM     29  H   UNL     1      47.073   3.985   5.185  0.00  0.00    +0.000 HD
ENDBRANCH  19  26
ENDBRANCH  17  22
ENDBRANCH  16  17
ENDBRANCH   1  16
TORSDOF 6
ENDMDL
MODEL 7
REMARK VINA RESULT:    -7.786      4.123      7.675
REMARK INTER + INTRA:         -11.394
REMARK INTER:                 -10.492
REMARK INTRA:                  -0.902
REMARK UNBOUND:                -0.877
REMARK  Name = 
REMARK  6 active torsions:
REMARK  status: ('A' for Active; 'I' for Inactive)
REMARK    1  A    between atoms: C_2  and  C_4
REMARK    2  A    between atoms: C_7  and  N_8
REMARK    3  A    between atoms: N_8  and  C_9
REMARK    4  A    between atoms: C_9  and  C_10
REMARK    5  A    between atoms: C_10  and  C_12
REMARK    6  A    between atoms: C_14  and  C_15
REMARK                            x       y       z     vdW  Elec       q    Type
REMARK                         _______ _______ _______ _____ _____    ______ ____
ROOT
ATOM      1  C   UNL     1      44.608   6.290  12.366  0.00  0.00    +0.000 C 
ATOM      2  F   UNL     1      44.614   7.344  11.487  0.00  0.00    +0.000 F 
ENDROOT
BRANCH   1   3
ATOM      3  C   UNL     1      44.401   4.952  11.686  0.00  0.00    +0.000 A 
ATOM      4  C   UNL     1      45.113   4.619  10.533  0.00  0.00    +0.000 A 
ATOM      5  C   UNL     1      44.919   3.374   9.914  0.00  0.00    +0.000 A 
ATOM      6  C   UNL     1      43.989   2.512  10.511  0.00  0.00    +0.000 A 
ATOM      7  C   UNL     1      43.326   2.908  11.659  0.00  0.00    +0.000 A 
ATOM      8  N   UNL     1      43.509   4.101  12.253  0.00  0.00    +0.000 NA
BRANCH   5   9
ATOM      9  C   UNL     1      45.654   2.984   8.686  0.00  0.00    +0.000 A 
ATOM     10  C   UNL     1      46.000   3.937   7.705  0.00  0.00    +0.000 A 
ATOM     11  C   UNL     1      46.723   3.583   6.562  0.00  0.00    +0.000 A 
ATOM     12  C   UNL     1      47.098   2.262   6.373  0.00  0.00    +0.000 A 
ATOM     13  F   UNL     1      47.794   1.921   5.280  0.00  0.00    +0.000 F 
ATOM     14  C   UNL     1      46.763   1.290   7.305  0.00  0.00    +0.000 A 
ATOM     15  C   UNL     1      46.051   1.651   8.453  0.00  0.00    +0.000 A 
ENDBRANCH   5   9
ENDBRANCH   1   3
BRANCH   1  16
ATOM     16  C   UNL     1      45.951   6.288  13.112  0.00  0.00    +0.000 C 
BRANCH  16  17
ATOM     17  N   UNL     1      46.185   5.026  13.829  0.00  0.00    +0.000 N 
ATOM     18  H   UNL     1      45.327   4.527  14.066  0.00  0.00    +0.000 HD
BRANCH  17  22
ATOM     19  C   UNL     1      48.962   5.109  17.008  0.00  0.00    +0.000 A 
ATOM     20  C   UNL     1      48.034   4.070  16.936  0.00  0.00    +0.000 A 
ATOM     21  C   UNL     1      47.114   4.025  15.884  0.00  0.00    +0.000 A 
ATOM     22  C   UNL     1      47.117   4.994  14.870  0.00  0.00    +0.000 A 
ATOM     23  C   UNL     1      48.038   6.045  14.975  0.00  0.00    +0.000 A 
ATOM     24  C   UNL     1      48.949   6.111  16.036  0.00  0.00    +0.000 A 
BRANCH  19  26
ATOM     25  N   UNL     1      50.091   4.080  18.901  0.00  0.00    +0.000 N 
ATOM     26  C   UNL     1      49.942   5.193  18.120  0.00  0.00    +0.000 C 
ATOM     27  O   UNL     1      50.619   6.195  18.311  0.00  0.00    +0.000 OA
ATOM     28  H   UNL     1      50.836   4.110  19.586  0.00  0.00    +0.000 HD
ATOM     29  H   UNL     1      49.749   3.174  18.618  0.00  0.00    +0.000 HD
ENDBRANCH  19  26
ENDBRANCH  17  22
ENDBRANCH  16  17
ENDBRANCH   1  16
TORSDOF 6
ENDMDL
MODEL 8
REMARK VINA RESULT:    -7.694      2.337      2.516
REMARK INTER + INTRA:         -11.270
REMARK INTER:                 -10.628
REMARK INTRA:                  -0.642
REMARK UNBOUND:                -0.877
REMARK  Name = 
REMARK  6 active torsions:
REMARK  status: ('A' for Active; 'I' for Inactive)
REMARK    1  A    between atoms: C_2  and  C_4
REMARK    2  A    between atoms: C_7  and  N_8
REMARK    3  A    between atoms: N_8  and  C_9
REMARK    4  A    between atoms: C_9  and  C_10
REMARK    5  A    between atoms: C_10  and  C_12
REMARK    6  A    between atoms: C_14  and  C_15
REMARK                            x       y       z     vdW  Elec       q    Type
REMARK                         _______ _______ _______ _____ _____    ______ ____
ROOT
ATOM      1  C   UNL     1      45.549   5.999  11.180  0.00  0.00    +0.000 C 
ATOM      2  F   UNL     1      45.368   7.342  10.964  0.00  0.00    +0.000 F 
ENDROOT
BRANCH   1   3
ATOM      3  C   UNL     1      46.311   5.700  12.455  0.00  0.00    +0.000 A 
ATOM      4  C   UNL     1      47.226   6.618  12.972  0.00  0.00    +0.000 A 
ATOM      5  C   UNL     1      47.921   6.335  14.158  0.00  0.00    +0.000 A 
ATOM      6  C   UNL     1      47.647   5.105  14.771  0.00  0.00    +0.000 A 
ATOM      7  C   UNL     1      46.720   4.248  14.204  0.00  0.00    +0.000 A 
ATOM      8  N   UNL     1      46.054   4.516  13.066  0.00  0.00    +0.000 NA
BRANCH   5   9
ATOM      9  C   UNL     1      48.903   7.283  14.739  0.00  0.00    +0.000 A 
ATOM     10  C   UNL     1      48.916   8.645  14.367  0.00  0.00    +0.000 A 
ATOM     11  C   UNL     1      49.815   9.551  14.935  0.00  0.00    +0.000 A 
ATOM     12  C   UNL     1      50.731   9.107  15.875  0.00  0.00    +0.000 A 
ATOM     13  F   UNL     1      51.592   9.974  16.423  0.00  0.00    +0.000 F 
ATOM     14  C   UNL     1      50.764   7.773  16.256  0.00  0.00    +0.000 A 
ATOM     15  C   UNL     1      49.854   6.871  15.695  0.00  0.00    +0.000 A 
ENDBRANCH   5   9
ENDBRANCH   1   3
BRANCH   1  16
ATOM     16  C   UNL     1      44.164   5.338  11.237  0.00  0.00    +0.000 C 
BRANCH  16  17
ATOM     17  N   UNL     1      43.728   4.851   9.920  0.00  0.00    +0.000 N 
ATOM     18  H   UNL     1      42.745   4.577   9.891  0.00  0.00    +0.000 HD
BRANCH  17  22
ATOM     19  C   UNL     1      46.336   2.271   7.829  0.00  0.00    +0.000 A 
ATOM     20  C   UNL     1      45.471   1.742   8.788  0.00  0.00    +0.000 A 
ATOM     21  C   UNL     1      44.596   2.584   9.481  0.00  0.00    +0.000 A 
ATOM     22  C   UNL     1      44.543   3.959   9.216  0.00  0.00    +0.000 A 
ATOM     23  C   UNL     1      45.438   4.477   8.271  0.00  0.00    +0.000 A 
ATOM     24  C   UNL     1      46.334   3.646   7.587  0.00  0.00    +0.000 A 
BRANCH  19  26
ATOM     25  N   UNL     1      48.418   2.003   6.601  0.00  0.00    +0.000 N 
ATOM     26  C   UNL     1      47.287   1.407   7.086  0.00  0.00    +0.000 C 
ATOM     27  O   UNL     1      47.094   0.206   6.945  0.00  0.00    +0.000 OA
ATOM     28  H   UNL     1      49.108   1.387   6.190  0.00  0.00    +0.000 HD
ATOM     29  H   UNL     1      48.726   2.910   6.916  0.00  0.00    +0.000 HD
ENDBRANCH  19  26
ENDBRANCH  17  22
ENDBRANCH  16  17
ENDBRANCH   1  16
TORSDOF 6
ENDMDL
MODEL 9
REMARK VINA RESULT:    -7.456      2.870      3.630
REMARK INTER + INTRA:         -10.948
REMARK INTER:                 -10.046
REMARK INTRA:                  -0.902
REMARK UNBOUND:                -0.877
REMARK  Name = 
REMARK  6 active torsions:
REMARK  status: ('A' for Active; 'I' for Inactive)
REMARK    1  A    between atoms: C_2  and  C_4
REMARK    2  A    between atoms: C_7  and  N_8
REMARK    3  A    between atoms: N_8  and  C_9
REMARK    4  A    between atoms: C_9  and  C_10
REMARK    5  A    between atoms: C_10  and  C_12
REMARK    6  A    between atoms: C_14  and  C_15
REMARK                            x       y       z     vdW  Elec       q    Type
REMARK                         _______ _______ _______ _____ _____    ______ ____
ROOT
ATOM      1  C   UNL     1      45.260   5.236  12.669  0.00  0.00    +0.000 C 
ATOM      2  F   UNL     1      45.467   3.880  12.699  0.00  0.00    +0.000 F 
ENDROOT
BRANCH   1   3
ATOM      3  C   UNL     1      46.548   6.034  12.699  0.00  0.00    +0.000 A 
ATOM      4  C   UNL     1      47.335   6.075  13.851  0.00  0.00    +0.000 A 
ATOM      5  C   UNL     1      48.530   6.811  13.867  0.00  0.00    +0.000 A 
ATOM      6  C   UNL     1      48.871   7.486  12.686  0.00  0.00    +0.000 A 
ATOM      7  C   UNL     1      48.044   7.392  11.581  0.00  0.00    +0.000 A 
ATOM      8  N   UNL     1      46.897   6.688  11.563  0.00  0.00    +0.000 NA
BRANCH   5   9
ATOM      9  C   UNL     1      49.394   6.882  15.071  0.00  0.00    +0.000 A 
ATOM     10  C   UNL     1      50.611   7.596  15.060  0.00  0.00    +0.000 A 
ATOM     11  C   UNL     1      51.413   7.695  16.200  0.00  0.00    +0.000 A 
ATOM     12  C   UNL     1      51.018   7.065  17.370  0.00  0.00    +0.000 A 
ATOM     13  F   UNL     1      51.783   7.162  18.464  0.00  0.00    +0.000 F 
ATOM     14  C   UNL     1      49.837   6.338  17.419  0.00  0.00    +0.000 A 
ATOM     15  C   UNL     1      49.031   6.252  16.279  0.00  0.00    +0.000 A 
ENDBRANCH   5   9
ENDBRANCH   1   3
BRANCH   1  16
ATOM     16  C   UNL     1      44.476   5.566  11.390  0.00  0.00    +0.000 C 
BRANCH  16  17
ATOM     17  N   UNL     1      44.098   4.356  10.644  0.00  0.00    +0.000 N 
ATOM     18  H   UNL     1      43.745   3.605  11.237  0.00  0.00    +0.000 HD
BRANCH  17  22
ATOM     19  C   UNL     1      46.521   2.796   7.557  0.00  0.00    +0.000 A 
ATOM     20  C   UNL     1      46.404   4.179   7.705  0.00  0.00    +0.000 A 
ATOM     21  C   UNL     1      45.611   4.709   8.728  0.00  0.00    +0.000 A 
ATOM     22  C   UNL     1      44.946   3.879   9.640  0.00  0.00    +0.000 A 
ATOM     23  C   UNL     1      45.053   2.493   9.459  0.00  0.00    +0.000 A 
ATOM     24  C   UNL     1      45.825   1.953   8.425  0.00  0.00    +0.000 A 
BRANCH  19  26
ATOM     25  N   UNL     1      47.514   2.954   5.343  0.00  0.00    +0.000 N 
ATOM     26  C   UNL     1      47.342   2.202   6.473  0.00  0.00    +0.000 C 
ATOM     27  O   UNL     1      47.878   1.108   6.593  0.00  0.00    +0.000 OA
ATOM     28  H   UNL     1      48.161   2.587   4.656  0.00  0.00    +0.000 HD
ATOM     29  H   UNL     1      47.310   3.941   5.316  0.00  0.00    +0.000 HD
ENDBRANCH  19  26
ENDBRANCH  17  22
ENDBRANCH  16  17
ENDBRANCH   1  16
TORSDOF 6
ENDMDL
