MODEL 1
REMARK VINA RESULT:    -8.993      0.000      0.000
REMARK INTER + INTRA:         -13.435
REMARK INTER:                 -12.148
REMARK INTRA:                  -1.288
REMARK UNBOUND:                -1.288
REMARK  Name = 
REMARK  7 active torsions:
REMARK  status: ('A' for Active; 'I' for Inactive)
REMARK    1  A    between atoms: C_1  and  C_2
REMARK    2  A    between atoms: C_4  and  C_5
REMARK    3  A    between atoms: C_10  and  N_11
REMARK    4  A    between atoms: N_11  and  C_12
REMARK    5  A    between atoms: C_12  and  C_13
REMARK    6  A    between atoms: C_18  and  C_19
REMARK    7  A    between atoms: C_23  and  C_24
REMARK                            x       y       z     vdW  Elec       q    Type
REMARK                         _______ _______ _______ _____ _____    ______ ____
ROOT
ATOM      1  C   UNL     1      44.996   5.394  12.018  0.00  0.00    +0.000 A 
ATOM      2  C   UNL     1      45.272   4.584  13.123  0.00  0.00    +0.000 A 
ATOM      3  C   UNL     1      46.414   4.815  13.885  0.00  0.00    +0.000 A 
ATOM      4  C   UNL     1      47.295   5.841  13.535  0.00  0.00    +0.000 A 
ATOM      5  F   UNL     1      48.376   6.016  14.311  0.00  0.00    +0.000 F 
ATOM      6  C   UNL     1      47.071   6.669  12.422  0.00  0.00    +0.000 A 
ATOM      7  C   UNL     1      45.901   6.415  11.676  0.00  0.00    +0.000 A 
ENDROOT
BRANCH   6   8
ATOM      8  C   UNL     1      47.969   7.787  12.045  0.00  0.00    +0.000 A 
ATOM      9  C   UNL     1      47.540   9.124  12.142  0.00  0.00    +0.000 A 
ATOM     10  C   UNL     1      48.394  10.193  11.863  0.00  0.00    +0.000 A 
ATOM     11  C   UNL     1      49.705   9.952  11.466  0.00  0.00    +0.000 A 
ATOM     12  C   UNL     1      50.172   8.637  11.345  0.00  0.00    +0.000 A 
ATOM     13  C   UNL     1      49.296   7.570  11.627  0.00  0.00    +0.000 A 
BRANCH  12  14
ATOM     14  C   UNL     1      51.598   8.353  10.945  0.00  0.00    +0.000 C 
ATOM     15  F   UNL     1      52.471   8.373  11.992  0.00  0.00    +0.000 F 
ATOM     16  F   UNL     1      51.741   7.126  10.370  0.00  0.00    +0.000 F 
ATOM     17  F   UNL     1      52.081   9.249  10.041  0.00  0.00    +0.000 F 
ENDBRANCH  12  14
ENDBRANCH   6   8
BRANCH   1  18
ATOM     18  C   UNL     1      43.702   5.247  11.257  0.00  0.00    +0.000 C 
BRANCH  18  19
ATOM     19  N   UNL     1      43.897   5.101   9.843  0.00  0.00    +0.000 N 
ATOM     20  H   UNL     1      43.390   5.702   9.207  0.00  0.00    +0.000 HD
BRANCH  19  27
ATOM     21  C   UNL     1      43.899   2.065  10.449  0.00  0.00    +0.000 C 
ATOM     22  C   UNL     1      44.737   2.803   9.446  0.00  0.00    +0.000 A 
ATOM     23  C   UNL     1      45.637   2.022   8.696  0.00  0.00    +0.000 A 
ATOM     24  C   UNL     1      46.466   2.593   7.737  0.00  0.00    +0.000 A 
ATOM     25  C   UNL     1      46.349   3.957   7.564  0.00  0.00    +0.000 A 
ATOM     26  N   UNL     1      45.492   4.746   8.271  0.00  0.00    +0.000 NA
ATOM     27  C   UNL     1      44.692   4.184   9.209  0.00  0.00    +0.000 A 
BRANCH  24  28
ATOM     28  C   UNL     1      47.392   1.711   6.985  0.00  0.00    +0.000 C 
ATOM     29  N   UNL     1      48.513   2.246   6.417  0.00  0.00    +0.000 N 
ATOM     30  O   UNL     1      47.169   0.509   6.868  0.00  0.00    +0.000 OA
ATOM     31  H   UNL     1      48.797   3.211   6.457  0.00  0.00    +0.000 HD
ATOM     32  H   UNL     1      49.112   1.599   5.919  0.00  0.00    +0.000 HD
ENDBRANCH  24  28
ENDBRANCH  19  27
ENDBRANCH  18  19
ENDBRANCH   1  18
TORSDOF 6
ENDMDL
MODEL 2
REMARK VINA RESULT:    -8.572      2.436      4.983
REMARK INTER + INTRA:         -12.867
REMARK INTER:                 -11.742
REMARK INTRA:                  -1.124
REMARK UNBOUND:                -1.288
REMARK  Name = 
REMARK  7 active torsions:
REMARK  status: ('A' for Active; 'I' for Inactive)
REMARK    1  A    between atoms: C_1  and  C_2
REMARK    2  A    between atoms: C_4  and  C_5
REMARK    3  A    between atoms: C_10  and  N_11
REMARK    4  A    between atoms: N_11  and  C_12
REMARK    5  A    between atoms: C_12  and  C_13
REMARK    6  A    between atoms: C_18  and  C_19
REMARK    7  A    between atoms: C_23  and  C_24
REMARK                            x       y       z     vdW  Elec       q    Type
REMARK                         _______ _______ _______ _____ _____    ______ ____
ROOT
ATOM      1  C   UNL     1      45.344   5.706  12.039  0.00  0.00    +0.000 A 
ATOM      2  C   UNL     1      46.202   6.648  11.466  0.00  0.00    +0.000 A 
ATOM      3  C   UNL     1      47.434   6.916  12.058  0.00  0.00    +0.000 A 
ATOM      4  C   UNL     1      47.803   6.260  13.235  0.00  0.00    +0.000 A 
ATOM      5  F   UNL     1      49.004   6.558  13.756  0.00  0.00    +0.000 F 
ATOM      6  C   UNL     1      46.966   5.319  13.858  0.00  0.00    +0.000 A 
ATOM      7  C   UNL     1      45.729   5.064  13.229  0.00  0.00    +0.000 A 
ENDROOT
BRANCH   6   8
ATOM      8  C   UNL     1      47.344   4.582  15.089  0.00  0.00    +0.000 A 
ATOM      9  C   UNL     1      47.686   3.218  15.038  0.00  0.00    +0.000 A 
ATOM     10  C   UNL     1      48.115   2.524  16.172  0.00  0.00    +0.000 A 
ATOM     11  C   UNL     1      48.204   3.178  17.396  0.00  0.00    +0.000 A 
ATOM     12  C   UNL     1      47.863   4.532  17.495  0.00  0.00    +0.000 A 
ATOM     13  C   UNL     1      47.428   5.217  16.342  0.00  0.00    +0.000 A 
BRANCH  12  14
ATOM     14  C   UNL     1      47.981   5.269  18.806  0.00  0.00    +0.000 C 
ATOM     15  F   UNL     1      46.781   5.668  19.315  0.00  0.00    +0.000 F 
ATOM     16  F   UNL     1      48.560   4.510  19.778  0.00  0.00    +0.000 F 
ATOM     17  F   UNL     1      48.738   6.397  18.711  0.00  0.00    +0.000 F 
ENDBRANCH  12  14
ENDBRANCH   6   8
BRANCH   1  18
ATOM     18  C   UNL     1      44.066   5.305  11.345  0.00  0.00    +0.000 C 
BRANCH  18  19
ATOM     19  N   UNL     1      44.215   5.180   9.924  0.00  0.00    +0.000 N 
ATOM     20  H   UNL     1      43.756   5.846   9.316  0.00  0.00    +0.000 HD
BRANCH  19  27
ATOM     21  C   UNL     1      43.944   2.143  10.460  0.00  0.00    +0.000 C 
ATOM     22  C   UNL     1      44.822   2.824   9.452  0.00  0.00    +0.000 A 
ATOM     23  C   UNL     1      45.623   1.981   8.658  0.00  0.00    +0.000 A 
ATOM     24  C   UNL     1      46.477   2.494   7.690  0.00  0.00    +0.000 A 
ATOM     25  C   UNL     1      46.487   3.868   7.551  0.00  0.00    +0.000 A 
ATOM     26  N   UNL     1      45.728   4.716   8.300  0.00  0.00    +0.000 NA
ATOM     27  C   UNL     1      44.902   4.208   9.247  0.00  0.00    +0.000 A 
BRANCH  24  28
ATOM     28  C   UNL     1      47.296   1.549   6.892  0.00  0.00    +0.000 C 
ATOM     29  N   UNL     1      48.356   2.022   6.173  0.00  0.00    +0.000 N 
ATOM     30  O   UNL     1      47.037   0.348   6.870  0.00  0.00    +0.000 OA
ATOM     31  H   UNL     1      48.663   2.979   6.126  0.00  0.00    +0.000 HD
ATOM     32  H   UNL     1      48.883   1.332   5.650  0.00  0.00    +0.000 HD
ENDBRANCH  24  28
ENDBRANCH  19  27
ENDBRANCH  18  19
ENDBRANCH   1  18
TORSDOF 6
ENDMDL
MODEL 3
REMARK VINA RESULT:    -8.211      2.521      4.777
REMARK INTER + INTRA:         -12.379
REMARK INTER:                 -11.455
REMARK INTRA:                  -0.925
REMARK UNBOUND:                -1.288
REMARK  Name = 
REMARK  7 active torsions:
REMARK  status: ('A' for Active; 'I' for Inactive)
REMARK    1  A    between atoms: C_1  and  C_2
REMARK    2  A    between atoms: C_4  and  C_5
REMARK    3  A    between atoms: C_10  and  N_11
REMARK    4  A    between atoms: N_11  and  C_12
REMARK    5  A    between atoms: C_12  and  C_13
REMARK    6  A    between atoms: C_18  and  C_19
REMARK    7  A    between atoms: C_23  and  C_24
REMARK                            x       y       z     vdW  Elec       q    Type
REMARK                         _______ _______ _______ _____ _____    ______ ____
ROOT
ATOM      1  C   UNL     1      45.847   6.255  11.920  0.00  0.00    +0.000 A 
ATOM      2  C   UNL     1      46.703   6.901  11.024  0.00  0.00    +0.000 A 
ATOM      3  C   UNL     1      48.001   7.223  11.413  0.00  0.00    +0.000 A 
ATOM      4  C   UNL     1      48.441   6.920  12.703  0.00  0.00    +0.000 A 
ATOM      5  F   UNL     1      49.703   7.253  13.018  0.00  0.00    +0.000 F 
ATOM      6  C   UNL     1      47.611   6.290  13.645  0.00  0.00    +0.000 A 
ATOM      7  C   UNL     1      46.306   5.968  13.218  0.00  0.00    +0.000 A 
ENDROOT
BRANCH   6   8
ATOM      8  C   UNL     1      48.060   5.925  15.011  0.00  0.00    +0.000 A 
ATOM      9  C   UNL     1      48.675   6.876  15.848  0.00  0.00    +0.000 A 
ATOM     10  C   UNL     1      49.038   6.574  17.162  0.00  0.00    +0.000 A 
ATOM     11  C   UNL     1      48.805   5.302  17.674  0.00  0.00    +0.000 A 
ATOM     12  C   UNL     1      48.207   4.321  16.873  0.00  0.00    +0.000 A 
ATOM     13  C   UNL     1      47.850   4.642  15.548  0.00  0.00    +0.000 A 
BRANCH  12  14
ATOM     14  C   UNL     1      47.918   2.944  17.417  0.00  0.00    +0.000 C 
ATOM     15  F   UNL     1      48.475   1.941  16.682  0.00  0.00    +0.000 F 
ATOM     16  F   UNL     1      48.389   2.777  18.685  0.00  0.00    +0.000 F 
ATOM     17  F   UNL     1      46.586   2.668  17.473  0.00  0.00    +0.000 F 
ENDBRANCH  12  14
ENDBRANCH   6   8
BRANCH   1  18
ATOM     18  C   UNL     1      44.485   5.780  11.479  0.00  0.00    +0.000 C 
BRANCH  18  19
ATOM     19  N   UNL     1      44.431   5.449  10.085  0.00  0.00    +0.000 N 
ATOM     20  H   UNL     1      43.935   6.058   9.448  0.00  0.00    +0.000 HD
BRANCH  19  27
ATOM     21  C   UNL     1      43.871   2.534  10.964  0.00  0.00    +0.000 C 
ATOM     22  C   UNL     1      44.743   3.002   9.837  0.00  0.00    +0.000 A 
ATOM     23  C   UNL     1      45.390   1.996   9.094  0.00  0.00    +0.000 A 
ATOM     24  C   UNL     1      46.224   2.307   8.026  0.00  0.00    +0.000 A 
ATOM     25  C   UNL     1      46.372   3.648   7.739  0.00  0.00    +0.000 A 
ATOM     26  N   UNL     1      45.765   4.650   8.434  0.00  0.00    +0.000 NA
ATOM     27  C   UNL     1      44.959   4.340   9.478  0.00  0.00    +0.000 A 
BRANCH  24  28
ATOM     28  C   UNL     1      46.876   1.197   7.289  0.00  0.00    +0.000 C 
ATOM     29  N   UNL     1      46.682  -0.089   7.704  0.00  0.00    +0.000 N 
ATOM     30  O   UNL     1      47.586   1.416   6.310  0.00  0.00    +0.000 OA
ATOM     31  H   UNL     1      46.117  -0.383   8.484  0.00  0.00    +0.000 HD
ATOM     32  H   UNL     1      47.148  -0.807   7.163  0.00  0.00    +0.000 HD
ENDBRANCH  24  28
ENDBRANCH  19  27
ENDBRANCH  18  19
ENDBRANCH   1  18
TORSDOF 6
ENDMDL
MODEL 4
REMARK VINA RESULT:    -8.066      2.346      3.162
REMARK INTER + INTRA:         -12.183
REMARK INTER:                 -10.749
REMARK INTRA:                  -1.434
REMARK UNBOUND:                -1.288
REMARK  Name = 
REMARK  7 active torsions:
REMARK  status: ('A' for Active; 'I' for Inactive)
REMARK    1  A    between atoms: C_1  and  C_2
REMARK    2  A    between atoms: C_4  and  C_5
REMARK    3  A    between atoms: C_10  and  N_11
REMARK    4  A    between atoms: N_11  and  C_12
REMARK    5  A    between atoms: C_12  and  C_13
REMARK    6  A    between atoms: C_18  and  C_19
REMARK    7  A    between atoms: C_23  and  C_24
REMARK                            x       y       z     vdW  Elec       q    Type
REMARK                         _______ _______ _______ _____ _____    ______ ____
ROOT
ATOM      1  C   UNL     1      44.727   4.171  12.335  0.00  0.00    +0.000 A 
ATOM      2  C   UNL     1      43.600   4.997  12.387  0.00  0.00    +0.000 A 
ATOM      3  C   UNL     1      43.749   6.359  12.636  0.00  0.00    +0.000 A 
ATOM      4  C   UNL     1      45.019   6.897  12.854  0.00  0.00    +0.000 A 
ATOM      5  F   UNL     1      45.098   8.217  13.086  0.00  0.00    +0.000 F 
ATOM      6  C   UNL     1      46.178   6.104  12.831  0.00  0.00    +0.000 A 
ATOM      7  C   UNL     1      45.996   4.730  12.568  0.00  0.00    +0.000 A 
ENDROOT
BRANCH   6   8
ATOM      8  C   UNL     1      47.543   6.652  13.026  0.00  0.00    +0.000 A 
ATOM      9  C   UNL     1      48.209   7.321  11.982  0.00  0.00    +0.000 A 
ATOM     10  C   UNL     1      49.463   7.908  12.167  0.00  0.00    +0.000 A 
ATOM     11  C   UNL     1      50.093   7.831  13.404  0.00  0.00    +0.000 A 
ATOM     12  C   UNL     1      49.472   7.164  14.467  0.00  0.00    +0.000 A 
ATOM     13  C   UNL     1      48.209   6.575  14.264  0.00  0.00    +0.000 A 
BRANCH  12  14
ATOM     14  C   UNL     1      50.124   7.094  15.826  0.00  0.00    +0.000 C 
ATOM     15  F   UNL     1      49.495   6.245  16.688  0.00  0.00    +0.000 F 
ATOM     16  F   UNL     1      51.415   6.664  15.761  0.00  0.00    +0.000 F 
ATOM     17  F   UNL     1      50.162   8.301  16.455  0.00  0.00    +0.000 F 
ENDBRANCH  12  14
ENDBRANCH   6   8
BRANCH   1  18
ATOM     18  C   UNL     1      44.602   2.721  11.938  0.00  0.00    +0.000 C 
BRANCH  18  19
ATOM     19  N   UNL     1      44.226   2.547  10.565  0.00  0.00    +0.000 N 
ATOM     20  H   UNL     1      43.268   2.316  10.337  0.00  0.00    +0.000 HD
BRANCH  19  27
ATOM     21  C   UNL     1      45.075   5.181   9.178  0.00  0.00    +0.000 C 
ATOM     22  C   UNL     1      45.454   3.779   8.800  0.00  0.00    +0.000 A 
ATOM     23  C   UNL     1      46.292   3.646   7.676  0.00  0.00    +0.000 A 
ATOM     24  C   UNL     1      46.711   2.399   7.229  0.00  0.00    +0.000 A 
ATOM     25  C   UNL     1      46.265   1.311   7.951  0.00  0.00    +0.000 A 
ATOM     26  N   UNL     1      45.454   1.399   9.043  0.00  0.00    +0.000 NA
ATOM     27  C   UNL     1      45.044   2.618   9.469  0.00  0.00    +0.000 A 
BRANCH  24  28
ATOM     28  C   UNL     1      47.590   2.331   6.036  0.00  0.00    +0.000 C 
ATOM     29  N   UNL     1      47.440   3.253   5.040  0.00  0.00    +0.000 N 
ATOM     30  O   UNL     1      48.450   1.460   5.930  0.00  0.00    +0.000 OA
ATOM     31  H   UNL     1      46.777   4.010   5.025  0.00  0.00    +0.000 HD
ATOM     32  H   UNL     1      48.069   3.162   4.250  0.00  0.00    +0.000 HD
ENDBRANCH  24  28
ENDBRANCH  19  27
ENDBRANCH  18  19
ENDBRANCH   1  18
TORSDOF 6
ENDMDL
MODEL 5
REMARK VINA RESULT:    -8.033      1.929      2.387
REMARK INTER + INTRA:         -12.138
REMARK INTER:                 -10.948
REMARK INTRA:                  -1.191
REMARK UNBOUND:                -1.288
REMARK  Name = 
REMARK  7 active torsions:
REMARK  status: ('A' for Active; 'I' for Inactive)
REMARK    1  A    between atoms: C_1  and  C_2
REMARK    2  A    between atoms: C_4  and  C_5
REMARK    3  A    between atoms: C_10  and  N_11
REMARK    4  A    between atoms: N_11  and  C_12
REMARK    5  A    between atoms: C_12  and  C_13
REMARK    6  A    between atoms: C_18  and  C_19
REMARK    7  A    between atoms: C_23  and  C_24
REMARK                            x       y       z     vdW  Elec       q    Type
REMARK                         _______ _______ _______ _____ _____    ______ ____
ROOT
ATOM      1  C   UNL     1      45.497   5.908  11.697  0.00  0.00    +0.000 A 
ATOM      2  C   UNL     1      45.111   4.990  12.677  0.00  0.00    +0.000 A 
ATOM      3  C   UNL     1      45.951   4.736  13.758  0.00  0.00    +0.000 A 
ATOM      4  C   UNL     1      47.186   5.381  13.854  0.00  0.00    +0.000 A 
ATOM      5  F   UNL     1      47.950   5.097  14.921  0.00  0.00    +0.000 F 
ATOM      6  C   UNL     1      47.625   6.297  12.883  0.00  0.00    +0.000 A 
ATOM      7  C   UNL     1      46.748   6.540  11.805  0.00  0.00    +0.000 A 
ENDROOT
BRANCH   6   8
ATOM      8  C   UNL     1      48.915   7.023  12.974  0.00  0.00    +0.000 A 
ATOM      9  C   UNL     1      49.598   7.433  11.814  0.00  0.00    +0.000 A 
ATOM     10  C   UNL     1      50.775   8.182  11.878  0.00  0.00    +0.000 A 
ATOM     11  C   UNL     1      51.311   8.532  13.112  0.00  0.00    +0.000 A 
ATOM     12  C   UNL     1      50.672   8.136  14.293  0.00  0.00    +0.000 A 
ATOM     13  C   UNL     1      49.486   7.378  14.211  0.00  0.00    +0.000 A 
BRANCH  12  14
ATOM     14  C   UNL     1      51.219   8.531  15.643  0.00  0.00    +0.000 C 
ATOM     15  F   UNL     1      50.934   7.633  16.629  0.00  0.00    +0.000 F 
ATOM     16  F   UNL     1      52.575   8.655  15.637  0.00  0.00    +0.000 F 
ATOM     17  F   UNL     1      50.735   9.727  16.078  0.00  0.00    +0.000 F 
ENDBRANCH  12  14
ENDBRANCH   6   8
BRANCH   1  18
ATOM     18  C   UNL     1      44.550   6.297  10.589  0.00  0.00    +0.000 C 
BRANCH  18  19
ATOM     19  N   UNL     1      44.055   5.168   9.854  0.00  0.00    +0.000 N 
ATOM     20  H   UNL     1      43.057   5.015   9.790  0.00  0.00    +0.000 HD
BRANCH  19  27
ATOM     21  C   UNL     1      43.954   2.154  10.552  0.00  0.00    +0.000 C 
ATOM     22  C   UNL     1      44.792   2.827   9.506  0.00  0.00    +0.000 A 
ATOM     23  C   UNL     1      45.640   1.989   8.756  0.00  0.00    +0.000 A 
ATOM     24  C   UNL     1      46.464   2.497   7.759  0.00  0.00    +0.000 A 
ATOM     25  C   UNL     1      46.397   3.859   7.548  0.00  0.00    +0.000 A 
ATOM     26  N   UNL     1      45.591   4.703   8.253  0.00  0.00    +0.000 NA
ATOM     27  C   UNL     1      44.795   4.201   9.227  0.00  0.00    +0.000 A 
BRANCH  24  28
ATOM     28  C   UNL     1      47.334   1.557   7.011  0.00  0.00    +0.000 C 
ATOM     29  N   UNL     1      48.462   2.028   6.402  0.00  0.00    +0.000 N 
ATOM     30  O   UNL     1      47.058   0.363   6.933  0.00  0.00    +0.000 OA
ATOM     31  H   UNL     1      48.787   2.981   6.408  0.00  0.00    +0.000 HD
ATOM     32  H   UNL     1      49.021   1.343   5.908  0.00  0.00    +0.000 HD
ENDBRANCH  24  28
ENDBRANCH  19  27
ENDBRANCH  18  19
ENDBRANCH   1  18
TORSDOF 6
ENDMDL
MODEL 6
REMARK VINA RESULT:    -8.021      1.735      2.392
REMARK INTER + INTRA:         -12.122
REMARK INTER:                 -10.701
REMARK INTRA:                  -1.421
REMARK UNBOUND:                -1.288
REMARK  Name = 
REMARK  7 active torsions:
REMARK  status: ('A' for Active; 'I' for Inactive)
REMARK    1  A    between atoms: C_1  and  C_2
REMARK    2  A    between atoms: C_4  and  C_5
REMARK    3  A    between atoms: C_10  and  N_11
REMARK    4  A    between atoms: N_11  and  C_12
REMARK    5  A    between atoms: C_12  and  C_13
REMARK    6  A    between atoms: C_18  and  C_19
REMARK    7  A    between atoms: C_23  and  C_24
REMARK                            x       y       z     vdW  Elec       q    Type
REMARK                         _______ _______ _______ _____ _____    ______ ____
ROOT
ATOM      1  C   UNL     1      44.878   4.296  12.368  0.00  0.00    +0.000 A 
ATOM      2  C   UNL     1      43.764   5.136  12.298  0.00  0.00    +0.000 A 
ATOM      3  C   UNL     1      43.908   6.501  12.536  0.00  0.00    +0.000 A 
ATOM      4  C   UNL     1      45.159   7.027  12.866  0.00  0.00    +0.000 A 
ATOM      5  F   UNL     1      45.235   8.350  13.081  0.00  0.00    +0.000 F 
ATOM      6  C   UNL     1      46.304   6.218  12.968  0.00  0.00    +0.000 A 
ATOM      7  C   UNL     1      46.127   4.843  12.712  0.00  0.00    +0.000 A 
ENDROOT
BRANCH   6   8
ATOM      8  C   UNL     1      47.651   6.752  13.283  0.00  0.00    +0.000 A 
ATOM      9  C   UNL     1      48.188   6.641  14.579  0.00  0.00    +0.000 A 
ATOM     10  C   UNL     1      49.483   7.070  14.878  0.00  0.00    +0.000 A 
ATOM     11  C   UNL     1      50.276   7.635  13.886  0.00  0.00    +0.000 A 
ATOM     12  C   UNL     1      49.779   7.776  12.585  0.00  0.00    +0.000 A 
ATOM     13  C   UNL     1      48.469   7.341  12.300  0.00  0.00    +0.000 A 
BRANCH  12  14
ATOM     14  C   UNL     1      50.632   8.359  11.486  0.00  0.00    +0.000 C 
ATOM     15  F   UNL     1      51.839   8.821  11.921  0.00  0.00    +0.000 F 
ATOM     16  F   UNL     1      50.916   7.450  10.511  0.00  0.00    +0.000 F 
ATOM     17  F   UNL     1      50.037   9.409  10.856  0.00  0.00    +0.000 F 
ENDBRANCH  12  14
ENDBRANCH   6   8
BRANCH   1  18
ATOM     18  C   UNL     1      44.771   2.840  11.986  0.00  0.00    +0.000 C 
BRANCH  18  19
ATOM     19  N   UNL     1      44.364   2.647  10.625  0.00  0.00    +0.000 N 
ATOM     20  H   UNL     1      43.400   2.412  10.423  0.00  0.00    +0.000 HD
BRANCH  19  27
ATOM     21  C   UNL     1      45.210   5.265   9.206  0.00  0.00    +0.000 C 
ATOM     22  C   UNL     1      45.563   3.857   8.825  0.00  0.00    +0.000 A 
ATOM     23  C   UNL     1      46.372   3.709   7.682  0.00  0.00    +0.000 A 
ATOM     24  C   UNL     1      46.766   2.455   7.231  0.00  0.00    +0.000 A 
ATOM     25  C   UNL     1      46.324   1.375   7.969  0.00  0.00    +0.000 A 
ATOM     26  N   UNL     1      45.540   1.478   9.079  0.00  0.00    +0.000 NA
ATOM     27  C   UNL     1      45.155   2.704   9.509  0.00  0.00    +0.000 A 
BRANCH  24  28
ATOM     28  C   UNL     1      47.614   2.371   6.017  0.00  0.00    +0.000 C 
ATOM     29  N   UNL     1      47.479   3.314   5.038  0.00  0.00    +0.000 N 
ATOM     30  O   UNL     1      48.438   1.470   5.880  0.00  0.00    +0.000 OA
ATOM     31  H   UNL     1      46.845   4.096   5.050  0.00  0.00    +0.000 HD
ATOM     32  H   UNL     1      48.086   3.210   4.234  0.00  0.00    +0.000 HD
ENDBRANCH  24  28
ENDBRANCH  19  27
ENDBRANCH  18  19
ENDBRANCH   1  18
TORSDOF 6
ENDMDL
MODEL 7
REMARK VINA RESULT:    -7.962      1.546      2.177
REMARK INTER + INTRA:         -12.042
REMARK INTER:                 -10.830
REMARK INTRA:                  -1.211
REMARK UNBOUND:                -1.288
REMARK  Name = 
REMARK  7 active torsions:
REMARK  status: ('A' for Active; 'I' for Inactive)
REMARK    1  A    between atoms: C_1  and  C_2
REMARK    2  A    between atoms: C_4  and  C_5
REMARK    3  A    between atoms: C_10  and  N_11
REMARK    4  A    between atoms: N_11  and  C_12
REMARK    5  A    between atoms: C_12  and  C_13
REMARK    6  A    between atoms: C_18  and  C_19
REMARK    7  A    between atoms: C_23  and  C_24
REMARK                            x       y       z     vdW  Elec       q    Type
REMARK                         _______ _______ _______ _____ _____    ______ ____
ROOT
ATOM      1  C   UNL     1      45.152   6.717  11.661  0.00  0.00    +0.000 A 
ATOM      2  C   UNL     1      44.359   7.862  11.539  0.00  0.00    +0.000 A 
ATOM      3  C   UNL     1      44.930   9.122  11.702  0.00  0.00    +0.000 A 
ATOM      4  C   UNL     1      46.288   9.242  12.007  0.00  0.00    +0.000 A 
ATOM      5  F   UNL     1      46.780  10.483  12.148  0.00  0.00    +0.000 F 
ATOM      6  C   UNL     1      47.120   8.120  12.159  0.00  0.00    +0.000 A 
ATOM      7  C   UNL     1      46.514   6.859  11.979  0.00  0.00    +0.000 A 
ENDROOT
BRANCH   6   8
ATOM      8  C   UNL     1      48.571   8.217  12.449  0.00  0.00    +0.000 A 
ATOM      9  C   UNL     1      49.036   8.370  13.769  0.00  0.00    +0.000 A 
ATOM     10  C   UNL     1      50.399   8.388  14.072  0.00  0.00    +0.000 A 
ATOM     11  C   UNL     1      51.340   8.265  13.055  0.00  0.00    +0.000 A 
ATOM     12  C   UNL     1      50.923   8.123  11.726  0.00  0.00    +0.000 A 
ATOM     13  C   UNL     1      49.544   8.109  11.438  0.00  0.00    +0.000 A 
BRANCH  12  14
ATOM     14  C   UNL     1      51.925   7.957  10.611  0.00  0.00    +0.000 C 
ATOM     15  F   UNL     1      51.593   6.979   9.721  0.00  0.00    +0.000 F 
ATOM     16  F   UNL     1      52.072   9.093   9.872  0.00  0.00    +0.000 F 
ATOM     17  F   UNL     1      53.170   7.641  11.063  0.00  0.00    +0.000 F 
ENDBRANCH  12  14
ENDBRANCH   6   8
BRANCH   1  18
ATOM     18  C   UNL     1      44.585   5.352  11.361  0.00  0.00    +0.000 C 
BRANCH  18  19
ATOM     19  N   UNL     1      44.381   5.126   9.959  0.00  0.00    +0.000 N 
ATOM     20  H   UNL     1      43.611   5.584   9.489  0.00  0.00    +0.000 HD
BRANCH  19  27
ATOM     21  C   UNL     1      44.178   2.037   9.956  0.00  0.00    +0.000 C 
ATOM     22  C   UNL     1      45.057   2.902   9.101  0.00  0.00    +0.000 A 
ATOM     23  C   UNL     1      45.895   2.227   8.193  0.00  0.00    +0.000 A 
ATOM     24  C   UNL     1      46.754   2.919   7.348  0.00  0.00    +0.000 A 
ATOM     25  C   UNL     1      46.731   4.295   7.449  0.00  0.00    +0.000 A 
ATOM     26  N   UNL     1      45.936   4.984   8.315  0.00  0.00    +0.000 NA
ATOM     27  C   UNL     1      45.105   4.302   9.141  0.00  0.00    +0.000 A 
BRANCH  24  28
ATOM     28  C   UNL     1      47.612   2.145   6.418  0.00  0.00    +0.000 C 
ATOM     29  N   UNL     1      48.129   2.759   5.313  0.00  0.00    +0.000 N 
ATOM     30  O   UNL     1      47.867   0.961   6.628  0.00  0.00    +0.000 OA
ATOM     31  H   UNL     1      47.992   3.721   5.049  0.00  0.00    +0.000 HD
ATOM     32  H   UNL     1      48.711   2.184   4.715  0.00  0.00    +0.000 HD
ENDBRANCH  24  28
ENDBRANCH  19  27
ENDBRANCH  18  19
ENDBRANCH   1  18
TORSDOF 6
ENDMDL
MODEL 8
REMARK VINA RESULT:    -7.881      4.613      7.587
REMARK INTER + INTRA:         -11.932
REMARK INTER:                 -10.986
REMARK INTRA:                  -0.947
REMARK UNBOUND:                -1.288
REMARK  Name = 
REMARK  7 active torsions:
REMARK  status: ('A' for Active; 'I' for Inactive)
REMARK    1  A    between atoms: C_1  and  C_2
REMARK    2  A    between atoms: C_4  and  C_5
REMARK    3  A    between atoms: C_10  and  N_11
REMARK    4  A    between atoms: N_11  and  C_12
REMARK    5  A    between atoms: C_12  and  C_13
REMARK    6  A    between atoms: C_18  and  C_19
REMARK    7  A    between atoms: C_23  and  C_24
REMARK                            x       y       z     vdW  Elec       q    Type
REMARK                         _______ _______ _______ _____ _____    ______ ____
ROOT
ATOM      1  C   UNL     1      47.022   8.476  12.640  0.00  0.00    +0.000 A 
ATOM      2  C   UNL     1      46.143   9.560  12.565  0.00  0.00    +0.000 A 
ATOM      3  C   UNL     1      44.900   9.405  11.958  0.00  0.00    +0.000 A 
ATOM      4  C   UNL     1      44.538   8.175  11.405  0.00  0.00    +0.000 A 
ATOM      5  F   UNL     1      43.325   8.088  10.836  0.00  0.00    +0.000 F 
ATOM      6  C   UNL     1      45.395   7.062  11.437  0.00  0.00    +0.000 A 
ATOM      7  C   UNL     1      46.643   7.248  12.067  0.00  0.00    +0.000 A 
ENDROOT
BRANCH   6   8
ATOM      8  C   UNL     1      45.026   5.735  10.889  0.00  0.00    +0.000 A 
ATOM      9  C   UNL     1      44.012   4.961  11.486  0.00  0.00    +0.000 A 
ATOM     10  C   UNL     1      43.599   3.743  10.942  0.00  0.00    +0.000 A 
ATOM     11  C   UNL     1      44.200   3.257   9.786  0.00  0.00    +0.000 A 
ATOM     12  C   UNL     1      45.221   3.987   9.165  0.00  0.00    +0.000 A 
ATOM     13  C   UNL     1      45.628   5.213   9.728  0.00  0.00    +0.000 A 
BRANCH  12  14
ATOM     14  C   UNL     1      45.866   3.493   7.894  0.00  0.00    +0.000 C 
ATOM     15  F   UNL     1      46.464   2.276   8.025  0.00  0.00    +0.000 F 
ATOM     16  F   UNL     1      44.970   3.357   6.876  0.00  0.00    +0.000 F 
ATOM     17  F   UNL     1      46.832   4.335   7.432  0.00  0.00    +0.000 F 
ENDBRANCH  12  14
ENDBRANCH   6   8
BRANCH   1  18
ATOM     18  C   UNL     1      48.316   8.583  13.406  0.00  0.00    +0.000 C 
BRANCH  18  19
ATOM     19  N   UNL     1      48.896   7.306  13.708  0.00  0.00    +0.000 N 
ATOM     20  H   UNL     1      49.596   6.919  13.088  0.00  0.00    +0.000 HD
BRANCH  19  27
ATOM     21  C   UNL     1      49.792   7.775  16.634  0.00  0.00    +0.000 C 
ATOM     22  C   UNL     1      48.966   6.644  16.095  0.00  0.00    +0.000 A 
ATOM     23  C   UNL     1      48.554   5.677  17.031  0.00  0.00    +0.000 A 
ATOM     24  C   UNL     1      47.784   4.583  16.653  0.00  0.00    +0.000 A 
ATOM     25  C   UNL     1      47.448   4.508  15.316  0.00  0.00    +0.000 A 
ATOM     26  N   UNL     1      47.828   5.423  14.381  0.00  0.00    +0.000 NA
ATOM     27  C   UNL     1      48.584   6.483  14.756  0.00  0.00    +0.000 A 
BRANCH  24  28
ATOM     28  C   UNL     1      47.389   3.600  17.691  0.00  0.00    +0.000 C 
ATOM     29  N   UNL     1      48.116   3.512  18.843  0.00  0.00    +0.000 N 
ATOM     30  O   UNL     1      46.417   2.866  17.531  0.00  0.00    +0.000 OA
ATOM     31  H   UNL     1      48.921   4.068  19.081  0.00  0.00    +0.000 HD
ATOM     32  H   UNL     1      47.799   2.827  19.519  0.00  0.00    +0.000 HD
ENDBRANCH  24  28
ENDBRANCH  19  27
ENDBRANCH  18  19
ENDBRANCH   1  18
TORSDOF 6
ENDMDL
MODEL 9
REMARK VINA RESULT:    -7.585      5.435      8.390
REMARK INTER + INTRA:         -11.533
REMARK INTER:                 -10.063
REMARK INTRA:                  -1.470
REMARK UNBOUND:                -1.288
REMARK  Name = 
REMARK  7 active torsions:
REMARK  status: ('A' for Active; 'I' for Inactive)
REMARK    1  A    between atoms: C_1  and  C_2
REMARK    2  A    between atoms: C_4  and  C_5
REMARK    3  A    between atoms: C_10  and  N_11
REMARK    4  A    between atoms: N_11  and  C_12
REMARK    5  A    between atoms: C_12  and  C_13
REMARK    6  A    between atoms: C_18  and  C_19
REMARK    7  A    between atoms: C_23  and  C_24
REMARK                            x       y       z     vdW  Elec       q    Type
REMARK                         _______ _______ _______ _____ _____    ______ ____
ROOT
ATOM      1  C   UNL     1      47.281   7.952  13.213  0.00  0.00    +0.000 A 
ATOM      2  C   UNL     1      46.634   9.135  12.844  0.00  0.00    +0.000 A 
ATOM      3  C   UNL     1      45.438   9.079  12.133  0.00  0.00    +0.000 A 
ATOM      4  C   UNL     1      44.895   7.845  11.769  0.00  0.00    +0.000 A 
ATOM      5  F   UNL     1      43.739   7.856  11.087  0.00  0.00    +0.000 F 
ATOM      6  C   UNL     1      45.519   6.630  12.100  0.00  0.00    +0.000 A 
ATOM      7  C   UNL     1      46.724   6.720  12.829  0.00  0.00    +0.000 A 
ENDROOT
BRANCH   6   8
ATOM      8  C   UNL     1      44.951   5.304  11.758  0.00  0.00    +0.000 A 
ATOM      9  C   UNL     1      44.070   4.645  12.637  0.00  0.00    +0.000 A 
ATOM     10  C   UNL     1      43.467   3.431  12.302  0.00  0.00    +0.000 A 
ATOM     11  C   UNL     1      43.738   2.834  11.076  0.00  0.00    +0.000 A 
ATOM     12  C   UNL     1      44.617   3.447  10.175  0.00  0.00    +0.000 A 
ATOM     13  C   UNL     1      45.220   4.671  10.530  0.00  0.00    +0.000 A 
BRANCH  12  14
ATOM     14  C   UNL     1      44.903   2.833   8.827  0.00  0.00    +0.000 C 
ATOM     15  F   UNL     1      46.222   2.857   8.487  0.00  0.00    +0.000 F 
ATOM     16  F   UNL     1      44.530   1.523   8.764  0.00  0.00    +0.000 F 
ATOM     17  F   UNL     1      44.245   3.459   7.812  0.00  0.00    +0.000 F 
ENDBRANCH  12  14
ENDBRANCH   6   8
BRANCH   1  18
ATOM     18  C   UNL     1      48.504   7.985  14.095  0.00  0.00    +0.000 C 
BRANCH  18  19
ATOM     19  N   UNL     1      48.864   6.692  14.602  0.00  0.00    +0.000 N 
ATOM     20  H   UNL     1      49.301   6.021  13.986  0.00  0.00    +0.000 HD
BRANCH  19  27
ATOM     21  C   UNL     1      47.146   4.202  15.261  0.00  0.00    +0.000 C 
ATOM     22  C   UNL     1      47.877   5.095  16.220  0.00  0.00    +0.000 A 
ATOM     23  C   UNL     1      47.762   4.765  17.584  0.00  0.00    +0.000 A 
ATOM     24  C   UNL     1      48.394   5.517  18.567  0.00  0.00    +0.000 A 
ATOM     25  C   UNL     1      49.137   6.593  18.128  0.00  0.00    +0.000 A 
ATOM     26  N   UNL     1      49.271   6.945  16.818  0.00  0.00    +0.000 NA
ATOM     27  C   UNL     1      48.647   6.211  15.866  0.00  0.00    +0.000 A 
BRANCH  24  28
ATOM     28  C   UNL     1      48.227   5.114  19.985  0.00  0.00    +0.000 C 
ATOM     29  N   UNL     1      48.639   3.875  20.383  0.00  0.00    +0.000 N 
ATOM     30  O   UNL     1      47.728   5.879  20.807  0.00  0.00    +0.000 OA
ATOM     31  H   UNL     1      49.066   3.175  19.800  0.00  0.00    +0.000 HD
ATOM     32  H   UNL     1      48.504   3.654  21.363  0.00  0.00    +0.000 HD
ENDBRANCH  24  28
ENDBRANCH  19  27
ENDBRANCH  18  19
ENDBRANCH   1  18
TORSDOF 6
ENDMDL
