MODEL 1
REMARK VINA RESULT:    -9.737      0.000      0.000
REMARK INTER + INTRA:         -12.747
REMARK INTER:                 -12.013
REMARK INTRA:                  -0.733
REMARK UNBOUND:                -0.733
REMARK  Name = 
REMARK  4 active torsions:
REMARK  status: ('A' for Active; 'I' for Inactive)
REMARK    1  A    between atoms: C_2  and  C_4
REMARK    2  A    between atoms: N_8  and  C_9
REMARK    3  A    between atoms: C_9  and  C_10
REMARK    4  A    between atoms: C_14  and  C_15
REMARK                            x       y       z     vdW  Elec       q    Type
REMARK                         _______ _______ _______ _____ _____    ______ ____
ROOT
ATOM      1  C   UNL     1      43.911   4.807  11.518  0.00  0.00    +0.000 C 
ATOM      2  C   UNL     1      42.673   4.940  12.396  0.00  0.00    +0.000 C 
ATOM      3  C   UNL     1      42.925   5.941  11.321  0.00  0.00    +0.000 C 
ENDROOT
BRANCH   1   8
ATOM      4  C   UNL     1      46.473   2.709   7.496  0.00  0.00    +0.000 A 
ATOM      5  C   UNL     1      46.091   4.036   7.680  0.00  0.00    +0.000 A 
ATOM      6  C   UNL     1      45.279   4.369   8.767  0.00  0.00    +0.000 A 
ATOM      7  C   UNL     1      44.853   3.374   9.640  0.00  0.00    +0.000 A 
ATOM      8  N   UNL     1      43.932   3.601  10.668  0.00  0.00    +0.000 N 
ATOM      9  N   UNL     1      45.224   2.085   9.473  0.00  0.00    +0.000 NA
ATOM     10  C   UNL     1      46.017   1.779   8.415  0.00  0.00    +0.000 A 
ATOM     11  H   UNL     1      43.879   2.716  11.171  0.00  0.00    +0.000 HD
BRANCH   4  13
ATOM     12  N   UNL     1      47.215   2.990   5.197  0.00  0.00    +0.000 N 
ATOM     13  C   UNL     1      47.282   2.255   6.346  0.00  0.00    +0.000 C 
ATOM     14  O   UNL     1      48.005   1.271   6.423  0.00  0.00    +0.000 OA
ATOM     15  H   UNL     1      47.824   2.706   4.439  0.00  0.00    +0.000 HD
ATOM     16  H   UNL     1      46.820   3.919   5.161  0.00  0.00    +0.000 HD
ENDBRANCH   4  13
ENDBRANCH   1   8
BRANCH   1  17
ATOM     17  C   UNL     1      45.274   5.128  12.119  0.00  0.00    +0.000 A 
ATOM     18  C   UNL     1      46.066   6.186  11.646  0.00  0.00    +0.000 A 
ATOM     19  C   UNL     1      47.247   6.551  12.290  0.00  0.00    +0.000 A 
ATOM     20  C   UNL     1      47.650   5.875  13.443  0.00  0.00    +0.000 A 
ATOM     21  C   UNL     1      46.904   4.801  13.958  0.00  0.00    +0.000 A 
ATOM     22  C   UNL     1      45.738   4.434  13.254  0.00  0.00    +0.000 A 
BRANCH  21  23
ATOM     23  C   UNL     1      47.283   4.121  15.213  0.00  0.00    +0.000 A 
ATOM     24  N   UNL     1      47.874   2.914  15.122  0.00  0.00    +0.000 NA
ATOM     25  C   UNL     1      48.288   2.359  16.278  0.00  0.00    +0.000 A 
ATOM     26  C   UNL     1      48.128   2.951  17.507  0.00  0.00    +0.000 A 
ATOM     27  C   UNL     1      47.500   4.173  17.497  0.00  0.00    +0.000 A 
ATOM     28  N   UNL     1      47.074   4.780  16.375  0.00  0.00    +0.000 NA
ENDBRANCH  21  23
ENDBRANCH   1  17
TORSDOF 4
ENDMDL
MODEL 2
REMARK VINA RESULT:    -9.087      2.072      3.513
REMARK INTER + INTRA:         -11.945
REMARK INTER:                 -10.868
REMARK INTRA:                  -1.077
REMARK UNBOUND:                -0.733
REMARK  Name = 
REMARK  4 active torsions:
REMARK  status: ('A' for Active; 'I' for Inactive)
REMARK    1  A    between atoms: C_2  and  C_4
REMARK    2  A    between atoms: N_8  and  C_9
REMARK    3  A    between atoms: C_9  and  C_10
REMARK    4  A    between atoms: C_14  and  C_15
REMARK                            x       y       z     vdW  Elec       q    Type
REMARK                         _______ _______ _______ _____ _____    ______ ____
ROOT
ATOM      1  C   UNL     1      43.813   4.975  11.367  0.00  0.00    +0.000 C 
ATOM      2  C   UNL     1      42.474   5.272  12.031  0.00  0.00    +0.000 C 
ATOM      3  C   UNL     1      43.033   6.232  11.037  0.00  0.00    +0.000 C 
ENDROOT
BRANCH   1   8
ATOM      4  C   UNL     1      46.524   2.742   7.519  0.00  0.00    +0.000 A 
ATOM      5  C   UNL     1      46.223   4.091   7.694  0.00  0.00    +0.000 A 
ATOM      6  C   UNL     1      45.355   4.469   8.721  0.00  0.00    +0.000 A 
ATOM      7  C   UNL     1      44.795   3.498   9.544  0.00  0.00    +0.000 A 
ATOM      8  N   UNL     1      43.816   3.779  10.503  0.00  0.00    +0.000 N 
ATOM      9  N   UNL     1      45.087   2.188   9.386  0.00  0.00    +0.000 NA
ATOM     10  C   UNL     1      45.937   1.838   8.387  0.00  0.00    +0.000 A 
ATOM     11  H   UNL     1      43.663   2.895  10.987  0.00  0.00    +0.000 HD
BRANCH   4  13
ATOM     12  N   UNL     1      47.516   3.028   5.317  0.00  0.00    +0.000 N 
ATOM     13  C   UNL     1      47.386   2.243   6.427  0.00  0.00    +0.000 C 
ATOM     14  O   UNL     1      47.982   1.179   6.520  0.00  0.00    +0.000 OA
ATOM     15  H   UNL     1      48.160   2.706   4.605  0.00  0.00    +0.000 HD
ATOM     16  H   UNL     1      47.234   3.998   5.293  0.00  0.00    +0.000 HD
ENDBRANCH   4  13
ENDBRANCH   1   8
BRANCH   1  17
ATOM     17  C   UNL     1      45.087   5.108  12.193  0.00  0.00    +0.000 A 
ATOM     18  C   UNL     1      45.520   4.093  13.061  0.00  0.00    +0.000 A 
ATOM     19  C   UNL     1      46.753   4.170  13.707  0.00  0.00    +0.000 A 
ATOM     20  C   UNL     1      47.592   5.263  13.479  0.00  0.00    +0.000 A 
ATOM     21  C   UNL     1      47.208   6.314  12.630  0.00  0.00    +0.000 A 
ATOM     22  C   UNL     1      45.936   6.219  12.027  0.00  0.00    +0.000 A 
BRANCH  21  23
ATOM     23  C   UNL     1      48.113   7.441  12.327  0.00  0.00    +0.000 A 
ATOM     24  N   UNL     1      49.431   7.182  12.229  0.00  0.00    +0.000 NA
ATOM     25  C   UNL     1      50.220   8.212  11.865  0.00  0.00    +0.000 A 
ATOM     26  C   UNL     1      49.751   9.476  11.608  0.00  0.00    +0.000 A 
ATOM     27  C   UNL     1      48.396   9.644  11.751  0.00  0.00    +0.000 A 
ATOM     28  N   UNL     1      47.557   8.653  12.103  0.00  0.00    +0.000 NA
ENDBRANCH  21  23
ENDBRANCH   1  17
TORSDOF 4
ENDMDL
MODEL 3
REMARK VINA RESULT:    -6.904      3.817      8.334
REMARK INTER + INTRA:          -9.252
REMARK INTER:                  -8.348
REMARK INTRA:                  -0.904
REMARK UNBOUND:                -0.733
REMARK  Name = 
REMARK  4 active torsions:
REMARK  status: ('A' for Active; 'I' for Inactive)
REMARK    1  A    between atoms: C_2  and  C_4
REMARK    2  A    between atoms: N_8  and  C_9
REMARK    3  A    between atoms: C_9  and  C_10
REMARK    4  A    between atoms: C_14  and  C_15
REMARK                            x       y       z     vdW  Elec       q    Type
REMARK                         _______ _______ _______ _____ _____    ______ ____
ROOT
ATOM      1  C   UNL     1      48.903   7.912  12.610  0.00  0.00    +0.000 C 
ATOM      2  C   UNL     1      49.866   8.174  11.459  0.00  0.00    +0.000 C 
ATOM      3  C   UNL     1      49.497   9.288  12.379  0.00  0.00    +0.000 C 
ENDROOT
BRANCH   1   8
ATOM      4  C   UNL     1      48.446   6.781  17.675  0.00  0.00    +0.000 A 
ATOM      5  C   UNL     1      48.496   8.035  17.070  0.00  0.00    +0.000 A 
ATOM      6  C   UNL     1      48.768   8.124  15.703  0.00  0.00    +0.000 A 
ATOM      7  C   UNL     1      48.999   6.966  14.969  0.00  0.00    +0.000 A 
ATOM      8  N   UNL     1      49.411   6.977  13.632  0.00  0.00    +0.000 N 
ATOM      9  N   UNL     1      48.945   5.745  15.545  0.00  0.00    +0.000 NA
ATOM     10  C   UNL     1      48.674   5.675  16.874  0.00  0.00    +0.000 A 
ATOM     11  H   UNL     1      49.422   5.996  13.354  0.00  0.00    +0.000 HD
BRANCH   4  13
ATOM     12  N   UNL     1      47.209   5.754  19.500  0.00  0.00    +0.000 N 
ATOM     13  C   UNL     1      48.220   6.591  19.123  0.00  0.00    +0.000 C 
ATOM     14  O   UNL     1      48.925   7.143  19.956  0.00  0.00    +0.000 OA
ATOM     15  H   UNL     1      47.107   5.582  20.493  0.00  0.00    +0.000 HD
ATOM     16  H   UNL     1      46.761   5.112  18.862  0.00  0.00    +0.000 HD
ENDBRANCH   4  13
ENDBRANCH   1   8
BRANCH   1  17
ATOM     17  C   UNL     1      47.426   7.697  12.297  0.00  0.00    +0.000 A 
ATOM     18  C   UNL     1      46.460   8.683  12.554  0.00  0.00    +0.000 A 
ATOM     19  C   UNL     1      45.138   8.526  12.140  0.00  0.00    +0.000 A 
ATOM     20  C   UNL     1      44.759   7.381  11.437  0.00  0.00    +0.000 A 
ATOM     21  C   UNL     1      45.680   6.356  11.159  0.00  0.00    +0.000 A 
ATOM     22  C   UNL     1      46.997   6.533  11.631  0.00  0.00    +0.000 A 
BRANCH  21  23
ATOM     23  C   UNL     1      45.309   5.173  10.358  0.00  0.00    +0.000 A 
ATOM     24  N   UNL     1      45.676   5.148   9.063  0.00  0.00    +0.000 NA
ATOM     25  C   UNL     1      45.402   4.018   8.381  0.00  0.00    +0.000 A 
ATOM     26  C   UNL     1      44.774   2.930   8.935  0.00  0.00    +0.000 A 
ATOM     27  C   UNL     1      44.425   3.058  10.256  0.00  0.00    +0.000 A 
ATOM     28  N   UNL     1      44.680   4.156  10.989  0.00  0.00    +0.000 NA
ENDBRANCH  21  23
ENDBRANCH   1  17
TORSDOF 4
ENDMDL
MODEL 4
REMARK VINA RESULT:    -6.801      2.957      7.597
REMARK INTER + INTRA:          -9.124
REMARK INTER:                  -9.158
REMARK INTRA:                   0.033
REMARK UNBOUND:                -0.733
REMARK  Name = 
REMARK  4 active torsions:
REMARK  status: ('A' for Active; 'I' for Inactive)
REMARK    1  A    between atoms: C_2  and  C_4
REMARK    2  A    between atoms: N_8  and  C_9
REMARK    3  A    between atoms: C_9  and  C_10
REMARK    4  A    between atoms: C_14  and  C_15
REMARK                            x       y       z     vdW  Elec       q    Type
REMARK                         _______ _______ _______ _____ _____    ______ ____
ROOT
ATOM      1  C   UNL     1      48.315   7.785  12.682  0.00  0.00    +0.000 C 
ATOM      2  C   UNL     1      49.506   7.260  11.890  0.00  0.00    +0.000 C 
ATOM      3  C   UNL     1      49.167   8.711  11.837  0.00  0.00    +0.000 C 
ENDROOT
BRANCH   1   8
ATOM      4  C   UNL     1      47.964   4.310  16.547  0.00  0.00    +0.000 A 
ATOM      5  C   UNL     1      47.141   4.448  15.432  0.00  0.00    +0.000 A 
ATOM      6  C   UNL     1      47.320   5.542  14.582  0.00  0.00    +0.000 A 
ATOM      7  C   UNL     1      48.303   6.483  14.867  0.00  0.00    +0.000 A 
ATOM      8  N   UNL     1      48.456   7.673  14.147  0.00  0.00    +0.000 N 
ATOM      9  N   UNL     1      49.111   6.354  15.942  0.00  0.00    +0.000 NA
ATOM     10  C   UNL     1      48.928   5.282  16.755  0.00  0.00    +0.000 A 
ATOM     11  H   UNL     1      49.291   8.109  14.536  0.00  0.00    +0.000 HD
BRANCH   4  13
ATOM     12  N   UNL     1      48.881   2.943  18.338  0.00  0.00    +0.000 N 
ATOM     13  C   UNL     1      47.813   3.218  17.531  0.00  0.00    +0.000 C 
ATOM     14  O   UNL     1      46.766   2.596  17.639  0.00  0.00    +0.000 OA
ATOM     15  H   UNL     1      48.742   2.237  19.052  0.00  0.00    +0.000 HD
ATOM     16  H   UNL     1      49.667   3.568  18.441  0.00  0.00    +0.000 HD
ENDBRANCH   4  13
ENDBRANCH   1   8
BRANCH   1  17
ATOM     17  C   UNL     1      46.908   7.452  12.199  0.00  0.00    +0.000 A 
ATOM     18  C   UNL     1      45.838   8.349  12.347  0.00  0.00    +0.000 A 
ATOM     19  C   UNL     1      44.591   8.088  11.782  0.00  0.00    +0.000 A 
ATOM     20  C   UNL     1      44.394   6.926  11.033  0.00  0.00    +0.000 A 
ATOM     21  C   UNL     1      45.424   5.987  10.859  0.00  0.00    +0.000 A 
ATOM     22  C   UNL     1      46.659   6.266  11.481  0.00  0.00    +0.000 A 
BRANCH  21  23
ATOM     23  C   UNL     1      45.250   4.788  10.015  0.00  0.00    +0.000 A 
ATOM     24  N   UNL     1      44.687   3.699  10.574  0.00  0.00    +0.000 NA
ATOM     25  C   UNL     1      44.460   2.653   9.756  0.00  0.00    +0.000 A 
ATOM     26  C   UNL     1      44.778   2.648   8.420  0.00  0.00    +0.000 A 
ATOM     27  C   UNL     1      45.362   3.798   7.948  0.00  0.00    +0.000 A 
ATOM     28  N   UNL     1      45.604   4.877   8.713  0.00  0.00    +0.000 NA
ENDBRANCH  21  23
ENDBRANCH   1  17
TORSDOF 4
ENDMDL
MODEL 5
REMARK VINA RESULT:    -6.775      3.546      7.250
REMARK INTER + INTRA:          -9.092
REMARK INTER:                  -8.207
REMARK INTRA:                  -0.886
REMARK UNBOUND:                -0.733
REMARK  Name = 
REMARK  4 active torsions:
REMARK  status: ('A' for Active; 'I' for Inactive)
REMARK    1  A    between atoms: C_2  and  C_4
REMARK    2  A    between atoms: N_8  and  C_9
REMARK    3  A    between atoms: C_9  and  C_10
REMARK    4  A    between atoms: C_14  and  C_15
REMARK                            x       y       z     vdW  Elec       q    Type
REMARK                         _______ _______ _______ _____ _____    ______ ____
ROOT
ATOM      1  C   UNL     1      46.149   5.298  13.338  0.00  0.00    +0.000 C 
ATOM      2  C   UNL     1      46.192   4.405  14.572  0.00  0.00    +0.000 C 
ATOM      3  C   UNL     1      47.345   4.412  13.627  0.00  0.00    +0.000 C 
ENDROOT
BRANCH   1   8
ATOM      4  C   UNL     1      48.137   9.813  11.666  0.00  0.00    +0.000 A 
ATOM      5  C   UNL     1      48.773   8.579  11.780  0.00  0.00    +0.000 A 
ATOM      6  C   UNL     1      48.099   7.518  12.391  0.00  0.00    +0.000 A 
ATOM      7  C   UNL     1      46.815   7.711  12.887  0.00  0.00    +0.000 A 
ATOM      8  N   UNL     1      46.128   6.744  13.630  0.00  0.00    +0.000 N 
ATOM      9  N   UNL     1      46.189   8.902  12.775  0.00  0.00    +0.000 NA
ATOM     10  C   UNL     1      46.854   9.922  12.174  0.00  0.00    +0.000 A 
ATOM     11  H   UNL     1      45.203   7.142  13.784  0.00  0.00    +0.000 HD
BRANCH   4  13
ATOM     12  N   UNL     1      49.884  11.505  11.736  0.00  0.00    +0.000 N 
ATOM     13  C   UNL     1      48.790  11.006  11.087  0.00  0.00    +0.000 C 
ATOM     14  O   UNL     1      48.385  11.516  10.052  0.00  0.00    +0.000 OA
ATOM     15  H   UNL     1      50.360  12.282  11.293  0.00  0.00    +0.000 HD
ATOM     16  H   UNL     1      50.381  10.991  12.449  0.00  0.00    +0.000 HD
ENDBRANCH   4  13
ENDBRANCH   1   8
BRANCH   1  17
ATOM     17  C   UNL     1      45.224   4.916  12.188  0.00  0.00    +0.000 A 
ATOM     18  C   UNL     1      43.893   5.357  12.126  0.00  0.00    +0.000 A 
ATOM     19  C   UNL     1      43.101   5.112  11.005  0.00  0.00    +0.000 A 
ATOM     20  C   UNL     1      43.636   4.435   9.908  0.00  0.00    +0.000 A 
ATOM     21  C   UNL     1      44.958   3.960   9.917  0.00  0.00    +0.000 A 
ATOM     22  C   UNL     1      45.714   4.191  11.085  0.00  0.00    +0.000 A 
BRANCH  21  23
ATOM     23  C   UNL     1      45.557   3.303   8.738  0.00  0.00    +0.000 A 
ATOM     24  N   UNL     1      45.892   4.076   7.687  0.00  0.00    +0.000 NA
ATOM     25  C   UNL     1      46.517   3.461   6.664  0.00  0.00    +0.000 A 
ATOM     26  C   UNL     1      46.809   2.120   6.645  0.00  0.00    +0.000 A 
ATOM     27  C   UNL     1      46.413   1.414   7.755  0.00  0.00    +0.000 A 
ATOM     28  N   UNL     1      45.795   1.974   8.810  0.00  0.00    +0.000 NA
ENDBRANCH  21  23
ENDBRANCH   1  17
TORSDOF 4
ENDMDL
MODEL 6
REMARK VINA RESULT:    -6.767      2.907      4.640
REMARK INTER + INTRA:          -9.083
REMARK INTER:                  -8.670
REMARK INTRA:                  -0.413
REMARK UNBOUND:                -0.733
REMARK  Name = 
REMARK  4 active torsions:
REMARK  status: ('A' for Active; 'I' for Inactive)
REMARK    1  A    between atoms: C_2  and  C_4
REMARK    2  A    between atoms: N_8  and  C_9
REMARK    3  A    between atoms: C_9  and  C_10
REMARK    4  A    between atoms: C_14  and  C_15
REMARK                            x       y       z     vdW  Elec       q    Type
REMARK                         _______ _______ _______ _____ _____    ______ ____
ROOT
ATOM      1  C   UNL     1      47.321   8.379  13.191  0.00  0.00    +0.000 C 
ATOM      2  C   UNL     1      47.490   9.735  12.518  0.00  0.00    +0.000 C 
ATOM      3  C   UNL     1      48.166   8.538  11.943  0.00  0.00    +0.000 C 
ENDROOT
BRANCH   1   8
ATOM      4  C   UNL     1      44.567   4.255  11.595  0.00  0.00    +0.000 A 
ATOM      5  C   UNL     1      45.611   4.904  10.938  0.00  0.00    +0.000 A 
ATOM      6  C   UNL     1      46.124   6.087  11.475  0.00  0.00    +0.000 A 
ATOM      7  C   UNL     1      45.580   6.607  12.644  0.00  0.00    +0.000 A 
ATOM      8  N   UNL     1      45.943   7.852  13.169  0.00  0.00    +0.000 N 
ATOM      9  N   UNL     1      44.573   5.981  13.291  0.00  0.00    +0.000 NA
ATOM     10  C   UNL     1      44.089   4.829  12.760  0.00  0.00    +0.000 A 
ATOM     11  H   UNL     1      45.440   7.920  14.053  0.00  0.00    +0.000 HD
BRANCH   4  13
ATOM     12  N   UNL     1      44.469   2.456   9.960  0.00  0.00    +0.000 N 
ATOM     13  C   UNL     1      43.924   3.030  11.074  0.00  0.00    +0.000 C 
ATOM     14  O   UNL     1      42.955   2.532  11.630  0.00  0.00    +0.000 OA
ATOM     15  H   UNL     1      44.059   1.582   9.653  0.00  0.00    +0.000 HD
ATOM     16  H   UNL     1      45.385   2.696   9.611  0.00  0.00    +0.000 HD
ENDBRANCH   4  13
ENDBRANCH   1   8
BRANCH   1  17
ATOM     17  C   UNL     1      48.028   8.125  14.518  0.00  0.00    +0.000 A 
ATOM     18  C   UNL     1      48.267   9.153  15.442  0.00  0.00    +0.000 A 
ATOM     19  C   UNL     1      48.792   8.884  16.705  0.00  0.00    +0.000 A 
ATOM     20  C   UNL     1      49.070   7.567  17.078  0.00  0.00    +0.000 A 
ATOM     21  C   UNL     1      48.862   6.498  16.191  0.00  0.00    +0.000 A 
ATOM     22  C   UNL     1      48.369   6.815  14.908  0.00  0.00    +0.000 A 
BRANCH  21  23
ATOM     23  C   UNL     1      49.088   5.096  16.596  0.00  0.00    +0.000 A 
ATOM     24  N   UNL     1      48.104   4.206  16.362  0.00  0.00    +0.000 NA
ATOM     25  C   UNL     1      48.374   2.920  16.660  0.00  0.00    +0.000 A 
ATOM     26  C   UNL     1      49.569   2.495  17.185  0.00  0.00    +0.000 A 
ATOM     27  C   UNL     1      50.503   3.479  17.401  0.00  0.00    +0.000 A 
ATOM     28  N   UNL     1      50.294   4.776  17.115  0.00  0.00    +0.000 NA
ENDBRANCH  21  23
ENDBRANCH   1  17
TORSDOF 4
ENDMDL
