MODEL 1
REMARK VINA RESULT:    -9.298      0.000      0.000
REMARK INTER + INTRA:         -13.706
REMARK INTER:                 -12.560
REMARK INTRA:                  -1.146
REMARK UNBOUND:                -1.146
REMARK  Name = 
REMARK  6 active torsions:
REMARK  status: ('A' for Active; 'I' for Inactive)
REMARK    1  A    between atoms: C_2  and  C_4
REMARK    2  A    between atoms: C_7  and  N_8
REMARK    3  A    between atoms: N_8  and  C_9
REMARK    4  A    between atoms: C_9  and  C_10
REMARK    5  A    between atoms: C_10  and  C_13
REMARK    6  A    between atoms: C_17  and  C_18
REMARK                            x       y       z     vdW  Elec       q    Type
REMARK                         _______ _______ _______ _____ _____    ______ ____
ROOT
ATOM      1  C   UNL     1      43.573   5.558  12.171  0.00  0.00    +0.000 C 
ATOM      2  F   UNL     1      43.022   6.596  11.474  0.00  0.00    +0.000 F 
ATOM      3  F   UNL     1      42.858   5.483  13.334  0.00  0.00    +0.000 F 
ENDROOT
BRANCH   1   4
ATOM      4  C   UNL     1      45.055   5.766  12.415  0.00  0.00    +0.000 A 
ATOM      5  C   UNL     1      45.831   6.515  11.522  0.00  0.00    +0.000 A 
ATOM      6  C   UNL     1      47.177   6.745  11.788  0.00  0.00    +0.000 A 
ATOM      7  C   UNL     1      47.751   6.254  12.962  0.00  0.00    +0.000 A 
ATOM      8  C   UNL     1      46.997   5.532  13.905  0.00  0.00    +0.000 A 
ATOM      9  C   UNL     1      45.652   5.270  13.589  0.00  0.00    +0.000 A 
BRANCH   8  10
ATOM     10  C   UNL     1      47.574   5.142  15.209  0.00  0.00    +0.000 A 
ATOM     11  C   UNL     1      48.595   5.872  15.832  0.00  0.00    +0.000 A 
ATOM     12  C   UNL     1      49.128   5.410  17.029  0.00  0.00    +0.000 A 
ATOM     13  N   UNL     1      48.720   4.290  17.651  0.00  0.00    +0.000 NA
ATOM     14  C   UNL     1      47.735   3.598  17.047  0.00  0.00    +0.000 A 
ATOM     15  F   UNL     1      47.311   2.471  17.638  0.00  0.00    +0.000 F 
ATOM     16  C   UNL     1      47.148   3.973  15.853  0.00  0.00    +0.000 A 
ENDBRANCH   8  10
ENDBRANCH   1   4
BRANCH   1  17
ATOM     17  C   UNL     1      43.351   4.242  11.381  0.00  0.00    +0.000 C 
BRANCH  17  18
ATOM     18  N   UNL     1      43.476   4.400   9.920  0.00  0.00    +0.000 N 
ATOM     19  H   UNL     1      42.591   4.405   9.414  0.00  0.00    +0.000 HD
BRANCH  18  23
ATOM     20  C   UNL     1      46.489   2.480   7.680  0.00  0.00    +0.000 A 
ATOM     21  C   UNL     1      46.345   3.865   7.596  0.00  0.00    +0.000 A 
ATOM     22  C   UNL     1      45.367   4.514   8.354  0.00  0.00    +0.000 A 
ATOM     23  C   UNL     1      44.530   3.809   9.228  0.00  0.00    +0.000 A 
ATOM     24  C   UNL     1      44.678   2.416   9.287  0.00  0.00    +0.000 A 
ATOM     25  C   UNL     1      45.642   1.751   8.519  0.00  0.00    +0.000 A 
BRANCH  20  27
ATOM     26  N   UNL     1      48.569   2.475   6.420  0.00  0.00    +0.000 N 
ATOM     27  C   UNL     1      47.490   1.758   6.849  0.00  0.00    +0.000 C 
ATOM     28  O   UNL     1      47.370   0.568   6.589  0.00  0.00    +0.000 OA
ATOM     29  H   UNL     1      49.286   1.955   5.931  0.00  0.00    +0.000 HD
ATOM     30  H   UNL     1      48.822   3.366   6.818  0.00  0.00    +0.000 HD
ENDBRANCH  20  27
ENDBRANCH  18  23
ENDBRANCH  17  18
ENDBRANCH   1  17
TORSDOF 6
ENDMDL
MODEL 2
REMARK VINA RESULT:    -9.191      2.578      3.904
REMARK INTER + INTRA:         -13.561
REMARK INTER:                 -12.401
REMARK INTRA:                  -1.160
REMARK UNBOUND:                -1.146
REMARK  Name = 
REMARK  6 active torsions:
REMARK  status: ('A' for Active; 'I' for Inactive)
REMARK    1  A    between atoms: C_2  and  C_4
REMARK    2  A    between atoms: C_7  and  N_8
REMARK    3  A    between atoms: N_8  and  C_9
REMARK    4  A    between atoms: C_9  and  C_10
REMARK    5  A    between atoms: C_10  and  C_13
REMARK    6  A    between atoms: C_17  and  C_18
REMARK                            x       y       z     vdW  Elec       q    Type
REMARK                         _______ _______ _______ _____ _____    ______ ____
ROOT
ATOM      1  C   UNL     1      43.335   5.234  12.451  0.00  0.00    +0.000 C 
ATOM      2  F   UNL     1      42.713   6.385  12.059  0.00  0.00    +0.000 F 
ATOM      3  F   UNL     1      42.608   4.774  13.515  0.00  0.00    +0.000 F 
ENDROOT
BRANCH   1   4
ATOM      4  C   UNL     1      44.790   5.471  12.804  0.00  0.00    +0.000 A 
ATOM      5  C   UNL     1      45.583   4.435  13.313  0.00  0.00    +0.000 A 
ATOM      6  C   UNL     1      46.932   4.652  13.579  0.00  0.00    +0.000 A 
ATOM      7  C   UNL     1      47.505   5.897  13.311  0.00  0.00    +0.000 A 
ATOM      8  C   UNL     1      46.753   6.952  12.762  0.00  0.00    +0.000 A 
ATOM      9  C   UNL     1      45.382   6.723  12.549  0.00  0.00    +0.000 A 
BRANCH   8  10
ATOM     10  C   UNL     1      47.398   8.216  12.347  0.00  0.00    +0.000 A 
ATOM     11  C   UNL     1      46.728   9.447  12.367  0.00  0.00    +0.000 A 
ATOM     12  C   UNL     1      47.381  10.583  11.905  0.00  0.00    +0.000 A 
ATOM     13  N   UNL     1      48.642  10.588  11.436  0.00  0.00    +0.000 NA
ATOM     14  C   UNL     1      49.277   9.401  11.427  0.00  0.00    +0.000 A 
ATOM     15  F   UNL     1      50.534   9.370  10.957  0.00  0.00    +0.000 F 
ATOM     16  C   UNL     1      48.710   8.217  11.858  0.00  0.00    +0.000 A 
ENDBRANCH   8  10
ENDBRANCH   1   4
BRANCH   1  17
ATOM     17  C   UNL     1      43.235   4.189  11.309  0.00  0.00    +0.000 C 
BRANCH  17  18
ATOM     18  N   UNL     1      43.747   4.676  10.015  0.00  0.00    +0.000 N 
ATOM     19  H   UNL     1      43.052   5.135   9.427  0.00  0.00    +0.000 HD
BRANCH  18  23
ATOM     20  C   UNL     1      46.458   2.368   7.756  0.00  0.00    +0.000 A 
ATOM     21  C   UNL     1      46.446   3.755   7.611  0.00  0.00    +0.000 A 
ATOM     22  C   UNL     1      45.569   4.531   8.373  0.00  0.00    +0.000 A 
ATOM     23  C   UNL     1      44.708   3.953   9.312  0.00  0.00    +0.000 A 
ATOM     24  C   UNL     1      44.722   2.556   9.435  0.00  0.00    +0.000 A 
ATOM     25  C   UNL     1      45.583   1.765   8.663  0.00  0.00    +0.000 A 
BRANCH  20  27
ATOM     26  N   UNL     1      48.481   2.095   6.434  0.00  0.00    +0.000 N 
ATOM     27  C   UNL     1      47.348   1.514   6.924  0.00  0.00    +0.000 C 
ATOM     28  O   UNL     1      47.094   0.334   6.716  0.00  0.00    +0.000 OA
ATOM     29  H   UNL     1      49.121   1.484   5.944  0.00  0.00    +0.000 HD
ATOM     30  H   UNL     1      48.841   2.968   6.788  0.00  0.00    +0.000 HD
ENDBRANCH  20  27
ENDBRANCH  18  23
ENDBRANCH  17  18
ENDBRANCH   1  17
TORSDOF 6
ENDMDL
MODEL 3
REMARK VINA RESULT:    -8.892      2.739      4.923
REMARK INTER + INTRA:         -13.157
REMARK INTER:                 -12.394
REMARK INTRA:                  -0.763
REMARK UNBOUND:                -1.146
REMARK  Name = 
REMARK  6 active torsions:
REMARK  status: ('A' for Active; 'I' for Inactive)
REMARK    1  A    between atoms: C_2  and  C_4
REMARK    2  A    between atoms: C_7  and  N_8
REMARK    3  A    between atoms: N_8  and  C_9
REMARK    4  A    between atoms: C_9  and  C_10
REMARK    5  A    between atoms: C_10  and  C_13
REMARK    6  A    between atoms: C_17  and  C_18
REMARK                            x       y       z     vdW  Elec       q    Type
REMARK                         _______ _______ _______ _____ _____    ______ ____
ROOT
ATOM      1  C   UNL     1      43.911   4.132  12.561  0.00  0.00    +0.000 C 
ATOM      2  F   UNL     1      43.052   4.139  13.622  0.00  0.00    +0.000 F 
ATOM      3  F   UNL     1      44.501   2.898  12.581  0.00  0.00    +0.000 F 
ENDROOT
BRANCH   1   4
ATOM      4  C   UNL     1      44.923   5.259  12.646  0.00  0.00    +0.000 A 
ATOM      5  C   UNL     1      46.255   5.002  12.991  0.00  0.00    +0.000 A 
ATOM      6  C   UNL     1      47.184   6.038  13.011  0.00  0.00    +0.000 A 
ATOM      7  C   UNL     1      46.796   7.332  12.657  0.00  0.00    +0.000 A 
ATOM      8  C   UNL     1      45.477   7.624  12.267  0.00  0.00    +0.000 A 
ATOM      9  C   UNL     1      44.545   6.571  12.303  0.00  0.00    +0.000 A 
BRANCH   8  10
ATOM     10  C   UNL     1      45.108   8.962  11.756  0.00  0.00    +0.000 A 
ATOM     11  C   UNL     1      45.861  10.111  12.036  0.00  0.00    +0.000 A 
ATOM     12  C   UNL     1      45.420  11.343  11.571  0.00  0.00    +0.000 A 
ATOM     13  N   UNL     1      44.299  11.516  10.848  0.00  0.00    +0.000 NA
ATOM     14  C   UNL     1      43.586  10.405  10.580  0.00  0.00    +0.000 A 
ATOM     15  F   UNL     1      42.458  10.545   9.867  0.00  0.00    +0.000 F 
ATOM     16  C   UNL     1      43.940   9.139  11.005  0.00  0.00    +0.000 A 
ENDBRANCH   8  10
ENDBRANCH   1   4
BRANCH   1  17
ATOM     17  C   UNL     1      43.096   4.257  11.247  0.00  0.00    +0.000 C 
BRANCH  17  18
ATOM     18  N   UNL     1      43.876   4.786  10.114  0.00  0.00    +0.000 N 
ATOM     19  H   UNL     1      43.439   5.564   9.620  0.00  0.00    +0.000 HD
BRANCH  18  23
ATOM     20  C   UNL     1      46.340   2.295   7.768  0.00  0.00    +0.000 A 
ATOM     21  C   UNL     1      45.439   1.724   8.666  0.00  0.00    +0.000 A 
ATOM     22  C   UNL     1      44.600   2.539   9.430  0.00  0.00    +0.000 A 
ATOM     23  C   UNL     1      44.618   3.933   9.300  0.00  0.00    +0.000 A 
ATOM     24  C   UNL     1      45.540   4.491   8.404  0.00  0.00    +0.000 A 
ATOM     25  C   UNL     1      46.400   3.685   7.646  0.00  0.00    +0.000 A 
BRANCH  20  27
ATOM     26  N   UNL     1      48.403   2.061   6.502  0.00  0.00    +0.000 N 
ATOM     27  C   UNL     1      47.278   1.453   6.977  0.00  0.00    +0.000 C 
ATOM     28  O   UNL     1      47.068   0.261   6.788  0.00  0.00    +0.000 OA
ATOM     29  H   UNL     1      49.076   1.462   6.042  0.00  0.00    +0.000 HD
ATOM     30  H   UNL     1      48.725   2.953   6.847  0.00  0.00    +0.000 HD
ENDBRANCH  20  27
ENDBRANCH  18  23
ENDBRANCH  17  18
ENDBRANCH   1  17
TORSDOF 6
ENDMDL
MODEL 4
REMARK VINA RESULT:    -8.885      1.214      1.573
REMARK INTER + INTRA:         -13.147
REMARK INTER:                 -11.933
REMARK INTRA:                  -1.214
REMARK UNBOUND:                -1.146
REMARK  Name = 
REMARK  6 active torsions:
REMARK  status: ('A' for Active; 'I' for Inactive)
REMARK    1  A    between atoms: C_2  and  C_4
REMARK    2  A    between atoms: C_7  and  N_8
REMARK    3  A    between atoms: N_8  and  C_9
REMARK    4  A    between atoms: C_9  and  C_10
REMARK    5  A    between atoms: C_10  and  C_13
REMARK    6  A    between atoms: C_17  and  C_18
REMARK                            x       y       z     vdW  Elec       q    Type
REMARK                         _______ _______ _______ _____ _____    ______ ____
ROOT
ATOM      1  C   UNL     1      43.951   4.626  12.409  0.00  0.00    +0.000 C 
ATOM      2  F   UNL     1      43.008   5.091  13.281  0.00  0.00    +0.000 F 
ATOM      3  F   UNL     1      43.876   3.263  12.488  0.00  0.00    +0.000 F 
ENDROOT
BRANCH   1   4
ATOM      4  C   UNL     1      45.335   5.149  12.744  0.00  0.00    +0.000 A 
ATOM      5  C   UNL     1      45.966   6.089  11.921  0.00  0.00    +0.000 A 
ATOM      6  C   UNL     1      47.211   6.602  12.270  0.00  0.00    +0.000 A 
ATOM      7  C   UNL     1      47.822   6.202  13.460  0.00  0.00    +0.000 A 
ATOM      8  C   UNL     1      47.205   5.290  14.335  0.00  0.00    +0.000 A 
ATOM      9  C   UNL     1      45.970   4.749  13.935  0.00  0.00    +0.000 A 
BRANCH   8  10
ATOM     10  C   UNL     1      47.789   4.984  15.658  0.00  0.00    +0.000 A 
ATOM     11  C   UNL     1      47.469   3.822  16.375  0.00  0.00    +0.000 A 
ATOM     12  C   UNL     1      48.013   3.632  17.639  0.00  0.00    +0.000 A 
ATOM     13  N   UNL     1      48.850   4.500  18.236  0.00  0.00    +0.000 NA
ATOM     14  C   UNL     1      49.155   5.609  17.537  0.00  0.00    +0.000 A 
ATOM     15  F   UNL     1      49.981   6.499  18.108  0.00  0.00    +0.000 F 
ATOM     16  C   UNL     1      48.659   5.890  16.278  0.00  0.00    +0.000 A 
ENDBRANCH   8  10
ENDBRANCH   1   4
BRANCH   1  17
ATOM     17  C   UNL     1      43.565   5.050  10.969  0.00  0.00    +0.000 C 
BRANCH  17  18
ATOM     18  N   UNL     1      43.474   3.923  10.023  0.00  0.00    +0.000 N 
ATOM     19  H   UNL     1      42.895   3.145  10.340  0.00  0.00    +0.000 HD
BRANCH  18  23
ATOM     20  C   UNL     1      46.640   2.638   7.553  0.00  0.00    +0.000 A 
ATOM     21  C   UNL     1      46.307   3.991   7.597  0.00  0.00    +0.000 A 
ATOM     22  C   UNL     1      45.276   4.431   8.431  0.00  0.00    +0.000 A 
ATOM     23  C   UNL     1      44.574   3.545   9.257  0.00  0.00    +0.000 A 
ATOM     24  C   UNL     1      44.913   2.186   9.190  0.00  0.00    +0.000 A 
ATOM     25  C   UNL     1      45.931   1.729   8.343  0.00  0.00    +0.000 A 
BRANCH  20  27
ATOM     26  N   UNL     1      48.030   2.928   5.579  0.00  0.00    +0.000 N 
ATOM     27  C   UNL     1      47.701   2.135   6.639  0.00  0.00    +0.000 C 
ATOM     28  O   UNL     1      48.277   1.074   6.846  0.00  0.00    +0.000 OA
ATOM     29  H   UNL     1      48.811   2.620   5.014  0.00  0.00    +0.000 HD
ATOM     30  H   UNL     1      47.764   3.899   5.524  0.00  0.00    +0.000 HD
ENDBRANCH  20  27
ENDBRANCH  18  23
ENDBRANCH  17  18
ENDBRANCH   1  17
TORSDOF 6
ENDMDL
MODEL 5
REMARK VINA RESULT:    -8.440      1.149      1.288
REMARK INTER + INTRA:         -12.546
REMARK INTER:                 -11.402
REMARK INTRA:                  -1.143
REMARK UNBOUND:                -1.146
REMARK  Name = 
REMARK  6 active torsions:
REMARK  status: ('A' for Active; 'I' for Inactive)
REMARK    1  A    between atoms: C_2  and  C_4
REMARK    2  A    between atoms: C_7  and  N_8
REMARK    3  A    between atoms: N_8  and  C_9
REMARK    4  A    between atoms: C_9  and  C_10
REMARK    5  A    between atoms: C_10  and  C_13
REMARK    6  A    between atoms: C_17  and  C_18
REMARK                            x       y       z     vdW  Elec       q    Type
REMARK                         _______ _______ _______ _____ _____    ______ ____
ROOT
ATOM      1  C   UNL     1      44.121   4.657  12.622  0.00  0.00    +0.000 C 
ATOM      2  F   UNL     1      43.213   5.261  13.445  0.00  0.00    +0.000 F 
ATOM      3  F   UNL     1      44.184   3.357  13.044  0.00  0.00    +0.000 F 
ENDROOT
BRANCH   1   4
ATOM      4  C   UNL     1      45.471   5.346  12.669  0.00  0.00    +0.000 A 
ATOM      5  C   UNL     1      45.889   6.178  11.624  0.00  0.00    +0.000 A 
ATOM      6  C   UNL     1      47.105   6.849  11.707  0.00  0.00    +0.000 A 
ATOM      7  C   UNL     1      47.900   6.716  12.848  0.00  0.00    +0.000 A 
ATOM      8  C   UNL     1      47.498   5.922  13.937  0.00  0.00    +0.000 A 
ATOM      9  C   UNL     1      46.289   5.215  13.808  0.00  0.00    +0.000 A 
BRANCH   8  10
ATOM     10  C   UNL     1      48.273   5.901  15.196  0.00  0.00    +0.000 A 
ATOM     11  C   UNL     1      49.367   6.748  15.423  0.00  0.00    +0.000 A 
ATOM     12  C   UNL     1      50.083   6.629  16.608  0.00  0.00    +0.000 A 
ATOM     13  N   UNL     1      49.790   5.745  17.578  0.00  0.00    +0.000 NA
ATOM     14  C   UNL     1      48.734   4.941  17.352  0.00  0.00    +0.000 A 
ATOM     15  F   UNL     1      48.421   4.042  18.298  0.00  0.00    +0.000 F 
ATOM     16  C   UNL     1      47.966   4.978  16.204  0.00  0.00    +0.000 A 
ENDBRANCH   8  10
ENDBRANCH   1   4
BRANCH   1  17
ATOM     17  C   UNL     1      43.576   4.669  11.170  0.00  0.00    +0.000 C 
BRANCH  17  18
ATOM     18  N   UNL     1      43.763   3.392  10.457  0.00  0.00    +0.000 N 
ATOM     19  H   UNL     1      43.628   2.559  11.030  0.00  0.00    +0.000 HD
BRANCH  18  23
ATOM     20  C   UNL     1      46.547   2.870   7.333  0.00  0.00    +0.000 A 
ATOM     21  C   UNL     1      46.136   4.156   7.681  0.00  0.00    +0.000 A 
ATOM     22  C   UNL     1      45.233   4.342   8.732  0.00  0.00    +0.000 A 
ATOM     23  C   UNL     1      44.741   3.262   9.474  0.00  0.00    +0.000 A 
ATOM     24  C   UNL     1      45.153   1.975   9.101  0.00  0.00    +0.000 A 
ATOM     25  C   UNL     1      46.043   1.773   8.037  0.00  0.00    +0.000 A 
BRANCH  20  27
ATOM     26  N   UNL     1      48.715   2.164   6.486  0.00  0.00    +0.000 N 
ATOM     27  C   UNL     1      47.470   2.639   6.189  0.00  0.00    +0.000 C 
ATOM     28  O   UNL     1      47.120   2.832   5.032  0.00  0.00    +0.000 OA
ATOM     29  H   UNL     1      49.303   1.928   5.698  0.00  0.00    +0.000 HD
ATOM     30  H   UNL     1      48.943   1.762   7.383  0.00  0.00    +0.000 HD
ENDBRANCH  20  27
ENDBRANCH  18  23
ENDBRANCH  17  18
ENDBRANCH   1  17
TORSDOF 6
ENDMDL
MODEL 6
REMARK VINA RESULT:    -8.422      2.697      3.720
REMARK INTER + INTRA:         -12.522
REMARK INTER:                 -11.530
REMARK INTRA:                  -0.992
REMARK UNBOUND:                -1.146
REMARK  Name = 
REMARK  6 active torsions:
REMARK  status: ('A' for Active; 'I' for Inactive)
REMARK    1  A    between atoms: C_2  and  C_4
REMARK    2  A    between atoms: C_7  and  N_8
REMARK    3  A    between atoms: N_8  and  C_9
REMARK    4  A    between atoms: C_9  and  C_10
REMARK    5  A    between atoms: C_10  and  C_13
REMARK    6  A    between atoms: C_17  and  C_18
REMARK                            x       y       z     vdW  Elec       q    Type
REMARK                         _______ _______ _______ _____ _____    ______ ____
ROOT
ATOM      1  C   UNL     1      44.668   4.543  12.308  0.00  0.00    +0.000 C 
ATOM      2  F   UNL     1      44.231   4.360  13.588  0.00  0.00    +0.000 F 
ATOM      3  F   UNL     1      45.600   3.565  12.099  0.00  0.00    +0.000 F 
ENDROOT
BRANCH   1   4
ATOM      4  C   UNL     1      45.233   5.935  12.099  0.00  0.00    +0.000 A 
ATOM      5  C   UNL     1      44.387   7.030  11.888  0.00  0.00    +0.000 A 
ATOM      6  C   UNL     1      44.916   8.309  11.754  0.00  0.00    +0.000 A 
ATOM      7  C   UNL     1      46.295   8.509  11.860  0.00  0.00    +0.000 A 
ATOM      8  C   UNL     1      47.177   7.442  12.111  0.00  0.00    +0.000 A 
ATOM      9  C   UNL     1      46.621   6.153  12.193  0.00  0.00    +0.000 A 
BRANCH   8  10
ATOM     10  C   UNL     1      48.613   7.681  12.366  0.00  0.00    +0.000 A 
ATOM     11  C   UNL     1      49.140   7.810  13.658  0.00  0.00    +0.000 A 
ATOM     12  C   UNL     1      50.491   8.094  13.816  0.00  0.00    +0.000 A 
ATOM     13  N   UNL     1      51.351   8.249  12.794  0.00  0.00    +0.000 NA
ATOM     14  C   UNL     1      50.836   8.117  11.557  0.00  0.00    +0.000 A 
ATOM     15  F   UNL     1      51.667   8.275  10.515  0.00  0.00    +0.000 F 
ATOM     16  C   UNL     1      49.506   7.844  11.299  0.00  0.00    +0.000 A 
ENDBRANCH   8  10
ENDBRANCH   1   4
BRANCH   1  17
ATOM     17  C   UNL     1      43.488   4.305  11.330  0.00  0.00    +0.000 C 
BRANCH  17  18
ATOM     18  N   UNL     1      43.781   4.700   9.940  0.00  0.00    +0.000 N 
ATOM     19  H   UNL     1      42.992   5.102   9.435  0.00  0.00    +0.000 HD
BRANCH  18  23
ATOM     20  C   UNL     1      46.592   2.506   7.690  0.00  0.00    +0.000 A 
ATOM     21  C   UNL     1      45.666   1.829   8.482  0.00  0.00    +0.000 A 
ATOM     22  C   UNL     1      44.713   2.545   9.212  0.00  0.00    +0.000 A 
ATOM     23  C   UNL     1      44.643   3.942   9.151  0.00  0.00    +0.000 A 
ATOM     24  C   UNL     1      45.592   4.607   8.361  0.00  0.00    +0.000 A 
ATOM     25  C   UNL     1      46.564   3.902   7.639  0.00  0.00    +0.000 A 
BRANCH  20  27
ATOM     26  N   UNL     1      48.541   2.524   6.235  0.00  0.00    +0.000 N 
ATOM     27  C   UNL     1      47.647   1.771   6.940  0.00  0.00    +0.000 C 
ATOM     28  O   UNL     1      47.731   0.551   6.979  0.00  0.00    +0.000 OA
ATOM     29  H   UNL     1      49.304   2.022   5.800  0.00  0.00    +0.000 HD
ATOM     30  H   UNL     1      48.653   3.515   6.383  0.00  0.00    +0.000 HD
ENDBRANCH  20  27
ENDBRANCH  18  23
ENDBRANCH  17  18
ENDBRANCH   1  17
TORSDOF 6
ENDMDL
MODEL 7
REMARK VINA RESULT:    -8.109      2.509      3.223
REMARK INTER + INTRA:         -12.099
REMARK INTER:                 -11.235
REMARK INTRA:                  -0.864
REMARK UNBOUND:                -1.146
REMARK  Name = 
REMARK  6 active torsions:
REMARK  status: ('A' for Active; 'I' for Inactive)
REMARK    1  A    between atoms: C_2  and  C_4
REMARK    2  A    between atoms: C_7  and  N_8
REMARK    3  A    between atoms: N_8  and  C_9
REMARK    4  A    between atoms: C_9  and  C_10
REMARK    5  A    between atoms: C_10  and  C_13
REMARK    6  A    between atoms: C_17  and  C_18
REMARK                            x       y       z     vdW  Elec       q    Type
REMARK                         _______ _______ _______ _____ _____    ______ ____
ROOT
ATOM      1  C   UNL     1      44.850   6.328  11.515  0.00  0.00    +0.000 C 
ATOM      2  F   UNL     1      45.536   6.635  10.375  0.00  0.00    +0.000 F 
ATOM      3  F   UNL     1      44.116   7.444  11.809  0.00  0.00    +0.000 F 
ENDROOT
BRANCH   1   4
ATOM      4  C   UNL     1      45.782   5.935  12.645  0.00  0.00    +0.000 A 
ATOM      5  C   UNL     1      45.560   4.767  13.385  0.00  0.00    +0.000 A 
ATOM      6  C   UNL     1      46.454   4.390  14.382  0.00  0.00    +0.000 A 
ATOM      7  C   UNL     1      47.593   5.160  14.627  0.00  0.00    +0.000 A 
ATOM      8  C   UNL     1      47.874   6.318  13.879  0.00  0.00    +0.000 A 
ATOM      9  C   UNL     1      46.930   6.705  12.912  0.00  0.00    +0.000 A 
BRANCH   8  10
ATOM     10  C   UNL     1      49.151   7.045  14.045  0.00  0.00    +0.000 A 
ATOM     11  C   UNL     1      49.851   7.075  15.259  0.00  0.00    +0.000 A 
ATOM     12  C   UNL     1      51.013   7.829  15.355  0.00  0.00    +0.000 A 
ATOM     13  N   UNL     1      51.532   8.543  14.340  0.00  0.00    +0.000 NA
ATOM     14  C   UNL     1      50.855   8.502  13.177  0.00  0.00    +0.000 A 
ATOM     15  F   UNL     1      51.343   9.211  12.147  0.00  0.00    +0.000 F 
ATOM     16  C   UNL     1      49.688   7.788  12.987  0.00  0.00    +0.000 A 
ENDBRANCH   8  10
ENDBRANCH   1   4
BRANCH   1  17
ATOM     17  C   UNL     1      43.866   5.166  11.218  0.00  0.00    +0.000 C 
BRANCH  17  18
ATOM     18  N   UNL     1      43.761   4.831   9.786  0.00  0.00    +0.000 N 
ATOM     19  H   UNL     1      42.808   4.697   9.449  0.00  0.00    +0.000 HD
BRANCH  18  23
ATOM     20  C   UNL     1      46.431   2.237   7.806  0.00  0.00    +0.000 A 
ATOM     21  C   UNL     1      46.491   3.607   7.557  0.00  0.00    +0.000 A 
ATOM     22  C   UNL     1      45.628   4.479   8.227  0.00  0.00    +0.000 A 
ATOM     23  C   UNL     1      44.708   4.013   9.175  0.00  0.00    +0.000 A 
ATOM     24  C   UNL     1      44.651   2.631   9.401  0.00  0.00    +0.000 A 
ATOM     25  C   UNL     1      45.497   1.745   8.722  0.00  0.00    +0.000 A 
BRANCH  20  27
ATOM     26  N   UNL     1      48.377   1.807   6.413  0.00  0.00    +0.000 N 
ATOM     27  C   UNL     1      47.304   1.282   7.073  0.00  0.00    +0.000 C 
ATOM     28  O   UNL     1      47.092   0.076   7.087  0.00  0.00    +0.000 OA
ATOM     29  H   UNL     1      49.013   1.143   5.991  0.00  0.00    +0.000 HD
ATOM     30  H   UNL     1      48.718   2.740   6.587  0.00  0.00    +0.000 HD
ENDBRANCH  20  27
ENDBRANCH  18  23
ENDBRANCH  17  18
ENDBRANCH   1  17
TORSDOF 6
ENDMDL
MODEL 8
REMARK VINA RESULT:    -8.058      3.136      7.438
REMARK INTER + INTRA:         -12.031
REMARK INTER:                 -11.036
REMARK INTRA:                  -0.995
REMARK UNBOUND:                -1.146
REMARK  Name = 
REMARK  6 active torsions:
REMARK  status: ('A' for Active; 'I' for Inactive)
REMARK    1  A    between atoms: C_2  and  C_4
REMARK    2  A    between atoms: C_7  and  N_8
REMARK    3  A    between atoms: N_8  and  C_9
REMARK    4  A    between atoms: C_9  and  C_10
REMARK    5  A    between atoms: C_10  and  C_13
REMARK    6  A    between atoms: C_17  and  C_18
REMARK                            x       y       z     vdW  Elec       q    Type
REMARK                         _______ _______ _______ _____ _____    ______ ____
ROOT
ATOM      1  C   UNL     1      45.357   7.302  11.811  0.00  0.00    +0.000 C 
ATOM      2  F   UNL     1      44.941   7.618  13.073  0.00  0.00    +0.000 F 
ATOM      3  F   UNL     1      44.940   8.338  11.021  0.00  0.00    +0.000 F 
ENDROOT
BRANCH   1   4
ATOM      4  C   UNL     1      44.804   5.966  11.353  0.00  0.00    +0.000 A 
ATOM      5  C   UNL     1      43.556   5.516  11.798  0.00  0.00    +0.000 A 
ATOM      6  C   UNL     1      43.036   4.314  11.326  0.00  0.00    +0.000 A 
ATOM      7  C   UNL     1      43.746   3.569  10.382  0.00  0.00    +0.000 A 
ATOM      8  C   UNL     1      44.985   4.006   9.879  0.00  0.00    +0.000 A 
ATOM      9  C   UNL     1      45.511   5.198  10.409  0.00  0.00    +0.000 A 
BRANCH   8  10
ATOM     10  C   UNL     1      45.659   3.288   8.776  0.00  0.00    +0.000 A 
ATOM     11  C   UNL     1      46.146   3.941   7.635  0.00  0.00    +0.000 A 
ATOM     12  C   UNL     1      46.714   3.191   6.614  0.00  0.00    +0.000 A 
ATOM     13  N   UNL     1      46.842   1.852   6.645  0.00  0.00    +0.000 NA
ATOM     14  C   UNL     1      46.376   1.236   7.748  0.00  0.00    +0.000 A 
ATOM     15  F   UNL     1      46.481  -0.101   7.807  0.00  0.00    +0.000 F 
ATOM     16  C   UNL     1      45.789   1.894   8.812  0.00  0.00    +0.000 A 
ENDBRANCH   8  10
ENDBRANCH   1   4
BRANCH   1  17
ATOM     17  C   UNL     1      46.907   7.266  11.783  0.00  0.00    +0.000 C 
BRANCH  17  18
ATOM     18  N   UNL     1      47.528   7.408  13.112  0.00  0.00    +0.000 N 
ATOM     19  H   UNL     1      48.326   8.042  13.145  0.00  0.00    +0.000 HD
BRANCH  18  23
ATOM     20  C   UNL     1      47.667   4.244  15.895  0.00  0.00    +0.000 A 
ATOM     21  C   UNL     1      47.035   4.053  14.667  0.00  0.00    +0.000 A 
ATOM     22  C   UNL     1      47.005   5.087  13.727  0.00  0.00    +0.000 A 
ATOM     23  C   UNL     1      47.623   6.319  13.974  0.00  0.00    +0.000 A 
ATOM     24  C   UNL     1      48.240   6.498  15.220  0.00  0.00    +0.000 A 
ATOM     25  C   UNL     1      48.261   5.477  16.179  0.00  0.00    +0.000 A 
BRANCH  20  27
ATOM     26  N   UNL     1      48.877   2.602  17.220  0.00  0.00    +0.000 N 
ATOM     27  C   UNL     1      47.673   3.177  16.933  0.00  0.00    +0.000 C 
ATOM     28  O   UNL     1      46.652   2.852  17.526  0.00  0.00    +0.000 OA
ATOM     29  H   UNL     1      48.886   1.941  17.986  0.00  0.00    +0.000 HD
ATOM     30  H   UNL     1      49.755   3.012  16.941  0.00  0.00    +0.000 HD
ENDBRANCH  20  27
ENDBRANCH  18  23
ENDBRANCH  17  18
ENDBRANCH   1  17
TORSDOF 6
ENDMDL
MODEL 9
REMARK VINA RESULT:    -7.697      3.733      7.407
REMARK INTER + INTRA:         -11.542
REMARK INTER:                 -10.610
REMARK INTRA:                  -0.932
REMARK UNBOUND:                -1.146
REMARK  Name = 
REMARK  6 active torsions:
REMARK  status: ('A' for Active; 'I' for Inactive)
REMARK    1  A    between atoms: C_2  and  C_4
REMARK    2  A    between atoms: C_7  and  N_8
REMARK    3  A    between atoms: N_8  and  C_9
REMARK    4  A    between atoms: C_9  and  C_10
REMARK    5  A    between atoms: C_10  and  C_13
REMARK    6  A    between atoms: C_17  and  C_18
REMARK                            x       y       z     vdW  Elec       q    Type
REMARK                         _______ _______ _______ _____ _____    ______ ____
ROOT
ATOM      1  C   UNL     1      44.563   6.446  11.415  0.00  0.00    +0.000 C 
ATOM      2  F   UNL     1      43.385   7.124  11.286  0.00  0.00    +0.000 F 
ATOM      3  F   UNL     1      45.450   7.103  10.607  0.00  0.00    +0.000 F 
ENDROOT
BRANCH   1   4
ATOM      4  C   UNL     1      44.415   4.983  11.041  0.00  0.00    +0.000 A 
ATOM      5  C   UNL     1      43.450   4.179  11.659  0.00  0.00    +0.000 A 
ATOM      6  C   UNL     1      43.288   2.854  11.267  0.00  0.00    +0.000 A 
ATOM      7  C   UNL     1      44.068   2.331  10.233  0.00  0.00    +0.000 A 
ATOM      8  C   UNL     1      45.020   3.117   9.559  0.00  0.00    +0.000 A 
ATOM      9  C   UNL     1      45.200   4.437  10.008  0.00  0.00    +0.000 A 
BRANCH   8  10
ATOM     10  C   UNL     1      45.737   2.600   8.373  0.00  0.00    +0.000 A 
ATOM     11  C   UNL     1      46.267   1.304   8.316  0.00  0.00    +0.000 A 
ATOM     12  C   UNL     1      46.980   0.910   7.191  0.00  0.00    +0.000 A 
ATOM     13  N   UNL     1      47.197   1.700   6.124  0.00  0.00    +0.000 NA
ATOM     14  C   UNL     1      46.680   2.941   6.187  0.00  0.00    +0.000 A 
ATOM     15  F   UNL     1      46.886   3.757   5.141  0.00  0.00    +0.000 F 
ATOM     16  C   UNL     1      45.963   3.426   7.265  0.00  0.00    +0.000 A 
ENDBRANCH   8  10
ENDBRANCH   1   4
BRANCH   1  17
ATOM     17  C   UNL     1      45.061   6.565  12.879  0.00  0.00    +0.000 C 
BRANCH  17  18
ATOM     18  N   UNL     1      45.757   7.833  13.166  0.00  0.00    +0.000 N 
ATOM     19  H   UNL     1      45.190   8.670  13.035  0.00  0.00    +0.000 HD
BRANCH  18  23
ATOM     20  C   UNL     1      49.807   8.120  12.031  0.00  0.00    +0.000 A 
ATOM     21  C   UNL     1      48.940   9.178  11.761  0.00  0.00    +0.000 A 
ATOM     22  C   UNL     1      47.601   9.104  12.155  0.00  0.00    +0.000 A 
ATOM     23  C   UNL     1      47.103   7.994  12.848  0.00  0.00    +0.000 A 
ATOM     24  C   UNL     1      47.985   6.933  13.097  0.00  0.00    +0.000 A 
ATOM     25  C   UNL     1      49.325   6.987  12.690  0.00  0.00    +0.000 A 
BRANCH  20  27
ATOM     26  N   UNL     1      51.586   7.260  10.612  0.00  0.00    +0.000 N 
ATOM     27  C   UNL     1      51.225   8.152  11.580  0.00  0.00    +0.000 C 
ATOM     28  O   UNL     1      52.024   8.963  12.031  0.00  0.00    +0.000 OA
ATOM     29  H   UNL     1      52.527   7.348  10.251  0.00  0.00    +0.000 HD
ATOM     30  H   UNL     1      50.910   6.765  10.051  0.00  0.00    +0.000 HD
ENDBRANCH  20  27
ENDBRANCH  18  23
ENDBRANCH  17  18
ENDBRANCH   1  17
TORSDOF 6
ENDMDL
