MODEL 1
REMARK VINA RESULT:    -9.267      0.000      0.000
REMARK INTER + INTRA:         -13.642
REMARK INTER:                 -12.518
REMARK INTRA:                  -1.124
REMARK UNBOUND:                -1.124
REMARK  Name = 
REMARK  6 active torsions:
REMARK  status: ('A' for Active; 'I' for Inactive)
REMARK    1  A    between atoms: C_2  and  C_3
REMARK    2  A    between atoms: N_7  and  C_8
REMARK    3  A    between atoms: C_8  and  C_9
REMARK    4  A    between atoms: C_9  and  C_12
REMARK    5  A    between atoms: C_16  and  O_17
REMARK    6  A    between atoms: O_17  and  C_18
REMARK                            x       y       z     vdW  Elec       q    Type
REMARK                         _______ _______ _______ _____ _____    ______ ____
ROOT
ATOM      1  C   UNL     1      43.699   4.662  12.407  0.00  0.00    +0.000 C 
ATOM      2  F   UNL     1      42.753   5.506  12.917  0.00  0.00    +0.000 F 
ATOM      3  F   UNL     1      43.545   3.491  13.095  0.00  0.00    +0.000 F 
ENDROOT
BRANCH   1   4
ATOM      4  C   UNL     1      45.102   5.224  12.541  0.00  0.00    +0.000 A 
ATOM      5  C   UNL     1      45.584   6.173  11.628  0.00  0.00    +0.000 A 
ATOM      6  C   UNL     1      46.848   6.739  11.798  0.00  0.00    +0.000 A 
ATOM      7  C   UNL     1      47.652   6.364  12.878  0.00  0.00    +0.000 A 
ATOM      8  C   UNL     1      47.191   5.414  13.786  0.00  0.00    +0.000 A 
ATOM      9  C   UNL     1      45.922   4.852  13.619  0.00  0.00    +0.000 A 
BRANCH   8  10
ATOM     10  O   UNL     1      47.865   4.993  14.904  0.00  0.00    +0.000 OA
BRANCH  10  11
ATOM     11  C   UNL     1      47.249   4.041  15.795  0.00  0.00    +0.000 C 
ATOM     12  C   UNL     1      47.165   4.425  17.289  0.00  0.00    +0.000 C 
ATOM     13  C   UNL     1      47.615   2.995  17.637  0.00  0.00    +0.000 C 
ATOM     14  F   UNL     1      48.513   2.890  18.641  0.00  0.00    +0.000 F 
ATOM     15  F   UNL     1      46.615   2.127  17.915  0.00  0.00    +0.000 F 
ATOM     16  C   UNL     1      48.191   2.890  16.215  0.00  0.00    +0.000 C 
ENDBRANCH  10  11
ENDBRANCH   8  10
ENDBRANCH   1   4
BRANCH   1  17
ATOM     17  C   UNL     1      43.386   4.406  10.913  0.00  0.00    +0.000 C 
BRANCH  17  22
ATOM     18  C   UNL     1      46.606   2.434   7.423  0.00  0.00    +0.000 A 
ATOM     19  C   UNL     1      46.245   3.746   7.701  0.00  0.00    +0.000 A 
ATOM     20  C   UNL     1      45.318   3.998   8.713  0.00  0.00    +0.000 A 
ATOM     21  C   UNL     1      44.763   2.939   9.427  0.00  0.00    +0.000 A 
ATOM     22  N   UNL     1      43.831   3.107  10.415  0.00  0.00    +0.000 N 
ATOM     23  N   UNL     1      45.112   1.666   9.167  0.00  0.00    +0.000 NA
ATOM     24  C   UNL     1      46.018   1.436   8.180  0.00  0.00    +0.000 A 
ATOM     25  H   UNL     1      43.528   2.254  10.873  0.00  0.00    +0.000 HD
BRANCH  18  27
ATOM     26  N   UNL     1      48.314   1.874   5.563  0.00  0.00    +0.000 NA
ATOM     27  C   UNL     1      47.542   2.123   6.393  0.00  0.00    +0.000 C 
ENDBRANCH  18  27
ENDBRANCH  17  22
ENDBRANCH   1  17
TORSDOF 6
ENDMDL
MODEL 2
REMARK VINA RESULT:    -7.954      2.700      5.144
REMARK INTER + INTRA:         -11.868
REMARK INTER:                 -11.386
REMARK INTRA:                  -0.482
REMARK UNBOUND:                -1.124
REMARK  Name = 
REMARK  6 active torsions:
REMARK  status: ('A' for Active; 'I' for Inactive)
REMARK    1  A    between atoms: C_2  and  C_3
REMARK    2  A    between atoms: N_7  and  C_8
REMARK    3  A    between atoms: C_8  and  C_9
REMARK    4  A    between atoms: C_9  and  C_12
REMARK    5  A    between atoms: C_16  and  O_17
REMARK    6  A    between atoms: O_17  and  C_18
REMARK                            x       y       z     vdW  Elec       q    Type
REMARK                         _______ _______ _______ _____ _____    ______ ____
ROOT
ATOM      1  C   UNL     1      43.314   4.670  12.631  0.00  0.00    +0.000 C 
ATOM      2  F   UNL     1      42.344   5.631  12.644  0.00  0.00    +0.000 F 
ATOM      3  F   UNL     1      42.968   3.793  13.621  0.00  0.00    +0.000 F 
ENDROOT
BRANCH   1   4
ATOM      4  C   UNL     1      44.701   5.250  12.840  0.00  0.00    +0.000 A 
ATOM      5  C   UNL     1      45.767   4.431  13.235  0.00  0.00    +0.000 A 
ATOM      6  C   UNL     1      47.055   4.956  13.355  0.00  0.00    +0.000 A 
ATOM      7  C   UNL     1      47.296   6.307  13.087  0.00  0.00    +0.000 A 
ATOM      8  C   UNL     1      46.243   7.134  12.706  0.00  0.00    +0.000 A 
ATOM      9  C   UNL     1      44.956   6.606  12.579  0.00  0.00    +0.000 A 
BRANCH   8  10
ATOM     10  O   UNL     1      46.358   8.461  12.378  0.00  0.00    +0.000 OA
BRANCH  10  11
ATOM     11  C   UNL     1      45.176   9.286  12.313  0.00  0.00    +0.000 C 
ATOM     12  C   UNL     1      44.309   9.176  11.040  0.00  0.00    +0.000 C 
ATOM     13  C   UNL     1      44.201  10.712  11.034  0.00  0.00    +0.000 C 
ATOM     14  F   UNL     1      44.306  11.303   9.823  0.00  0.00    +0.000 F 
ATOM     15  F   UNL     1      43.088  11.214  11.618  0.00  0.00    +0.000 F 
ATOM     16  C   UNL     1      45.467  10.749  11.905  0.00  0.00    +0.000 C 
ENDBRANCH  10  11
ENDBRANCH   8  10
ENDBRANCH   1   4
BRANCH   1  17
ATOM     17  C   UNL     1      43.265   3.929  11.272  0.00  0.00    +0.000 C 
BRANCH  17  22
ATOM     18  C   UNL     1      46.562   2.624   7.550  0.00  0.00    +0.000 A 
ATOM     19  C   UNL     1      45.957   1.868   8.545  0.00  0.00    +0.000 A 
ATOM     20  C   UNL     1      45.100   2.496   9.450  0.00  0.00    +0.000 A 
ATOM     21  C   UNL     1      44.863   3.865   9.350  0.00  0.00    +0.000 A 
ATOM     22  N   UNL     1      44.055   4.552  10.214  0.00  0.00    +0.000 N 
ATOM     23  N   UNL     1      45.442   4.601   8.384  0.00  0.00    +0.000 NA
ATOM     24  C   UNL     1      46.273   3.976   7.508  0.00  0.00    +0.000 A 
ATOM     25  H   UNL     1      43.949   5.541  10.013  0.00  0.00    +0.000 HD
BRANCH  18  27
ATOM     26  N   UNL     1      48.175   1.537   5.844  0.00  0.00    +0.000 NA
ATOM     27  C   UNL     1      47.453   2.031   6.607  0.00  0.00    +0.000 C 
ENDBRANCH  18  27
ENDBRANCH  17  22
ENDBRANCH   1  17
TORSDOF 6
ENDMDL
MODEL 3
REMARK VINA RESULT:    -7.915      1.803      2.126
REMARK INTER + INTRA:         -11.815
REMARK INTER:                 -10.797
REMARK INTRA:                  -1.017
REMARK UNBOUND:                -1.124
REMARK  Name = 
REMARK  6 active torsions:
REMARK  status: ('A' for Active; 'I' for Inactive)
REMARK    1  A    between atoms: C_2  and  C_3
REMARK    2  A    between atoms: N_7  and  C_8
REMARK    3  A    between atoms: C_8  and  C_9
REMARK    4  A    between atoms: C_9  and  C_12
REMARK    5  A    between atoms: C_16  and  O_17
REMARK    6  A    between atoms: O_17  and  C_18
REMARK                            x       y       z     vdW  Elec       q    Type
REMARK                         _______ _______ _______ _____ _____    ______ ____
ROOT
ATOM      1  C   UNL     1      43.792   4.896  12.452  0.00  0.00    +0.000 C 
ATOM      2  F   UNL     1      42.744   5.492  13.093  0.00  0.00    +0.000 F 
ATOM      3  F   UNL     1      43.984   3.709  13.101  0.00  0.00    +0.000 F 
ENDROOT
BRANCH   1   4
ATOM      4  C   UNL     1      45.039   5.761  12.463  0.00  0.00    +0.000 A 
ATOM      5  C   UNL     1      45.085   6.960  11.737  0.00  0.00    +0.000 A 
ATOM      6  C   UNL     1      46.209   7.787  11.809  0.00  0.00    +0.000 A 
ATOM      7  C   UNL     1      47.302   7.427  12.602  0.00  0.00    +0.000 A 
ATOM      8  C   UNL     1      47.274   6.233  13.318  0.00  0.00    +0.000 A 
ATOM      9  C   UNL     1      46.146   5.409  13.251  0.00  0.00    +0.000 A 
BRANCH   8  10
ATOM     10  O   UNL     1      48.263   5.790  14.158  0.00  0.00    +0.000 OA
BRANCH  10  11
ATOM     11  C   UNL     1      48.589   6.548  15.342  0.00  0.00    +0.000 C 
ATOM     12  C   UNL     1      50.053   7.015  15.500  0.00  0.00    +0.000 C 
ATOM     13  C   UNL     1      49.986   6.580  16.975  0.00  0.00    +0.000 C 
ATOM     14  F   UNL     1      51.081   5.949  17.451  0.00  0.00    +0.000 F 
ATOM     15  F   UNL     1      49.690   7.566  17.854  0.00  0.00    +0.000 F 
ATOM     16  C   UNL     1      48.805   5.671  16.596  0.00  0.00    +0.000 C 
ENDBRANCH  10  11
ENDBRANCH   8  10
ENDBRANCH   1   4
BRANCH   1  17
ATOM     17  C   UNL     1      43.380   4.603  10.988  0.00  0.00    +0.000 C 
BRANCH  17  22
ATOM     18  C   UNL     1      46.569   2.504   7.545  0.00  0.00    +0.000 A 
ATOM     19  C   UNL     1      46.256   3.830   7.816  0.00  0.00    +0.000 A 
ATOM     20  C   UNL     1      45.325   4.118   8.815  0.00  0.00    +0.000 A 
ATOM     21  C   UNL     1      44.720   3.082   9.523  0.00  0.00    +0.000 A 
ATOM     22  N   UNL     1      43.783   3.288  10.499  0.00  0.00    +0.000 N 
ATOM     23  N   UNL     1      45.024   1.797   9.269  0.00  0.00    +0.000 NA
ATOM     24  C   UNL     1      45.935   1.531   8.295  0.00  0.00    +0.000 A 
ATOM     25  H   UNL     1      43.441   2.447  10.953  0.00  0.00    +0.000 HD
BRANCH  18  27
ATOM     26  N   UNL     1      48.263   1.863   5.698  0.00  0.00    +0.000 NA
ATOM     27  C   UNL     1      47.507   2.157   6.528  0.00  0.00    +0.000 C 
ENDBRANCH  18  27
ENDBRANCH  17  22
ENDBRANCH   1  17
TORSDOF 6
ENDMDL
MODEL 4
REMARK VINA RESULT:    -7.828      2.888      4.016
REMARK INTER + INTRA:         -11.698
REMARK INTER:                 -10.710
REMARK INTRA:                  -0.987
REMARK UNBOUND:                -1.124
REMARK  Name = 
REMARK  6 active torsions:
REMARK  status: ('A' for Active; 'I' for Inactive)
REMARK    1  A    between atoms: C_2  and  C_3
REMARK    2  A    between atoms: N_7  and  C_8
REMARK    3  A    between atoms: C_8  and  C_9
REMARK    4  A    between atoms: C_9  and  C_12
REMARK    5  A    between atoms: C_16  and  O_17
REMARK    6  A    between atoms: O_17  and  C_18
REMARK                            x       y       z     vdW  Elec       q    Type
REMARK                         _______ _______ _______ _____ _____    ______ ____
ROOT
ATOM      1  C   UNL     1      44.416   3.739  12.275  0.00  0.00    +0.000 C 
ATOM      2  F   UNL     1      43.560   3.544  13.321  0.00  0.00    +0.000 F 
ATOM      3  F   UNL     1      45.448   2.868  12.485  0.00  0.00    +0.000 F 
ENDROOT
BRANCH   1   4
ATOM      4  C   UNL     1      44.892   5.178  12.183  0.00  0.00    +0.000 A 
ATOM      5  C   UNL     1      44.108   6.152  11.549  0.00  0.00    +0.000 A 
ATOM      6  C   UNL     1      44.518   7.487  11.531  0.00  0.00    +0.000 A 
ATOM      7  C   UNL     1      45.717   7.867  12.141  0.00  0.00    +0.000 A 
ATOM      8  C   UNL     1      46.511   6.907  12.763  0.00  0.00    +0.000 A 
ATOM      9  C   UNL     1      46.096   5.572  12.787  0.00  0.00    +0.000 A 
BRANCH   8  10
ATOM     10  O   UNL     1      47.684   7.160  13.428  0.00  0.00    +0.000 OA
BRANCH  10  11
ATOM     11  C   UNL     1      48.942   7.016  12.738  0.00  0.00    +0.000 C 
ATOM     12  C   UNL     1      50.062   8.017  13.099  0.00  0.00    +0.000 C 
ATOM     13  C   UNL     1      50.361   8.157  11.595  0.00  0.00    +0.000 C 
ATOM     14  F   UNL     1      50.617   9.411  11.162  0.00  0.00    +0.000 F 
ATOM     15  F   UNL     1      51.360   7.371  11.130  0.00  0.00    +0.000 F 
ATOM     16  C   UNL     1      48.941   7.634  11.320  0.00  0.00    +0.000 C 
ENDBRANCH  10  11
ENDBRANCH   8  10
ENDBRANCH   1   4
BRANCH   1  17
ATOM     17  C   UNL     1      43.696   3.349  10.961  0.00  0.00    +0.000 C 
BRANCH  17  22
ATOM     18  C   UNL     1      46.852   2.255   7.053  0.00  0.00    +0.000 A 
ATOM     19  C   UNL     1      46.347   3.464   7.513  0.00  0.00    +0.000 A 
ATOM     20  C   UNL     1      45.480   3.467   8.607  0.00  0.00    +0.000 A 
ATOM     21  C   UNL     1      45.128   2.267   9.219  0.00  0.00    +0.000 A 
ATOM     22  N   UNL     1      44.266   2.191  10.279  0.00  0.00    +0.000 N 
ATOM     23  N   UNL     1      45.618   1.094   8.782  0.00  0.00    +0.000 NA
ATOM     24  C   UNL     1      46.464   1.106   7.717  0.00  0.00    +0.000 A 
ATOM     25  H   UNL     1      44.114   1.257  10.647  0.00  0.00    +0.000 HD
BRANCH  18  27
ATOM     26  N   UNL     1      48.450   2.137   5.022  0.00  0.00    +0.000 NA
ATOM     27  C   UNL     1      47.734   2.197   5.934  0.00  0.00    +0.000 C 
ENDBRANCH  18  27
ENDBRANCH  17  22
ENDBRANCH   1  17
TORSDOF 6
ENDMDL
MODEL 5
REMARK VINA RESULT:    -7.724      3.053      4.704
REMARK INTER + INTRA:         -11.557
REMARK INTER:                 -10.704
REMARK INTRA:                  -0.853
REMARK UNBOUND:                -1.124
REMARK  Name = 
REMARK  6 active torsions:
REMARK  status: ('A' for Active; 'I' for Inactive)
REMARK    1  A    between atoms: C_2  and  C_3
REMARK    2  A    between atoms: N_7  and  C_8
REMARK    3  A    between atoms: C_8  and  C_9
REMARK    4  A    between atoms: C_9  and  C_12
REMARK    5  A    between atoms: C_16  and  O_17
REMARK    6  A    between atoms: O_17  and  C_18
REMARK                            x       y       z     vdW  Elec       q    Type
REMARK                         _______ _______ _______ _____ _____    ______ ____
ROOT
ATOM      1  C   UNL     1      43.335   5.103  12.301  0.00  0.00    +0.000 C 
ATOM      2  F   UNL     1      42.585   6.215  12.046  0.00  0.00    +0.000 F 
ATOM      3  F   UNL     1      42.646   4.415  13.260  0.00  0.00    +0.000 F 
ENDROOT
BRANCH   1   4
ATOM      4  C   UNL     1      44.744   5.450  12.748  0.00  0.00    +0.000 A 
ATOM      5  C   UNL     1      45.694   4.442  12.965  0.00  0.00    +0.000 A 
ATOM      6  C   UNL     1      47.008   4.772  13.305  0.00  0.00    +0.000 A 
ATOM      7  C   UNL     1      47.391   6.109  13.438  0.00  0.00    +0.000 A 
ATOM      8  C   UNL     1      46.453   7.120  13.237  0.00  0.00    +0.000 A 
ATOM      9  C   UNL     1      45.140   6.789  12.889  0.00  0.00    +0.000 A 
BRANCH   8  10
ATOM     10  O   UNL     1      46.713   8.465  13.298  0.00  0.00    +0.000 OA
BRANCH  10  11
ATOM     11  C   UNL     1      47.250   9.143  12.143  0.00  0.00    +0.000 C 
ATOM     12  C   UNL     1      48.718   8.844  11.769  0.00  0.00    +0.000 C 
ATOM     13  C   UNL     1      48.921  10.353  11.541  0.00  0.00    +0.000 C 
ATOM     14  F   UNL     1      50.085  10.864  11.999  0.00  0.00    +0.000 F 
ATOM     15  F   UNL     1      48.791  10.766  10.259  0.00  0.00    +0.000 F 
ATOM     16  C   UNL     1      47.691  10.596  12.431  0.00  0.00    +0.000 C 
ENDBRANCH  10  11
ENDBRANCH   8  10
ENDBRANCH   1   4
BRANCH   1  17
ATOM     17  C   UNL     1      43.400   4.239  11.018  0.00  0.00    +0.000 C 
BRANCH  17  22
ATOM     18  C   UNL     1      46.686   2.642   7.401  0.00  0.00    +0.000 A 
ATOM     19  C   UNL     1      46.017   1.950   8.402  0.00  0.00    +0.000 A 
ATOM     20  C   UNL     1      45.181   2.652   9.273  0.00  0.00    +0.000 A 
ATOM     21  C   UNL     1      45.030   4.029   9.133  0.00  0.00    +0.000 A 
ATOM     22  N   UNL     1      44.247   4.786   9.962  0.00  0.00    +0.000 N 
ATOM     23  N   UNL     1      45.671   4.704   8.162  0.00  0.00    +0.000 NA
ATOM     24  C   UNL     1      46.480   4.007   7.320  0.00  0.00    +0.000 A 
ATOM     25  H   UNL     1      44.205   5.774   9.734  0.00  0.00    +0.000 HD
BRANCH  18  27
ATOM     26  N   UNL     1      48.275   1.423   5.764  0.00  0.00    +0.000 NA
ATOM     27  C   UNL     1      47.558   1.972   6.493  0.00  0.00    +0.000 C 
ENDBRANCH  18  27
ENDBRANCH  17  22
ENDBRANCH   1  17
TORSDOF 6
ENDMDL
MODEL 6
REMARK VINA RESULT:    -7.709      3.945      7.795
REMARK INTER + INTRA:         -11.537
REMARK INTER:                 -10.555
REMARK INTRA:                  -0.982
REMARK UNBOUND:                -1.124
REMARK  Name = 
REMARK  6 active torsions:
REMARK  status: ('A' for Active; 'I' for Inactive)
REMARK    1  A    between atoms: C_2  and  C_3
REMARK    2  A    between atoms: N_7  and  C_8
REMARK    3  A    between atoms: C_8  and  C_9
REMARK    4  A    between atoms: C_9  and  C_12
REMARK    5  A    between atoms: C_16  and  O_17
REMARK    6  A    between atoms: O_17  and  C_18
REMARK                            x       y       z     vdW  Elec       q    Type
REMARK                         _______ _______ _______ _____ _____    ______ ____
ROOT
ATOM      1  C   UNL     1      45.382   6.752  11.936  0.00  0.00    +0.000 C 
ATOM      2  F   UNL     1      45.041   7.341  13.119  0.00  0.00    +0.000 F 
ATOM      3  F   UNL     1      44.965   7.621  10.966  0.00  0.00    +0.000 F 
ENDROOT
BRANCH   1   4
ATOM      4  C   UNL     1      44.758   5.377  11.778  0.00  0.00    +0.000 A 
ATOM      5  C   UNL     1      43.930   4.847  12.777  0.00  0.00    +0.000 A 
ATOM      6  C   UNL     1      43.301   3.614  12.594  0.00  0.00    +0.000 A 
ATOM      7  C   UNL     1      43.493   2.890  11.414  0.00  0.00    +0.000 A 
ATOM      8  C   UNL     1      44.322   3.400  10.417  0.00  0.00    +0.000 A 
ATOM      9  C   UNL     1      44.945   4.638  10.599  0.00  0.00    +0.000 A 
BRANCH   8  10
ATOM     10  O   UNL     1      44.557   2.807   9.203  0.00  0.00    +0.000 OA
BRANCH  10  11
ATOM     11  C   UNL     1      45.882   2.845   8.634  0.00  0.00    +0.000 C 
ATOM     12  C   UNL     1      46.027   3.459   7.225  0.00  0.00    +0.000 C 
ATOM     13  C   UNL     1      46.955   2.286   6.857  0.00  0.00    +0.000 C 
ATOM     14  F   UNL     1      46.774   1.759   5.626  0.00  0.00    +0.000 F 
ATOM     15  F   UNL     1      48.278   2.536   6.984  0.00  0.00    +0.000 F 
ATOM     16  C   UNL     1      46.326   1.498   8.018  0.00  0.00    +0.000 C 
ENDBRANCH  10  11
ENDBRANCH   8  10
ENDBRANCH   1   4
BRANCH   1  17
ATOM     17  C   UNL     1      46.924   6.629  11.864  0.00  0.00    +0.000 C 
BRANCH  17  22
ATOM     18  C   UNL     1      48.078   4.671  16.476  0.00  0.00    +0.000 A 
ATOM     19  C   UNL     1      47.309   4.171  15.434  0.00  0.00    +0.000 A 
ATOM     20  C   UNL     1      47.147   4.938  14.278  0.00  0.00    +0.000 A 
ATOM     21  C   UNL     1      47.751   6.189  14.183  0.00  0.00    +0.000 A 
ATOM     22  N   UNL     1      47.618   7.005  13.092  0.00  0.00    +0.000 N 
ATOM     23  N   UNL     1      48.502   6.676  15.186  0.00  0.00    +0.000 NA
ATOM     24  C   UNL     1      48.653   5.918  16.305  0.00  0.00    +0.000 A 
ATOM     25  H   UNL     1      48.131   7.879  13.142  0.00  0.00    +0.000 HD
BRANCH  18  27
ATOM     26  N   UNL     1      48.409   3.322  18.657  0.00  0.00    +0.000 NA
ATOM     27  C   UNL     1      48.266   3.932  17.681  0.00  0.00    +0.000 C 
ENDBRANCH  18  27
ENDBRANCH  17  22
ENDBRANCH   1  17
TORSDOF 6
ENDMDL
MODEL 7
REMARK VINA RESULT:    -7.549      4.021      8.145
REMARK INTER + INTRA:         -11.321
REMARK INTER:                 -10.452
REMARK INTRA:                  -0.869
REMARK UNBOUND:                -1.124
REMARK  Name = 
REMARK  6 active torsions:
REMARK  status: ('A' for Active; 'I' for Inactive)
REMARK    1  A    between atoms: C_2  and  C_3
REMARK    2  A    between atoms: N_7  and  C_8
REMARK    3  A    between atoms: C_8  and  C_9
REMARK    4  A    between atoms: C_9  and  C_12
REMARK    5  A    between atoms: C_16  and  O_17
REMARK    6  A    between atoms: O_17  and  C_18
REMARK                            x       y       z     vdW  Elec       q    Type
REMARK                         _______ _______ _______ _____ _____    ______ ____
ROOT
ATOM      1  C   UNL     1      46.298   6.552  12.456  0.00  0.00    +0.000 C 
ATOM      2  F   UNL     1      45.915   7.502  13.359  0.00  0.00    +0.000 F 
ATOM      3  F   UNL     1      46.741   7.248  11.366  0.00  0.00    +0.000 F 
ENDROOT
BRANCH   1   4
ATOM      4  C   UNL     1      45.167   5.602  12.105  0.00  0.00    +0.000 A 
ATOM      5  C   UNL     1      44.000   5.562  12.881  0.00  0.00    +0.000 A 
ATOM      6  C   UNL     1      42.934   4.738  12.512  0.00  0.00    +0.000 A 
ATOM      7  C   UNL     1      43.019   3.942  11.367  0.00  0.00    +0.000 A 
ATOM      8  C   UNL     1      44.177   3.964  10.594  0.00  0.00    +0.000 A 
ATOM      9  C   UNL     1      45.241   4.794  10.960  0.00  0.00    +0.000 A 
BRANCH   8  10
ATOM     10  O   UNL     1      44.367   3.262   9.431  0.00  0.00    +0.000 OA
BRANCH  10  11
ATOM     11  C   UNL     1      45.694   3.133   8.881  0.00  0.00    +0.000 C 
ATOM     12  C   UNL     1      45.915   3.649   7.443  0.00  0.00    +0.000 C 
ATOM     13  C   UNL     1      46.723   2.370   7.155  0.00  0.00    +0.000 C 
ATOM     14  F   UNL     1      46.502   1.796   5.952  0.00  0.00    +0.000 F 
ATOM     15  F   UNL     1      48.063   2.492   7.289  0.00  0.00    +0.000 F 
ATOM     16  C   UNL     1      46.006   1.716   8.347  0.00  0.00    +0.000 C 
ENDBRANCH  10  11
ENDBRANCH   8  10
ENDBRANCH   1   4
BRANCH   1  17
ATOM     17  C   UNL     1      47.481   5.748  13.047  0.00  0.00    +0.000 C 
BRANCH  17  22
ATOM     18  C   UNL     1      48.121   4.644  18.028  0.00  0.00    +0.000 A 
ATOM     19  C   UNL     1      48.656   5.651  17.235  0.00  0.00    +0.000 A 
ATOM     20  C   UNL     1      48.317   5.706  15.883  0.00  0.00    +0.000 A 
ATOM     21  C   UNL     1      47.454   4.755  15.343  0.00  0.00    +0.000 A 
ATOM     22  N   UNL     1      47.096   4.732  14.022  0.00  0.00    +0.000 N 
ATOM     23  N   UNL     1      46.928   3.781  16.106  0.00  0.00    +0.000 NA
ATOM     24  C   UNL     1      47.265   3.741  17.423  0.00  0.00    +0.000 A 
ATOM     25  H   UNL     1      46.440   4.001  13.765  0.00  0.00    +0.000 HD
BRANCH  18  27
ATOM     26  N   UNL     1      48.693   4.458  20.543  0.00  0.00    +0.000 NA
ATOM     27  C   UNL     1      48.443   4.540  19.413  0.00  0.00    +0.000 C 
ENDBRANCH  18  27
ENDBRANCH  17  22
ENDBRANCH   1  17
TORSDOF 6
ENDMDL
MODEL 8
REMARK VINA RESULT:    -7.248      4.331      8.104
REMARK INTER + INTRA:         -10.914
REMARK INTER:                  -9.938
REMARK INTRA:                  -0.976
REMARK UNBOUND:                -1.124
REMARK  Name = 
REMARK  6 active torsions:
REMARK  status: ('A' for Active; 'I' for Inactive)
REMARK    1  A    between atoms: C_2  and  C_3
REMARK    2  A    between atoms: N_7  and  C_8
REMARK    3  A    between atoms: C_8  and  C_9
REMARK    4  A    between atoms: C_9  and  C_12
REMARK    5  A    between atoms: C_16  and  O_17
REMARK    6  A    between atoms: O_17  and  C_18
REMARK                            x       y       z     vdW  Elec       q    Type
REMARK                         _______ _______ _______ _____ _____    ______ ____
ROOT
ATOM      1  C   UNL     1      45.296   6.844  11.888  0.00  0.00    +0.000 C 
ATOM      2  F   UNL     1      44.956   7.458  13.059  0.00  0.00    +0.000 F 
ATOM      3  F   UNL     1      44.832   7.668  10.901  0.00  0.00    +0.000 F 
ENDROOT
BRANCH   1   4
ATOM      4  C   UNL     1      44.719   5.444  11.783  0.00  0.00    +0.000 A 
ATOM      5  C   UNL     1      43.932   4.916  12.815  0.00  0.00    +0.000 A 
ATOM      6  C   UNL     1      43.343   3.656  12.681  0.00  0.00    +0.000 A 
ATOM      7  C   UNL     1      43.536   2.906  11.518  0.00  0.00    +0.000 A 
ATOM      8  C   UNL     1      44.325   3.415  10.489  0.00  0.00    +0.000 A 
ATOM      9  C   UNL     1      44.907   4.678  10.622  0.00  0.00    +0.000 A 
BRANCH   8  10
ATOM     10  O   UNL     1      44.556   2.795   9.288  0.00  0.00    +0.000 OA
BRANCH  10  11
ATOM     11  C   UNL     1      45.874   2.836   8.704  0.00  0.00    +0.000 C 
ATOM     12  C   UNL     1      46.012   3.506   7.319  0.00  0.00    +0.000 C 
ATOM     13  C   UNL     1      46.917   2.335   6.892  0.00  0.00    +0.000 C 
ATOM     14  F   UNL     1      46.713   1.862   5.643  0.00  0.00    +0.000 F 
ATOM     15  F   UNL     1      48.245   2.560   7.013  0.00  0.00    +0.000 F 
ATOM     16  C   UNL     1      46.290   1.509   8.028  0.00  0.00    +0.000 C 
ENDBRANCH  10  11
ENDBRANCH   8  10
ENDBRANCH   1   4
BRANCH   1  17
ATOM     17  C   UNL     1      46.840   6.773  11.792  0.00  0.00    +0.000 C 
BRANCH  17  22
ATOM     18  C   UNL     1      49.095   7.784  16.300  0.00  0.00    +0.000 A 
ATOM     19  C   UNL     1      48.599   8.626  15.314  0.00  0.00    +0.000 A 
ATOM     20  C   UNL     1      48.042   8.070  14.161  0.00  0.00    +0.000 A 
ATOM     21  C   UNL     1      47.993   6.686  14.009  0.00  0.00    +0.000 A 
ATOM     22  N   UNL     1      47.484   6.071  12.898  0.00  0.00    +0.000 N 
ATOM     23  N   UNL     1      48.466   5.865  14.964  0.00  0.00    +0.000 NA
ATOM     24  C   UNL     1      49.004   6.421  16.083  0.00  0.00    +0.000 A 
ATOM     25  H   UNL     1      47.485   5.056  12.927  0.00  0.00    +0.000 HD
BRANCH  18  27
ATOM     26  N   UNL     1      50.170   8.727  18.455  0.00  0.00    +0.000 NA
ATOM     27  C   UNL     1      49.682   8.302  17.492  0.00  0.00    +0.000 C 
ENDBRANCH  18  27
ENDBRANCH  17  22
ENDBRANCH   1  17
TORSDOF 6
ENDMDL
