MODEL 1
REMARK VINA RESULT:    -9.196      0.000      0.000
REMARK INTER + INTRA:         -12.190
REMARK INTER:                 -11.347
REMARK INTRA:                  -0.843
REMARK UNBOUND:                -0.843
REMARK  Name = 
REMARK  4 active torsions:
REMARK  status: ('A' for Active; 'I' for Inactive)
REMARK    1  A    between atoms: C_2  and  C_4
REMARK    2  A    between atoms: N_8  and  C_9
REMARK    3  A    between atoms: C_9  and  C_10
REMARK    4  A    between atoms: C_14  and  C_15
REMARK                            x       y       z     vdW  Elec       q    Type
REMARK                         _______ _______ _______ _____ _____    ______ ____
ROOT
ATOM      1  C   UNL     1      44.078   4.770  11.498  0.00  0.00    +0.000 C 
ATOM      2  C   UNL     1      42.746   4.836  12.223  0.00  0.00    +0.000 C 
ATOM      3  C   UNL     1      43.046   5.820  11.139  0.00  0.00    +0.000 C 
ENDROOT
BRANCH   1   8
ATOM      4  C   UNL     1      46.584   2.734   7.381  0.00  0.00    +0.000 A 
ATOM      5  C   UNL     1      46.457   4.068   7.763  0.00  0.00    +0.000 A 
ATOM      6  C   UNL     1      45.710   4.383   8.905  0.00  0.00    +0.000 A 
ATOM      7  C   UNL     1      45.120   3.359   9.637  0.00  0.00    +0.000 A 
ATOM      8  N   UNL     1      44.252   3.556  10.702  0.00  0.00    +0.000 N 
ATOM      9  N   UNL     1      45.277   2.063   9.298  0.00  0.00    +0.000 NA
ATOM     10  C   UNL     1      45.983   1.776   8.178  0.00  0.00    +0.000 A 
ATOM     11  H   UNL     1      44.093   2.654  11.141  0.00  0.00    +0.000 HD
BRANCH   4  13
ATOM     12  N   UNL     1      47.129   3.063   5.026  0.00  0.00    +0.000 N 
ATOM     13  C   UNL     1      47.265   2.289   6.145  0.00  0.00    +0.000 C 
ATOM     14  O   UNL     1      47.952   1.275   6.129  0.00  0.00    +0.000 OA
ATOM     15  H   UNL     1      47.690   2.793   4.229  0.00  0.00    +0.000 HD
ATOM     16  H   UNL     1      46.796   4.013   5.068  0.00  0.00    +0.000 HD
ENDBRANCH   4  13
ENDBRANCH   1   8
BRANCH   1  17
ATOM     17  C   UNL     1      45.362   5.210  12.186  0.00  0.00    +0.000 A 
ATOM     18  C   UNL     1      45.954   6.450  11.905  0.00  0.00    +0.000 A 
ATOM     19  C   UNL     1      46.960   6.970  12.719  0.00  0.00    +0.000 A 
ATOM     20  C   UNL     1      47.403   6.249  13.829  0.00  0.00    +0.000 A 
ATOM     21  C   UNL     1      46.886   4.977  14.124  0.00  0.00    +0.000 A 
ATOM     22  C   UNL     1      45.893   4.473  13.261  0.00  0.00    +0.000 A 
BRANCH  21  23
ATOM     23  C   UNL     1      47.293   4.225  15.328  0.00  0.00    +0.000 A 
ATOM     24  N   UNL     1      47.854   3.009  15.162  0.00  0.00    +0.000 NA
ATOM     25  C   UNL     1      48.306   2.396  16.265  0.00  0.00    +0.000 A 
ATOM     26  C   UNL     1      48.219   2.935  17.529  0.00  0.00    +0.000 A 
ATOM     27  C   UNL     1      47.628   4.174  17.598  0.00  0.00    +0.000 A 
ATOM     28  N   UNL     1      47.166   4.839  16.524  0.00  0.00    +0.000 NA
ENDBRANCH  21  23
ENDBRANCH   1  17
TORSDOF 4
ENDMDL
MODEL 2
REMARK VINA RESULT:    -8.616      2.175      3.778
REMARK INTER + INTRA:         -11.474
REMARK INTER:                 -10.426
REMARK INTRA:                  -1.047
REMARK UNBOUND:                -0.843
REMARK  Name = 
REMARK  4 active torsions:
REMARK  status: ('A' for Active; 'I' for Inactive)
REMARK    1  A    between atoms: C_2  and  C_4
REMARK    2  A    between atoms: N_8  and  C_9
REMARK    3  A    between atoms: C_9  and  C_10
REMARK    4  A    between atoms: C_14  and  C_15
REMARK                            x       y       z     vdW  Elec       q    Type
REMARK                         _______ _______ _______ _____ _____    ______ ____
ROOT
ATOM      1  C   UNL     1      43.883   5.036  11.498  0.00  0.00    +0.000 C 
ATOM      2  C   UNL     1      42.460   5.220  11.992  0.00  0.00    +0.000 C 
ATOM      3  C   UNL     1      43.002   6.138  10.946  0.00  0.00    +0.000 C 
ENDROOT
BRANCH   1   8
ATOM      4  C   UNL     1      46.489   2.827   7.535  0.00  0.00    +0.000 A 
ATOM      5  C   UNL     1      46.327   4.177   7.839  0.00  0.00    +0.000 A 
ATOM      6  C   UNL     1      45.559   4.539   8.952  0.00  0.00    +0.000 A 
ATOM      7  C   UNL     1      44.982   3.546   9.734  0.00  0.00    +0.000 A 
ATOM      8  N   UNL     1      44.094   3.782  10.775  0.00  0.00    +0.000 N 
ATOM      9  N   UNL     1      45.171   2.236   9.471  0.00  0.00    +0.000 NA
ATOM     10  C   UNL     1      45.899   1.902   8.378  0.00  0.00    +0.000 A 
ATOM     11  H   UNL     1      43.950   2.904  11.263  0.00  0.00    +0.000 HD
BRANCH   4  13
ATOM     12  N   UNL     1      47.088   3.053   5.181  0.00  0.00    +0.000 N 
ATOM     13  C   UNL     1      47.197   2.328   6.335  0.00  0.00    +0.000 C 
ATOM     14  O   UNL     1      47.881   1.313   6.378  0.00  0.00    +0.000 OA
ATOM     15  H   UNL     1      47.666   2.749   4.409  0.00  0.00    +0.000 HD
ATOM     16  H   UNL     1      46.757   4.006   5.175  0.00  0.00    +0.000 HD
ENDBRANCH   4  13
ENDBRANCH   1   8
BRANCH   1  17
ATOM     17  C   UNL     1      45.068   5.414  12.375  0.00  0.00    +0.000 A 
ATOM     18  C   UNL     1      45.527   4.561  13.389  0.00  0.00    +0.000 A 
ATOM     19  C   UNL     1      46.761   4.771  14.004  0.00  0.00    +0.000 A 
ATOM     20  C   UNL     1      47.558   5.851  13.621  0.00  0.00    +0.000 A 
ATOM     21  C   UNL     1      47.122   6.769  12.652  0.00  0.00    +0.000 A 
ATOM     22  C   UNL     1      45.857   6.540  12.075  0.00  0.00    +0.000 A 
BRANCH  21  23
ATOM     23  C   UNL     1      47.974   7.881  12.186  0.00  0.00    +0.000 A 
ATOM     24  N   UNL     1      47.399   9.086  11.986  0.00  0.00    +0.000 NA
ATOM     25  C   UNL     1      48.216  10.099  11.662  0.00  0.00    +0.000 A 
ATOM     26  C   UNL     1      49.579   9.966  11.522  0.00  0.00    +0.000 A 
ATOM     27  C   UNL     1      50.071   8.701  11.739  0.00  0.00    +0.000 A 
ATOM     28  N   UNL     1      49.300   7.651  12.075  0.00  0.00    +0.000 NA
ENDBRANCH  21  23
ENDBRANCH   1  17
TORSDOF 4
ENDMDL
MODEL 3
REMARK VINA RESULT:    -6.979      3.023      7.671
REMARK INTER + INTRA:          -9.454
REMARK INTER:                  -9.570
REMARK INTRA:                   0.116
REMARK UNBOUND:                -0.843
REMARK  Name = 
REMARK  4 active torsions:
REMARK  status: ('A' for Active; 'I' for Inactive)
REMARK    1  A    between atoms: C_2  and  C_4
REMARK    2  A    between atoms: N_8  and  C_9
REMARK    3  A    between atoms: C_9  and  C_10
REMARK    4  A    between atoms: C_14  and  C_15
REMARK                            x       y       z     vdW  Elec       q    Type
REMARK                         _______ _______ _______ _____ _____    ______ ____
ROOT
ATOM      1  C   UNL     1      48.533   7.727  12.744  0.00  0.00    +0.000 C 
ATOM      2  C   UNL     1      49.653   7.386  11.777  0.00  0.00    +0.000 C 
ATOM      3  C   UNL     1      49.239   8.811  11.954  0.00  0.00    +0.000 C 
ENDROOT
BRANCH   1   8
ATOM      4  C   UNL     1      47.872   4.309  16.649  0.00  0.00    +0.000 A 
ATOM      5  C   UNL     1      47.198   4.398  15.434  0.00  0.00    +0.000 A 
ATOM      6  C   UNL     1      47.533   5.423  14.541  0.00  0.00    +0.000 A 
ATOM      7  C   UNL     1      48.537   6.323  14.880  0.00  0.00    +0.000 A 
ATOM      8  N   UNL     1      48.863   7.452  14.141  0.00  0.00    +0.000 N 
ATOM      9  N   UNL     1      49.225   6.214  16.037  0.00  0.00    +0.000 NA
ATOM     10  C   UNL     1      48.873   5.232  16.900  0.00  0.00    +0.000 A 
ATOM     11  H   UNL     1      49.716   7.839  14.530  0.00  0.00    +0.000 HD
BRANCH   4  13
ATOM     12  N   UNL     1      48.337   3.302  18.822  0.00  0.00    +0.000 N 
ATOM     13  C   UNL     1      47.541   3.332  17.710  0.00  0.00    +0.000 C 
ATOM     14  O   UNL     1      46.571   2.591  17.611  0.00  0.00    +0.000 OA
ATOM     15  H   UNL     1      48.025   2.702  19.574  0.00  0.00    +0.000 HD
ATOM     16  H   UNL     1      48.970   4.053  19.049  0.00  0.00    +0.000 HD
ENDBRANCH   4  13
ENDBRANCH   1   8
BRANCH   1  17
ATOM     17  C   UNL     1      47.086   7.398  12.406  0.00  0.00    +0.000 A 
ATOM     18  C   UNL     1      46.047   8.294  12.696  0.00  0.00    +0.000 A 
ATOM     19  C   UNL     1      44.775   8.124  12.149  0.00  0.00    +0.000 A 
ATOM     20  C   UNL     1      44.516   7.042  11.306  0.00  0.00    +0.000 A 
ATOM     21  C   UNL     1      45.503   6.084  11.028  0.00  0.00    +0.000 A 
ATOM     22  C   UNL     1      46.766   6.273  11.623  0.00  0.00    +0.000 A 
BRANCH  21  23
ATOM     23  C   UNL     1      45.271   4.967  10.089  0.00  0.00    +0.000 A 
ATOM     24  N   UNL     1      45.795   5.055   8.850  0.00  0.00    +0.000 NA
ATOM     25  C   UNL     1      45.655   3.983   8.057  0.00  0.00    +0.000 A 
ATOM     26  C   UNL     1      45.009   2.829   8.439  0.00  0.00    +0.000 A 
ATOM     27  C   UNL     1      44.503   2.837   9.717  0.00  0.00    +0.000 A 
ATOM     28  N   UNL     1      44.623   3.879  10.558  0.00  0.00    +0.000 NA
ENDBRANCH  21  23
ENDBRANCH   1  17
TORSDOF 4
ENDMDL
MODEL 4
REMARK VINA RESULT:    -6.857      3.584      7.193
REMARK INTER + INTRA:          -9.304
REMARK INTER:                  -8.342
REMARK INTRA:                  -0.962
REMARK UNBOUND:                -0.843
REMARK  Name = 
REMARK  4 active torsions:
REMARK  status: ('A' for Active; 'I' for Inactive)
REMARK    1  A    between atoms: C_2  and  C_4
REMARK    2  A    between atoms: N_8  and  C_9
REMARK    3  A    between atoms: C_9  and  C_10
REMARK    4  A    between atoms: C_14  and  C_15
REMARK                            x       y       z     vdW  Elec       q    Type
REMARK                         _______ _______ _______ _____ _____    ______ ____
ROOT
ATOM      1  C   UNL     1      46.148   5.175  13.432  0.00  0.00    +0.000 C 
ATOM      2  C   UNL     1      46.148   4.378  14.724  0.00  0.00    +0.000 C 
ATOM      3  C   UNL     1      47.280   4.224  13.761  0.00  0.00    +0.000 C 
ENDROOT
BRANCH   1   8
ATOM      4  C   UNL     1      48.581   9.493  11.756  0.00  0.00    +0.000 A 
ATOM      5  C   UNL     1      48.875   8.158  11.492  0.00  0.00    +0.000 A 
ATOM      6  C   UNL     1      48.089   7.157  12.076  0.00  0.00    +0.000 A 
ATOM      7  C   UNL     1      47.028   7.516  12.899  0.00  0.00    +0.000 A 
ATOM      8  N   UNL     1      46.268   6.618  13.636  0.00  0.00    +0.000 N 
ATOM      9  N   UNL     1      46.711   8.808  13.123  0.00  0.00    +0.000 NA
ATOM     10  C   UNL     1      47.494   9.764  12.569  0.00  0.00    +0.000 A 
ATOM     11  H   UNL     1      45.479   7.127  14.022  0.00  0.00    +0.000 HD
BRANCH   4  13
ATOM     12  N   UNL     1      48.861  11.434  10.305  0.00  0.00    +0.000 N 
ATOM     13  C   UNL     1      49.395  10.632  11.276  0.00  0.00    +0.000 C 
ATOM     14  O   UNL     1      50.499  10.867  11.749  0.00  0.00    +0.000 OA
ATOM     15  H   UNL     1      49.392  12.263  10.073  0.00  0.00    +0.000 HD
ATOM     16  H   UNL     1      47.877  11.426  10.084  0.00  0.00    +0.000 HD
ENDBRANCH   4  13
ENDBRANCH   1   8
BRANCH   1  17
ATOM     17  C   UNL     1      45.198   4.820  12.297  0.00  0.00    +0.000 A 
ATOM     18  C   UNL     1      43.913   5.374  12.219  0.00  0.00    +0.000 A 
ATOM     19  C   UNL     1      43.152   5.270  11.055  0.00  0.00    +0.000 A 
ATOM     20  C   UNL     1      43.662   4.596   9.944  0.00  0.00    +0.000 A 
ATOM     21  C   UNL     1      44.920   3.973   9.987  0.00  0.00    +0.000 A 
ATOM     22  C   UNL     1      45.645   4.074  11.190  0.00  0.00    +0.000 A 
BRANCH  21  23
ATOM     23  C   UNL     1      45.506   3.310   8.805  0.00  0.00    +0.000 A 
ATOM     24  N   UNL     1      45.853   4.074   7.749  0.00  0.00    +0.000 NA
ATOM     25  C   UNL     1      46.476   3.458   6.735  0.00  0.00    +0.000 A 
ATOM     26  C   UNL     1      46.764   2.112   6.720  0.00  0.00    +0.000 A 
ATOM     27  C   UNL     1      46.367   1.415   7.837  0.00  0.00    +0.000 A 
ATOM     28  N   UNL     1      45.748   1.983   8.886  0.00  0.00    +0.000 NA
ENDBRANCH  21  23
ENDBRANCH   1  17
TORSDOF 4
ENDMDL
MODEL 5
REMARK VINA RESULT:    -6.564      3.596      5.275
REMARK INTER + INTRA:          -8.942
REMARK INTER:                  -8.030
REMARK INTRA:                  -0.913
REMARK UNBOUND:                -0.843
REMARK  Name = 
REMARK  4 active torsions:
REMARK  status: ('A' for Active; 'I' for Inactive)
REMARK    1  A    between atoms: C_2  and  C_4
REMARK    2  A    between atoms: N_8  and  C_9
REMARK    3  A    between atoms: C_9  and  C_10
REMARK    4  A    between atoms: C_14  and  C_15
REMARK                            x       y       z     vdW  Elec       q    Type
REMARK                         _______ _______ _______ _____ _____    ______ ____
ROOT
ATOM      1  C   UNL     1      48.444   8.336  13.132  0.00  0.00    +0.000 C 
ATOM      2  C   UNL     1      49.135   9.463  12.387  0.00  0.00    +0.000 C 
ATOM      3  C   UNL     1      49.555   8.050  12.142  0.00  0.00    +0.000 C 
ENDROOT
BRANCH   1   8
ATOM      4  C   UNL     1      44.653   4.818  12.340  0.00  0.00    +0.000 A 
ATOM      5  C   UNL     1      46.028   4.622  12.449  0.00  0.00    +0.000 A 
ATOM      6  C   UNL     1      46.863   5.730  12.640  0.00  0.00    +0.000 A 
ATOM      7  C   UNL     1      46.303   6.999  12.726  0.00  0.00    +0.000 A 
ATOM      8  N   UNL     1      47.035   8.178  12.779  0.00  0.00    +0.000 N 
ATOM      9  N   UNL     1      44.969   7.191  12.665  0.00  0.00    +0.000 NA
ATOM     10  C   UNL     1      44.176   6.113  12.458  0.00  0.00    +0.000 A 
ATOM     11  H   UNL     1      46.389   8.932  12.986  0.00  0.00    +0.000 HD
BRANCH   4  13
ATOM     12  N   UNL     1      43.916   2.507  12.583  0.00  0.00    +0.000 N 
ATOM     13  C   UNL     1      43.684   3.741  12.043  0.00  0.00    +0.000 C 
ATOM     14  O   UNL     1      42.690   3.952  11.359  0.00  0.00    +0.000 OA
ATOM     15  H   UNL     1      43.184   1.820  12.452  0.00  0.00    +0.000 HD
ATOM     16  H   UNL     1      44.563   2.366  13.343  0.00  0.00    +0.000 HD
ENDBRANCH   4  13
ENDBRANCH   1   8
BRANCH   1  17
ATOM     17  C   UNL     1      48.707   8.106  14.614  0.00  0.00    +0.000 A 
ATOM     18  C   UNL     1      48.352   9.063  15.576  0.00  0.00    +0.000 A 
ATOM     19  C   UNL     1      48.336   8.748  16.934  0.00  0.00    +0.000 A 
ATOM     20  C   UNL     1      48.687   7.465  17.359  0.00  0.00    +0.000 A 
ATOM     21  C   UNL     1      49.106   6.486  16.444  0.00  0.00    +0.000 A 
ATOM     22  C   UNL     1      49.138   6.850  15.084  0.00  0.00    +0.000 A 
BRANCH  21  23
ATOM     23  C   UNL     1      49.421   5.105  16.863  0.00  0.00    +0.000 A 
ATOM     24  N   UNL     1      48.459   4.166  16.744  0.00  0.00    +0.000 NA
ATOM     25  C   UNL     1      48.807   2.905  17.035  0.00  0.00    +0.000 A 
ATOM     26  C   UNL     1      50.068   2.535  17.446  0.00  0.00    +0.000 A 
ATOM     27  C   UNL     1      50.977   3.561  17.543  0.00  0.00    +0.000 A 
ATOM     28  N   UNL     1      50.686   4.842  17.255  0.00  0.00    +0.000 NA
ENDBRANCH  21  23
ENDBRANCH   1  17
TORSDOF 4
ENDMDL
MODEL 6
REMARK VINA RESULT:    -6.533      3.958      8.559
REMARK INTER + INTRA:          -8.904
REMARK INTER:                  -8.069
REMARK INTRA:                  -0.835
REMARK UNBOUND:                -0.843
REMARK  Name = 
REMARK  4 active torsions:
REMARK  status: ('A' for Active; 'I' for Inactive)
REMARK    1  A    between atoms: C_2  and  C_4
REMARK    2  A    between atoms: N_8  and  C_9
REMARK    3  A    between atoms: C_9  and  C_10
REMARK    4  A    between atoms: C_14  and  C_15
REMARK                            x       y       z     vdW  Elec       q    Type
REMARK                         _______ _______ _______ _____ _____    ______ ____
ROOT
ATOM      1  C   UNL     1      48.923   7.794  12.626  0.00  0.00    +0.000 C 
ATOM      2  C   UNL     1      49.898   7.931  11.471  0.00  0.00    +0.000 C 
ATOM      3  C   UNL     1      49.544   9.134  12.284  0.00  0.00    +0.000 C 
ENDROOT
BRANCH   1   8
ATOM      4  C   UNL     1      49.004   7.267  17.831  0.00  0.00    +0.000 A 
ATOM      5  C   UNL     1      48.602   8.357  17.062  0.00  0.00    +0.000 A 
ATOM      6  C   UNL     1      48.690   8.278  15.667  0.00  0.00    +0.000 A 
ATOM      7  C   UNL     1      49.168   7.114  15.079  0.00  0.00    +0.000 A 
ATOM      8  N   UNL     1      49.426   6.968  13.722  0.00  0.00    +0.000 N 
ATOM      9  N   UNL     1      49.518   6.038  15.815  0.00  0.00    +0.000 NA
ATOM     10  C   UNL     1      49.448   6.138  17.164  0.00  0.00    +0.000 A 
ATOM     11  H   UNL     1      49.620   5.987  13.549  0.00  0.00    +0.000 HD
BRANCH   4  13
ATOM     12  N   UNL     1      47.857   7.276  19.983  0.00  0.00    +0.000 N 
ATOM     13  C   UNL     1      49.047   7.267  19.310  0.00  0.00    +0.000 C 
ATOM     14  O   UNL     1      50.111   7.232  19.914  0.00  0.00    +0.000 OA
ATOM     15  H   UNL     1      47.914   7.168  20.987  0.00  0.00    +0.000 HD
ATOM     16  H   UNL     1      46.984   7.047  19.533  0.00  0.00    +0.000 HD
ENDBRANCH   4  13
ENDBRANCH   1   8
BRANCH   1  17
ATOM     17  C   UNL     1      47.437   7.589  12.371  0.00  0.00    +0.000 A 
ATOM     18  C   UNL     1      46.504   8.605  12.625  0.00  0.00    +0.000 A 
ATOM     19  C   UNL     1      45.199   8.523  12.142  0.00  0.00    +0.000 A 
ATOM     20  C   UNL     1      44.796   7.411  11.400  0.00  0.00    +0.000 A 
ATOM     21  C   UNL     1      45.671   6.338  11.165  0.00  0.00    +0.000 A 
ATOM     22  C   UNL     1      46.973   6.444  11.695  0.00  0.00    +0.000 A 
BRANCH  21  23
ATOM     23  C   UNL     1      45.288   5.182  10.331  0.00  0.00    +0.000 A 
ATOM     24  N   UNL     1      45.664   5.176   9.036  0.00  0.00    +0.000 NA
ATOM     25  C   UNL     1      45.391   4.068   8.332  0.00  0.00    +0.000 A 
ATOM     26  C   UNL     1      44.753   2.966   8.858  0.00  0.00    +0.000 A 
ATOM     27  C   UNL     1      44.404   3.069  10.183  0.00  0.00    +0.000 A 
ATOM     28  N   UNL     1      44.661   4.151  10.939  0.00  0.00    +0.000 NA
ENDBRANCH  21  23
ENDBRANCH   1  17
TORSDOF 4
ENDMDL
MODEL 7
REMARK VINA RESULT:    -6.511      3.895      8.429
REMARK INTER + INTRA:          -8.876
REMARK INTER:                  -8.250
REMARK INTRA:                  -0.626
REMARK UNBOUND:                -0.843
REMARK  Name = 
REMARK  4 active torsions:
REMARK  status: ('A' for Active; 'I' for Inactive)
REMARK    1  A    between atoms: C_2  and  C_4
REMARK    2  A    between atoms: N_8  and  C_9
REMARK    3  A    between atoms: C_9  and  C_10
REMARK    4  A    between atoms: C_14  and  C_15
REMARK                            x       y       z     vdW  Elec       q    Type
REMARK                         _______ _______ _______ _____ _____    ______ ____
ROOT
ATOM      1  C   UNL     1      48.233   4.866  17.210  0.00  0.00    +0.000 C 
ATOM      2  C   UNL     1      47.245   5.114  18.336  0.00  0.00    +0.000 C 
ATOM      3  C   UNL     1      47.213   3.815  17.597  0.00  0.00    +0.000 C 
ENDROOT
BRANCH   1   8
ATOM      4  C   UNL     1      52.382   1.706  17.625  0.00  0.00    +0.000 A 
ATOM      5  C   UNL     1      51.055   1.385  17.347  0.00  0.00    +0.000 A 
ATOM      6  C   UNL     1      50.100   2.408  17.308  0.00  0.00    +0.000 A 
ATOM      7  C   UNL     1      50.495   3.720  17.537  0.00  0.00    +0.000 A 
ATOM      8  N   UNL     1      49.623   4.794  17.657  0.00  0.00    +0.000 N 
ATOM      9  N   UNL     1      51.786   4.043  17.763  0.00  0.00    +0.000 NA
ATOM     10  C   UNL     1      52.695   3.040  17.820  0.00  0.00    +0.000 A 
ATOM     11  H   UNL     1      50.180   5.643  17.671  0.00  0.00    +0.000 HD
BRANCH   4  13
ATOM     12  N   UNL     1      53.158  -0.457  18.442  0.00  0.00    +0.000 N 
ATOM     13  C   UNL     1      53.459   0.704  17.786  0.00  0.00    +0.000 C 
ATOM     14  O   UNL     1      54.577   0.894  17.324  0.00  0.00    +0.000 OA
ATOM     15  H   UNL     1      53.881  -1.165  18.445  0.00  0.00    +0.000 HD
ATOM     16  H   UNL     1      52.208  -0.752  18.603  0.00  0.00    +0.000 HD
ENDBRANCH   4  13
ENDBRANCH   1   8
BRANCH   1  17
ATOM     17  C   UNL     1      48.083   5.575  15.872  0.00  0.00    +0.000 A 
ATOM     18  C   UNL     1      48.991   6.563  15.463  0.00  0.00    +0.000 A 
ATOM     19  C   UNL     1      49.021   7.013  14.143  0.00  0.00    +0.000 A 
ATOM     20  C   UNL     1      48.130   6.488  13.205  0.00  0.00    +0.000 A 
ATOM     21  C   UNL     1      47.163   5.539  13.573  0.00  0.00    +0.000 A 
ATOM     22  C   UNL     1      47.144   5.131  14.921  0.00  0.00    +0.000 A 
BRANCH  21  23
ATOM     23  C   UNL     1      46.253   4.923  12.586  0.00  0.00    +0.000 A 
ATOM     24  N   UNL     1      45.676   3.745  12.898  0.00  0.00    +0.000 NA
ATOM     25  C   UNL     1      44.777   3.263  12.027  0.00  0.00    +0.000 A 
ATOM     26  C   UNL     1      44.432   3.897  10.855  0.00  0.00    +0.000 A 
ATOM     27  C   UNL     1      45.078   5.088  10.621  0.00  0.00    +0.000 A 
ATOM     28  N   UNL     1      45.980   5.623  11.464  0.00  0.00    +0.000 NA
ENDBRANCH  21  23
ENDBRANCH   1  17
TORSDOF 4
ENDMDL
