MODEL 1
REMARK VINA RESULT:    -9.591      0.000      0.000
REMARK INTER + INTRA:         -12.651
REMARK INTER:                 -11.834
REMARK INTRA:                  -0.817
REMARK UNBOUND:                -0.817
REMARK  Name = 
REMARK  4 active torsions:
REMARK  status: ('A' for Active; 'I' for Inactive)
REMARK    1  A    between atoms: C_2  and  C_4
REMARK    2  A    between atoms: N_8  and  C_9
REMARK    3  A    between atoms: C_9  and  C_10
REMARK    4  A    between atoms: C_14  and  C_15
REMARK                            x       y       z     vdW  Elec       q    Type
REMARK                         _______ _______ _______ _____ _____    ______ ____
ROOT
ATOM      1  C   UNL     1      43.385   4.665  11.089  0.00  0.00    +0.000 C 
ENDROOT
BRANCH   1   6
ATOM      2  C   UNL     1      46.396   2.302   7.695  0.00  0.00    +0.000 A 
ATOM      3  C   UNL     1      45.596   1.745   8.687  0.00  0.00    +0.000 A 
ATOM      4  C   UNL     1      44.716   2.569   9.392  0.00  0.00    +0.000 A 
ATOM      5  C   UNL     1      44.664   3.931   9.113  0.00  0.00    +0.000 A 
ATOM      6  N   UNL     1      43.752   4.788   9.693  0.00  0.00    +0.000 N 
ATOM      7  N   UNL     1      45.452   4.483   8.170  0.00  0.00    +0.000 NA
ATOM      8  C   UNL     1      46.300   3.668   7.484  0.00  0.00    +0.000 A 
ATOM      9  H   UNL     1      43.972   5.734   9.390  0.00  0.00    +0.000 HD
BRANCH   2  11
ATOM     10  N   UNL     1      48.513   2.092   6.516  0.00  0.00    +0.000 N 
ATOM     11  C   UNL     1      47.335   1.501   6.883  0.00  0.00    +0.000 C 
ATOM     12  O   UNL     1      47.084   0.342   6.577  0.00  0.00    +0.000 OA
ATOM     13  H   UNL     1      49.188   1.497   6.050  0.00  0.00    +0.000 HD
ATOM     14  H   UNL     1      48.863   2.930   6.958  0.00  0.00    +0.000 HD
ENDBRANCH   2  11
ENDBRANCH   1   6
BRANCH   1  15
ATOM     15  C   UNL     1      44.561   5.034  11.952  0.00  0.00    +0.000 A 
ATOM     16  C   UNL     1      44.975   4.187  12.976  0.00  0.00    +0.000 A 
ATOM     17  N   UNL     1      46.049   4.417  13.758  0.00  0.00    +0.000 NA
ATOM     18  C   UNL     1      46.755   5.545  13.505  0.00  0.00    +0.000 A 
ATOM     19  C   UNL     1      46.464   6.473  12.500  0.00  0.00    +0.000 A 
ATOM     20  C   UNL     1      45.328   6.183  11.721  0.00  0.00    +0.000 A 
BRANCH  19  21
ATOM     21  C   UNL     1      47.305   7.667  12.250  0.00  0.00    +0.000 A 
ATOM     22  C   UNL     1      48.629   7.543  11.779  0.00  0.00    +0.000 A 
ATOM     23  C   UNL     1      49.450   8.662  11.581  0.00  0.00    +0.000 A 
ATOM     24  C   UNL     1      48.960   9.939  11.835  0.00  0.00    +0.000 A 
ATOM     25  C   UNL     1      47.655  10.085  12.281  0.00  0.00    +0.000 A 
ATOM     26  F   UNL     1      47.181  11.316  12.521  0.00  0.00    +0.000 F 
ATOM     27  C   UNL     1      46.840   8.973  12.489  0.00  0.00    +0.000 A 
ATOM     28  F   UNL     1      45.595   9.180  12.947  0.00  0.00    +0.000 F 
ENDBRANCH  19  21
ENDBRANCH   1  15
TORSDOF 4
ENDMDL
MODEL 2
REMARK VINA RESULT:    -8.511      2.371      3.593
REMARK INTER + INTRA:         -11.318
REMARK INTER:                 -10.957
REMARK INTRA:                  -0.361
REMARK UNBOUND:                -0.817
REMARK  Name = 
REMARK  4 active torsions:
REMARK  status: ('A' for Active; 'I' for Inactive)
REMARK    1  A    between atoms: C_2  and  C_4
REMARK    2  A    between atoms: N_8  and  C_9
REMARK    3  A    between atoms: C_9  and  C_10
REMARK    4  A    between atoms: C_14  and  C_15
REMARK                            x       y       z     vdW  Elec       q    Type
REMARK                         _______ _______ _______ _____ _____    ______ ____
ROOT
ATOM      1  C   UNL     1      43.749   4.872  11.212  0.00  0.00    +0.000 C 
ENDROOT
BRANCH   1   6
ATOM      2  C   UNL     1      46.399   2.285   7.683  0.00  0.00    +0.000 A 
ATOM      3  C   UNL     1      45.720   1.797   8.794  0.00  0.00    +0.000 A 
ATOM      4  C   UNL     1      44.913   2.666   9.531  0.00  0.00    +0.000 A 
ATOM      5  C   UNL     1      44.812   4.003   9.163  0.00  0.00    +0.000 A 
ATOM      6  N   UNL     1      43.959   4.895   9.779  0.00  0.00    +0.000 N 
ATOM      7  N   UNL     1      45.484   4.490   8.102  0.00  0.00    +0.000 NA
ATOM      8  C   UNL     1      46.262   3.632   7.387  0.00  0.00    +0.000 A 
ATOM      9  H   UNL     1      44.131   5.818   9.387  0.00  0.00    +0.000 HD
BRANCH   2  11
ATOM     10  N   UNL     1      48.297   2.034   6.181  0.00  0.00    +0.000 N 
ATOM     11  C   UNL     1      47.253   1.433   6.831  0.00  0.00    +0.000 C 
ATOM     12  O   UNL     1      47.055   0.227   6.734  0.00  0.00    +0.000 OA
ATOM     13  H   UNL     1      48.932   1.420   5.687  0.00  0.00    +0.000 HD
ATOM     14  H   UNL     1      48.642   2.948   6.437  0.00  0.00    +0.000 HD
ENDBRANCH   2  11
ENDBRANCH   1   6
BRANCH   1  15
ATOM     15  C   UNL     1      44.881   5.589  11.897  0.00  0.00    +0.000 A 
ATOM     16  C   UNL     1      45.219   6.887  11.524  0.00  0.00    +0.000 A 
ATOM     17  N   UNL     1      46.181   7.617  12.121  0.00  0.00    +0.000 NA
ATOM     18  C   UNL     1      46.841   7.031  13.149  0.00  0.00    +0.000 A 
ATOM     19  C   UNL     1      46.594   5.744  13.638  0.00  0.00    +0.000 A 
ATOM     20  C   UNL     1      45.583   5.027  12.971  0.00  0.00    +0.000 A 
BRANCH  19  21
ATOM     21  C   UNL     1      47.326   5.178  14.796  0.00  0.00    +0.000 A 
ATOM     22  C   UNL     1      47.175   3.824  15.165  0.00  0.00    +0.000 A 
ATOM     23  C   UNL     1      47.827   3.287  16.284  0.00  0.00    +0.000 A 
ATOM     24  C   UNL     1      48.661   4.090  17.055  0.00  0.00    +0.000 A 
ATOM     25  C   UNL     1      48.838   5.419  16.700  0.00  0.00    +0.000 A 
ATOM     26  F   UNL     1      49.646   6.191  17.440  0.00  0.00    +0.000 F 
ATOM     27  C   UNL     1      48.183   5.958  15.594  0.00  0.00    +0.000 A 
ATOM     28  F   UNL     1      48.376   7.257  15.318  0.00  0.00    +0.000 F 
ENDBRANCH  19  21
ENDBRANCH   1  15
TORSDOF 4
ENDMDL
MODEL 3
REMARK VINA RESULT:    -8.131      4.213      7.367
REMARK INTER + INTRA:         -10.849
REMARK INTER:                 -10.561
REMARK INTRA:                  -0.288
REMARK UNBOUND:                -0.817
REMARK  Name = 
REMARK  4 active torsions:
REMARK  status: ('A' for Active; 'I' for Inactive)
REMARK    1  A    between atoms: C_2  and  C_4
REMARK    2  A    between atoms: N_8  and  C_9
REMARK    3  A    between atoms: C_9  and  C_10
REMARK    4  A    between atoms: C_14  and  C_15
REMARK                            x       y       z     vdW  Elec       q    Type
REMARK                         _______ _______ _______ _____ _____    ______ ____
ROOT
ATOM      1  C   UNL     1      45.925   7.394  11.717  0.00  0.00    +0.000 C 
ENDROOT
BRANCH   1   6
ATOM      2  C   UNL     1      47.351   4.435  15.639  0.00  0.00    +0.000 A 
ATOM      3  C   UNL     1      46.282   4.270  14.766  0.00  0.00    +0.000 A 
ATOM      4  C   UNL     1      46.178   5.106  13.652  0.00  0.00    +0.000 A 
ATOM      5  C   UNL     1      47.126   6.102  13.440  0.00  0.00    +0.000 A 
ATOM      6  N   UNL     1      47.148   6.897  12.313  0.00  0.00    +0.000 N 
ATOM      7  N   UNL     1      48.153   6.285  14.293  0.00  0.00    +0.000 NA
ATOM      8  C   UNL     1      48.247   5.459  15.371  0.00  0.00    +0.000 A 
ATOM      9  H   UNL     1      47.879   7.595  12.434  0.00  0.00    +0.000 HD
BRANCH   2  11
ATOM     10  N   UNL     1      48.825   3.481  17.323  0.00  0.00    +0.000 N 
ATOM     11  C   UNL     1      47.554   3.581  16.826  0.00  0.00    +0.000 C 
ATOM     12  O   UNL     1      46.614   3.008  17.366  0.00  0.00    +0.000 OA
ATOM     13  H   UNL     1      48.928   2.977  18.195  0.00  0.00    +0.000 HD
ATOM     14  H   UNL     1      49.559   4.128  17.073  0.00  0.00    +0.000 HD
ENDBRANCH   2  11
ENDBRANCH   1   6
BRANCH   1  15
ATOM     15  C   UNL     1      45.220   6.270  11.008  0.00  0.00    +0.000 A 
ATOM     16  C   UNL     1      43.855   6.069  11.191  0.00  0.00    +0.000 A 
ATOM     17  N   UNL     1      43.139   5.121  10.554  0.00  0.00    +0.000 NA
ATOM     18  C   UNL     1      43.813   4.333   9.682  0.00  0.00    +0.000 A 
ATOM     19  C   UNL     1      45.177   4.435   9.389  0.00  0.00    +0.000 A 
ATOM     20  C   UNL     1      45.873   5.438  10.089  0.00  0.00    +0.000 A 
BRANCH  19  21
ATOM     21  C   UNL     1      45.844   3.566   8.391  0.00  0.00    +0.000 A 
ATOM     22  C   UNL     1      46.465   4.111   7.246  0.00  0.00    +0.000 A 
ATOM     23  C   UNL     1      47.061   3.297   6.273  0.00  0.00    +0.000 A 
ATOM     24  C   UNL     1      47.064   1.915   6.427  0.00  0.00    +0.000 A 
ATOM     25  C   UNL     1      46.476   1.359   7.553  0.00  0.00    +0.000 A 
ATOM     26  F   UNL     1      46.484   0.027   7.705  0.00  0.00    +0.000 F 
ATOM     27  C   UNL     1      45.874   2.165   8.518  0.00  0.00    +0.000 A 
ATOM     28  F   UNL     1      45.298   1.565   9.572  0.00  0.00    +0.000 F 
ENDBRANCH  19  21
ENDBRANCH   1  15
TORSDOF 4
ENDMDL
MODEL 4
REMARK VINA RESULT:    -7.923      4.274      7.077
REMARK INTER + INTRA:         -10.592
REMARK INTER:                 -10.147
REMARK INTRA:                  -0.446
REMARK UNBOUND:                -0.817
REMARK  Name = 
REMARK  4 active torsions:
REMARK  status: ('A' for Active; 'I' for Inactive)
REMARK    1  A    between atoms: C_2  and  C_4
REMARK    2  A    between atoms: N_8  and  C_9
REMARK    3  A    between atoms: C_9  and  C_10
REMARK    4  A    between atoms: C_14  and  C_15
REMARK                            x       y       z     vdW  Elec       q    Type
REMARK                         _______ _______ _______ _____ _____    ______ ____
ROOT
ATOM      1  C   UNL     1      43.621   6.263  11.698  0.00  0.00    +0.000 C 
ENDROOT
BRANCH   1   6
ATOM      2  C   UNL     1      48.519   7.248  12.801  0.00  0.00    +0.000 A 
ATOM      3  C   UNL     1      47.734   7.768  11.778  0.00  0.00    +0.000 A 
ATOM      4  C   UNL     1      46.365   7.493  11.765  0.00  0.00    +0.000 A 
ATOM      5  C   UNL     1      45.807   6.692  12.756  0.00  0.00    +0.000 A 
ATOM      6  N   UNL     1      44.452   6.461  12.868  0.00  0.00    +0.000 N 
ATOM      7  N   UNL     1      46.563   6.166  13.739  0.00  0.00    +0.000 NA
ATOM      8  C   UNL     1      47.895   6.446  13.744  0.00  0.00    +0.000 A 
ATOM      9  H   UNL     1      44.309   5.784  13.615  0.00  0.00    +0.000 HD
BRANCH   2  11
ATOM     10  N   UNL     1      50.720   7.368  11.772  0.00  0.00    +0.000 N 
ATOM     11  C   UNL     1      49.969   7.508  12.907  0.00  0.00    +0.000 C 
ATOM     12  O   UNL     1      50.475   7.867  13.964  0.00  0.00    +0.000 OA
ATOM     13  H   UNL     1      51.690   7.651  11.839  0.00  0.00    +0.000 HD
ATOM     14  H   UNL     1      50.310   7.333  10.850  0.00  0.00    +0.000 HD
ENDBRANCH   2  11
ENDBRANCH   1   6
BRANCH   1  15
ATOM     15  C   UNL     1      43.835   4.874  11.160  0.00  0.00    +0.000 A 
ATOM     16  C   UNL     1      43.118   3.800  11.680  0.00  0.00    +0.000 A 
ATOM     17  N   UNL     1      43.210   2.537  11.220  0.00  0.00    +0.000 NA
ATOM     18  C   UNL     1      44.057   2.327  10.183  0.00  0.00    +0.000 A 
ATOM     19  C   UNL     1      44.824   3.313   9.554  0.00  0.00    +0.000 A 
ATOM     20  C   UNL     1      44.690   4.611  10.082  0.00  0.00    +0.000 A 
BRANCH  19  21
ATOM     21  C   UNL     1      45.700   3.023   8.395  0.00  0.00    +0.000 A 
ATOM     22  C   UNL     1      46.235   4.062   7.605  0.00  0.00    +0.000 A 
ATOM     23  C   UNL     1      47.029   3.800   6.479  0.00  0.00    +0.000 A 
ATOM     24  C   UNL     1      47.320   2.487   6.124  0.00  0.00    +0.000 A 
ATOM     25  C   UNL     1      46.820   1.450   6.897  0.00  0.00    +0.000 A 
ATOM     26  F   UNL     1      47.105   0.185   6.558  0.00  0.00    +0.000 F 
ATOM     27  C   UNL     1      46.022   1.708   8.011  0.00  0.00    +0.000 A 
ATOM     28  F   UNL     1      45.546   0.660   8.702  0.00  0.00    +0.000 F 
ENDBRANCH  19  21
ENDBRANCH   1  15
TORSDOF 4
ENDMDL
MODEL 5
REMARK VINA RESULT:    -7.859      2.242      2.745
REMARK INTER + INTRA:         -10.514
REMARK INTER:                 -10.169
REMARK INTRA:                  -0.345
REMARK UNBOUND:                -0.817
REMARK  Name = 
REMARK  4 active torsions:
REMARK  status: ('A' for Active; 'I' for Inactive)
REMARK    1  A    between atoms: C_2  and  C_4
REMARK    2  A    between atoms: N_8  and  C_9
REMARK    3  A    between atoms: C_9  and  C_10
REMARK    4  A    between atoms: C_14  and  C_15
REMARK                            x       y       z     vdW  Elec       q    Type
REMARK                         _______ _______ _______ _____ _____    ______ ____
ROOT
ATOM      1  C   UNL     1      43.513   3.819  11.013  0.00  0.00    +0.000 C 
ENDROOT
BRANCH   1   6
ATOM      2  C   UNL     1      46.700   2.535   7.223  0.00  0.00    +0.000 A 
ATOM      3  C   UNL     1      46.426   3.795   7.742  0.00  0.00    +0.000 A 
ATOM      4  C   UNL     1      45.650   3.900   8.899  0.00  0.00    +0.000 A 
ATOM      5  C   UNL     1      45.146   2.753   9.503  0.00  0.00    +0.000 A 
ATOM      6  N   UNL     1      44.459   2.768  10.700  0.00  0.00    +0.000 N 
ATOM      7  N   UNL     1      45.386   1.529   8.994  0.00  0.00    +0.000 NA
ATOM      8  C   UNL     1      46.150   1.440   7.871  0.00  0.00    +0.000 A 
ATOM      9  H   UNL     1      44.128   1.824  10.885  0.00  0.00    +0.000 HD
BRANCH   2  11
ATOM     10  N   UNL     1      47.362   3.201   4.978  0.00  0.00    +0.000 N 
ATOM     11  C   UNL     1      47.532   2.330   6.020  0.00  0.00    +0.000 C 
ATOM     12  O   UNL     1      48.366   1.433   5.968  0.00  0.00    +0.000 OA
ATOM     13  H   UNL     1      48.011   3.110   4.207  0.00  0.00    +0.000 HD
ATOM     14  H   UNL     1      46.887   4.086   5.082  0.00  0.00    +0.000 HD
ENDBRANCH   2  11
ENDBRANCH   1   6
BRANCH   1  15
ATOM     15  C   UNL     1      44.219   4.929  11.743  0.00  0.00    +0.000 A 
ATOM     16  C   UNL     1      45.073   4.640  12.804  0.00  0.00    +0.000 A 
ATOM     17  N   UNL     1      45.783   5.568  13.475  0.00  0.00    +0.000 NA
ATOM     18  C   UNL     1      45.645   6.853  13.067  0.00  0.00    +0.000 A 
ATOM     19  C   UNL     1      44.838   7.282  12.008  0.00  0.00    +0.000 A 
ATOM     20  C   UNL     1      44.115   6.269  11.351  0.00  0.00    +0.000 A 
BRANCH  19  21
ATOM     21  C   UNL     1      44.764   8.701  11.587  0.00  0.00    +0.000 A 
ATOM     22  C   UNL     1      45.837   9.588  11.818  0.00  0.00    +0.000 A 
ATOM     23  C   UNL     1      45.763  10.943  11.464  0.00  0.00    +0.000 A 
ATOM     24  C   UNL     1      44.617  11.442  10.854  0.00  0.00    +0.000 A 
ATOM     25  C   UNL     1      43.558  10.583  10.601  0.00  0.00    +0.000 A 
ATOM     26  F   UNL     1      42.455  11.062  10.008  0.00  0.00    +0.000 F 
ATOM     27  C   UNL     1      43.625   9.238  10.961  0.00  0.00    +0.000 A 
ATOM     28  F   UNL     1      42.555   8.465  10.713  0.00  0.00    +0.000 F 
ENDBRANCH  19  21
ENDBRANCH   1  15
TORSDOF 4
ENDMDL
MODEL 6
REMARK VINA RESULT:    -7.822      3.815      6.853
REMARK INTER + INTRA:         -10.468
REMARK INTER:                  -9.906
REMARK INTRA:                  -0.562
REMARK UNBOUND:                -0.817
REMARK  Name = 
REMARK  4 active torsions:
REMARK  status: ('A' for Active; 'I' for Inactive)
REMARK    1  A    between atoms: C_2  and  C_4
REMARK    2  A    between atoms: N_8  and  C_9
REMARK    3  A    between atoms: C_9  and  C_10
REMARK    4  A    between atoms: C_14  and  C_15
REMARK                            x       y       z     vdW  Elec       q    Type
REMARK                         _______ _______ _______ _____ _____    ______ ____
ROOT
ATOM      1  C   UNL     1      43.607   6.002  11.675  0.00  0.00    +0.000 C 
ENDROOT
BRANCH   1   6
ATOM      2  C   UNL     1      48.474   7.139  12.764  0.00  0.00    +0.000 A 
ATOM      3  C   UNL     1      47.681   7.610  11.725  0.00  0.00    +0.000 A 
ATOM      4  C   UNL     1      46.319   7.302  11.716  0.00  0.00    +0.000 A 
ATOM      5  C   UNL     1      45.778   6.514  12.727  0.00  0.00    +0.000 A 
ATOM      6  N   UNL     1      44.428   6.252  12.842  0.00  0.00    +0.000 N 
ATOM      7  N   UNL     1      46.544   6.033  13.726  0.00  0.00    +0.000 NA
ATOM      8  C   UNL     1      47.868   6.347  13.727  0.00  0.00    +0.000 A 
ATOM      9  H   UNL     1      44.299   5.592  13.606  0.00  0.00    +0.000 HD
BRANCH   2  11
ATOM     10  N   UNL     1      50.663   7.353  11.723  0.00  0.00    +0.000 N 
ATOM     11  C   UNL     1      49.917   7.437  12.867  0.00  0.00    +0.000 C 
ATOM     12  O   UNL     1      50.422   7.779  13.931  0.00  0.00    +0.000 OA
ATOM     13  H   UNL     1      51.625   7.662  11.790  0.00  0.00    +0.000 HD
ATOM     14  H   UNL     1      50.247   7.333  10.803  0.00  0.00    +0.000 HD
ENDBRANCH   2  11
ENDBRANCH   1   6
BRANCH   1  15
ATOM     15  C   UNL     1      43.785   4.575  11.233  0.00  0.00    +0.000 A 
ATOM     16  C   UNL     1      43.068   3.553  11.850  0.00  0.00    +0.000 A 
ATOM     17  N   UNL     1      43.128   2.259  11.479  0.00  0.00    +0.000 NA
ATOM     18  C   UNL     1      43.940   1.961  10.436  0.00  0.00    +0.000 A 
ATOM     19  C   UNL     1      44.702   2.887   9.716  0.00  0.00    +0.000 A 
ATOM     20  C   UNL     1      44.603   4.222  10.153  0.00  0.00    +0.000 A 
BRANCH  19  21
ATOM     21  C   UNL     1      45.539   2.500   8.556  0.00  0.00    +0.000 A 
ATOM     22  C   UNL     1      46.049   1.191   8.428  0.00  0.00    +0.000 A 
ATOM     23  C   UNL     1      46.878   0.823   7.358  0.00  0.00    +0.000 A 
ATOM     24  C   UNL     1      47.205   1.755   6.378  0.00  0.00    +0.000 A 
ATOM     25  C   UNL     1      46.699   3.042   6.475  0.00  0.00    +0.000 A 
ATOM     26  F   UNL     1      47.009   3.939   5.528  0.00  0.00    +0.000 F 
ATOM     27  C   UNL     1      45.883   3.413   7.543  0.00  0.00    +0.000 A 
ATOM     28  F   UNL     1      45.447   4.682   7.592  0.00  0.00    +0.000 F 
ENDBRANCH  19  21
ENDBRANCH   1  15
TORSDOF 4
ENDMDL
MODEL 7
REMARK VINA RESULT:    -7.776      2.176      2.677
REMARK INTER + INTRA:         -10.412
REMARK INTER:                  -9.669
REMARK INTRA:                  -0.743
REMARK UNBOUND:                -0.817
REMARK  Name = 
REMARK  4 active torsions:
REMARK  status: ('A' for Active; 'I' for Inactive)
REMARK    1  A    between atoms: C_2  and  C_4
REMARK    2  A    between atoms: N_8  and  C_9
REMARK    3  A    between atoms: C_9  and  C_10
REMARK    4  A    between atoms: C_14  and  C_15
REMARK                            x       y       z     vdW  Elec       q    Type
REMARK                         _______ _______ _______ _____ _____    ______ ____
ROOT
ATOM      1  C   UNL     1      43.898   5.359  11.045  0.00  0.00    +0.000 C 
ENDROOT
BRANCH   1   6
ATOM      2  C   UNL     1      46.283   2.068   7.938  0.00  0.00    +0.000 A 
ATOM      3  C   UNL     1      45.570   1.807   9.103  0.00  0.00    +0.000 A 
ATOM      4  C   UNL     1      44.848   2.841   9.704  0.00  0.00    +0.000 A 
ATOM      5  C   UNL     1      44.867   4.116   9.148  0.00  0.00    +0.000 A 
ATOM      6  N   UNL     1      44.101   5.159   9.625  0.00  0.00    +0.000 N 
ATOM      7  N   UNL     1      45.573   4.384   8.033  0.00  0.00    +0.000 NA
ATOM      8  C   UNL     1      46.266   3.366   7.452  0.00  0.00    +0.000 A 
ATOM      9  H   UNL     1      44.353   5.998   9.106  0.00  0.00    +0.000 HD
BRANCH   2  11
ATOM     10  N   UNL     1      46.779  -0.277   7.520  0.00  0.00    +0.000 N 
ATOM     11  C   UNL     1      47.052   1.031   7.222  0.00  0.00    +0.000 C 
ATOM     12  O   UNL     1      47.882   1.328   6.370  0.00  0.00    +0.000 OA
ATOM     13  H   UNL     1      47.239  -0.973   6.947  0.00  0.00    +0.000 HD
ATOM     14  H   UNL     1      45.942  -0.559   8.010  0.00  0.00    +0.000 HD
ENDBRANCH   2  11
ENDBRANCH   1   6
BRANCH   1  15
ATOM     15  C   UNL     1      44.669   6.570  11.496  0.00  0.00    +0.000 A 
ATOM     16  C   UNL     1      44.128   7.844  11.348  0.00  0.00    +0.000 A 
ATOM     17  N   UNL     1      44.728   8.973  11.773  0.00  0.00    +0.000 NA
ATOM     18  C   UNL     1      45.929   8.831  12.386  0.00  0.00    +0.000 A 
ATOM     19  C   UNL     1      46.579   7.614  12.616  0.00  0.00    +0.000 A 
ATOM     20  C   UNL     1      45.907   6.471  12.144  0.00  0.00    +0.000 A 
BRANCH  19  21
ATOM     21  C   UNL     1      47.874   7.526  13.331  0.00  0.00    +0.000 A 
ATOM     22  C   UNL     1      47.950   7.018  14.645  0.00  0.00    +0.000 A 
ATOM     23  C   UNL     1      49.162   6.970  15.349  0.00  0.00    +0.000 A 
ATOM     24  C   UNL     1      50.334   7.416  14.748  0.00  0.00    +0.000 A 
ATOM     25  C   UNL     1      50.285   7.902  13.450  0.00  0.00    +0.000 A 
ATOM     26  F   UNL     1      51.416   8.328  12.868  0.00  0.00    +0.000 F 
ATOM     27  C   UNL     1      49.080   7.961  12.752  0.00  0.00    +0.000 A 
ATOM     28  F   UNL     1      49.095   8.467  11.508  0.00  0.00    +0.000 F 
ENDBRANCH  19  21
ENDBRANCH   1  15
TORSDOF 4
ENDMDL
MODEL 8
REMARK VINA RESULT:    -7.766      2.177      2.647
REMARK INTER + INTRA:         -10.399
REMARK INTER:                 -10.364
REMARK INTRA:                  -0.036
REMARK UNBOUND:                -0.817
REMARK  Name = 
REMARK  4 active torsions:
REMARK  status: ('A' for Active; 'I' for Inactive)
REMARK    1  A    between atoms: C_2  and  C_4
REMARK    2  A    between atoms: N_8  and  C_9
REMARK    3  A    between atoms: C_9  and  C_10
REMARK    4  A    between atoms: C_14  and  C_15
REMARK                            x       y       z     vdW  Elec       q    Type
REMARK                         _______ _______ _______ _____ _____    ______ ____
ROOT
ATOM      1  C   UNL     1      43.434   3.416  10.966  0.00  0.00    +0.000 C 
ENDROOT
BRANCH   1   6
ATOM      2  C   UNL     1      46.701   2.518   7.133  0.00  0.00    +0.000 A 
ATOM      3  C   UNL     1      46.168   3.729   7.558  0.00  0.00    +0.000 A 
ATOM      4  C   UNL     1      45.427   3.768   8.741  0.00  0.00    +0.000 A 
ATOM      5  C   UNL     1      45.214   2.600   9.467  0.00  0.00    +0.000 A 
ATOM      6  N   UNL     1      44.582   2.575  10.692  0.00  0.00    +0.000 N 
ATOM      7  N   UNL     1      45.707   1.418   9.051  0.00  0.00    +0.000 NA
ATOM      8  C   UNL     1      46.433   1.394   7.900  0.00  0.00    +0.000 A 
ATOM      9  H   UNL     1      44.478   1.603  10.974  0.00  0.00    +0.000 HD
BRANCH   2  11
ATOM     10  N   UNL     1      47.352   3.338   4.937  0.00  0.00    +0.000 N 
ATOM     11  C   UNL     1      47.518   2.389   5.909  0.00  0.00    +0.000 C 
ATOM     12  O   UNL     1      48.335   1.485   5.782  0.00  0.00    +0.000 OA
ATOM     13  H   UNL     1      47.992   3.294   4.154  0.00  0.00    +0.000 HD
ATOM     14  H   UNL     1      46.894   4.221   5.112  0.00  0.00    +0.000 HD
ENDBRANCH   2  11
ENDBRANCH   1   6
BRANCH   1  15
ATOM     15  C   UNL     1      43.891   4.831  11.193  0.00  0.00    +0.000 A 
ATOM     16  C   UNL     1      42.987   5.885  11.098  0.00  0.00    +0.000 A 
ATOM     17  N   UNL     1      43.303   7.173  11.339  0.00  0.00    +0.000 NA
ATOM     18  C   UNL     1      44.583   7.429  11.701  0.00  0.00    +0.000 A 
ATOM     19  C   UNL     1      45.588   6.468  11.851  0.00  0.00    +0.000 A 
ATOM     20  C   UNL     1      45.201   5.142  11.580  0.00  0.00    +0.000 A 
BRANCH  19  21
ATOM     21  C   UNL     1      46.961   6.812  12.291  0.00  0.00    +0.000 A 
ATOM     22  C   UNL     1      47.849   7.502  11.439  0.00  0.00    +0.000 A 
ATOM     23  C   UNL     1      49.164   7.795  11.827  0.00  0.00    +0.000 A 
ATOM     24  C   UNL     1      49.620   7.417  13.085  0.00  0.00    +0.000 A 
ATOM     25  C   UNL     1      48.758   6.754  13.945  0.00  0.00    +0.000 A 
ATOM     26  F   UNL     1      49.195   6.394  15.160  0.00  0.00    +0.000 F 
ATOM     27  C   UNL     1      47.453   6.452  13.559  0.00  0.00    +0.000 A 
ATOM     28  F   UNL     1      46.676   5.785  14.427  0.00  0.00    +0.000 F 
ENDBRANCH  19  21
ENDBRANCH   1  15
TORSDOF 4
ENDMDL
MODEL 9
REMARK VINA RESULT:    -7.626      3.855      7.107
REMARK INTER + INTRA:         -10.226
REMARK INTER:                  -9.436
REMARK INTRA:                  -0.790
REMARK UNBOUND:                -0.817
REMARK  Name = 
REMARK  4 active torsions:
REMARK  status: ('A' for Active; 'I' for Inactive)
REMARK    1  A    between atoms: C_2  and  C_4
REMARK    2  A    between atoms: N_8  and  C_9
REMARK    3  A    between atoms: C_9  and  C_10
REMARK    4  A    between atoms: C_14  and  C_15
REMARK                            x       y       z     vdW  Elec       q    Type
REMARK                         _______ _______ _______ _____ _____    ______ ____
ROOT
ATOM      1  C   UNL     1      45.258   4.925  13.198  0.00  0.00    +0.000 C 
ENDROOT
BRANCH   1   6
ATOM      2  C   UNL     1      47.967   9.090  11.980  0.00  0.00    +0.000 A 
ATOM      3  C   UNL     1      48.272   7.754  11.750  0.00  0.00    +0.000 A 
ATOM      4  C   UNL     1      47.305   6.781  12.009  0.00  0.00    +0.000 A 
ATOM      5  C   UNL     1      46.062   7.153  12.513  0.00  0.00    +0.000 A 
ATOM      6  N   UNL     1      45.024   6.264  12.698  0.00  0.00    +0.000 N 
ATOM      7  N   UNL     1      45.766   8.443  12.761  0.00  0.00    +0.000 NA
ATOM      8  C   UNL     1      46.715   9.383  12.497  0.00  0.00    +0.000 A 
ATOM      9  H   UNL     1      44.260   6.762  13.150  0.00  0.00    +0.000 HD
BRANCH   2  11
ATOM     10  N   UNL     1      48.597  11.072  10.718  0.00  0.00    +0.000 N 
ATOM     11  C   UNL     1      48.920  10.186  11.709  0.00  0.00    +0.000 C 
ATOM     12  O   UNL     1      49.945  10.316  12.369  0.00  0.00    +0.000 OA
ATOM     13  H   UNL     1      49.207  11.874  10.617  0.00  0.00    +0.000 HD
ATOM     14  H   UNL     1      47.663  11.151  10.342  0.00  0.00    +0.000 HD
ENDBRANCH   2  11
ENDBRANCH   1   6
BRANCH   1  15
ATOM     15  C   UNL     1      44.777   3.921  12.186  0.00  0.00    +0.000 A 
ATOM     16  C   UNL     1      43.570   3.254  12.376  0.00  0.00    +0.000 A 
ATOM     17  N   UNL     1      43.043   2.382  11.494  0.00  0.00    +0.000 NA
ATOM     18  C   UNL     1      43.748   2.164  10.357  0.00  0.00    +0.000 A 
ATOM     19  C   UNL     1      44.962   2.776  10.030  0.00  0.00    +0.000 A 
ATOM     20  C   UNL     1      45.466   3.671  10.992  0.00  0.00    +0.000 A 
BRANCH  19  21
ATOM     21  C   UNL     1      45.662   2.523   8.748  0.00  0.00    +0.000 A 
ATOM     22  C   UNL     1      46.152   1.240   8.424  0.00  0.00    +0.000 A 
ATOM     23  C   UNL     1      46.853   0.997   7.235  0.00  0.00    +0.000 A 
ATOM     24  C   UNL     1      47.070   2.032   6.331  0.00  0.00    +0.000 A 
ATOM     25  C   UNL     1      46.581   3.297   6.621  0.00  0.00    +0.000 A 
ATOM     26  F   UNL     1      46.786   4.293   5.747  0.00  0.00    +0.000 F 
ATOM     27  C   UNL     1      45.892   3.543   7.807  0.00  0.00    +0.000 A 
ATOM     28  F   UNL     1      45.468   4.795   8.042  0.00  0.00    +0.000 F 
ENDBRANCH  19  21
ENDBRANCH   1  15
TORSDOF 4
ENDMDL
