MODEL 1
REMARK VINA RESULT:    -9.667      0.000      0.000
REMARK INTER + INTRA:         -13.979
REMARK INTER:                 -13.058
REMARK INTRA:                  -0.920
REMARK UNBOUND:                -0.920
REMARK  Name = 
REMARK  6 active torsions:
REMARK  status: ('A' for Active; 'I' for Inactive)
REMARK    1  A    between atoms: C_2  and  C_21
REMARK    2  A    between atoms: N_3  and  C_4
REMARK    3  A    between atoms: C_4  and  C_5
REMARK    4  A    between atoms: C_8  and  C_9
REMARK    5  A    between atoms: C_9  and  N_10
REMARK    6  A    between atoms: C_11  and  C_13
REMARK                            x       y       z     vdW  Elec       q    Type
REMARK                         _______ _______ _______ _____ _____    ______ ____
ROOT
ATOM      1  C   UNL     1      46.077   4.820  13.220  0.00  0.00    +0.000 C 
ATOM      2  C   UNL     1      45.998   3.612  12.265  0.00  0.00    +0.000 C 
ATOM      3  C   UNL     1      44.577   3.098  12.035  0.00  0.00    +0.000 C 
ATOM      4  C   UNL     1      43.571   4.199  11.666  0.00  0.00    +0.000 C 
ATOM      5  C   UNL     1      43.631   5.327  12.710  0.00  0.00    +0.000 C 
ATOM      6  C   UNL     1      45.036   5.898  12.896  0.00  0.00    +0.000 C 
ENDROOT
BRANCH   1   7
ATOM      7  C   UNL     1      45.929   4.397  14.688  0.00  0.00    +0.000 C 
BRANCH   7  10
ATOM      8  O   UNL     1      46.601   3.301  17.203  0.00  0.00    +0.000 OA
ATOM      9  C   UNL     1      47.403   4.030  16.629  0.00  0.00    +0.000 C 
ATOM     10  N   UNL     1      47.141   4.622  15.423  0.00  0.00    +0.000 N 
ATOM     11  H   UNL     1      47.868   5.138  14.941  0.00  0.00    +0.000 HD
BRANCH   9  12
ATOM     12  C   UNL     1      48.698   4.367  17.211  0.00  0.00    +0.000 A 
ATOM     13  C   UNL     1      48.916   5.610  17.782  0.00  0.00    +0.000 A 
ATOM     14  S   UNL     1      50.500   5.800  18.392  0.00  0.00    +0.000 S 
ATOM     15  C   UNL     1      50.929   4.216  17.938  0.00  0.00    +0.000 A 
ATOM     16  N   UNL     1      52.171   3.718  18.186  0.00  0.00    +0.000 NA
ATOM     17  C   UNL     1      52.337   2.491  17.821  0.00  0.00    +0.000 A 
ATOM     18  N   UNL     1      51.381   1.715  17.227  0.00  0.00    +0.000 N 
ATOM     19  C   UNL     1      50.145   2.189  16.885  0.00  0.00    +0.000 A 
ATOM     20  O   UNL     1      49.370   1.509  16.231  0.00  0.00    +0.000 OA
ATOM     21  C   UNL     1      49.888   3.560  17.314  0.00  0.00    +0.000 A 
ATOM     22  H   UNL     1      51.586   0.774  16.924  0.00  0.00    +0.000 HD
ENDBRANCH   9  12
ENDBRANCH   7  10
ENDBRANCH   1   7
BRANCH   4  23
ATOM     23  C   UNL     1      43.755   4.755  10.238  0.00  0.00    +0.000 C 
BRANCH  23  24
ATOM     24  N   UNL     1      44.371   3.810   9.325  0.00  0.00    +0.000 N 
ATOM     25  C   UNL     1      45.454   4.130   8.531  0.00  0.00    +0.000 C 
ATOM     26  O   UNL     1      46.013   5.221   8.570  0.00  0.00    +0.000 OA
ATOM     27  H   UNL     1      44.102   2.840   9.400  0.00  0.00    +0.000 HD
BRANCH  25  28
ATOM     28  C   UNL     1      45.894   2.987   7.614  0.00  0.00    +0.000 C 
ATOM     29  C   UNL     1      46.101   1.692   8.410  0.00  0.00    +0.000 C 
ATOM     30  C   UNL     1      46.768   0.615   7.569  0.00  0.00    +0.000 C 
ATOM     31  O   UNL     1      47.993   1.095   7.019  0.00  0.00    +0.000 OA
ATOM     32  C   UNL     1      47.788   2.189   6.133  0.00  0.00    +0.000 C 
ATOM     33  C   UNL     1      47.179   3.374   6.867  0.00  0.00    +0.000 C 
ENDBRANCH  25  28
ENDBRANCH  23  24
ENDBRANCH   4  23
TORSDOF 6
ENDMDL
MODEL 2
REMARK VINA RESULT:    -9.022      1.219      1.867
REMARK INTER + INTRA:         -13.107
REMARK INTER:                 -12.204
REMARK INTRA:                  -0.902
REMARK UNBOUND:                -0.920
REMARK  Name = 
REMARK  6 active torsions:
REMARK  status: ('A' for Active; 'I' for Inactive)
REMARK    1  A    between atoms: C_2  and  C_21
REMARK    2  A    between atoms: N_3  and  C_4
REMARK    3  A    between atoms: C_4  and  C_5
REMARK    4  A    between atoms: C_8  and  C_9
REMARK    5  A    between atoms: C_9  and  N_10
REMARK    6  A    between atoms: C_11  and  C_13
REMARK                            x       y       z     vdW  Elec       q    Type
REMARK                         _______ _______ _______ _____ _____    ______ ____
ROOT
ATOM      1  C   UNL     1      46.086   4.637  13.150  0.00  0.00    +0.000 C 
ATOM      2  C   UNL     1      45.804   3.451  12.205  0.00  0.00    +0.000 C 
ATOM      3  C   UNL     1      44.319   3.127  12.046  0.00  0.00    +0.000 C 
ATOM      4  C   UNL     1      43.448   4.351  11.719  0.00  0.00    +0.000 C 
ATOM      5  C   UNL     1      43.704   5.459  12.755  0.00  0.00    +0.000 C 
ATOM      6  C   UNL     1      45.179   5.842  12.871  0.00  0.00    +0.000 C 
ENDROOT
BRANCH   1   7
ATOM      7  C   UNL     1      45.953   4.235  14.625  0.00  0.00    +0.000 C 
BRANCH   7  10
ATOM      8  O   UNL     1      46.446   3.256  17.229  0.00  0.00    +0.000 OA
ATOM      9  C   UNL     1      47.391   3.485  16.482  0.00  0.00    +0.000 C 
ATOM     10  N   UNL     1      47.237   3.988  15.218  0.00  0.00    +0.000 N 
ATOM     11  H   UNL     1      48.038   4.070  14.603  0.00  0.00    +0.000 HD
BRANCH   9  12
ATOM     12  C   UNL     1      48.775   3.283  16.899  0.00  0.00    +0.000 A 
ATOM     13  C   UNL     1      49.393   2.055  16.729  0.00  0.00    +0.000 A 
ATOM     14  S   UNL     1      51.004   2.031  17.295  0.00  0.00    +0.000 S 
ATOM     15  C   UNL     1      50.930   3.669  17.754  0.00  0.00    +0.000 A 
ATOM     16  N   UNL     1      52.001   4.299  18.308  0.00  0.00    +0.000 NA
ATOM     17  C   UNL     1      51.810   5.550  18.568  0.00  0.00    +0.000 A 
ATOM     18  N   UNL     1      50.647   6.229  18.330  0.00  0.00    +0.000 N 
ATOM     19  C   UNL     1      49.518   5.624  17.851  0.00  0.00    +0.000 A 
ATOM     20  O   UNL     1      48.460   6.231  17.785  0.00  0.00    +0.000 OA
ATOM     21  C   UNL     1      49.692   4.220  17.499  0.00  0.00    +0.000 A 
ATOM     22  H   UNL     1      50.543   7.196  18.598  0.00  0.00    +0.000 HD
ENDBRANCH   9  12
ENDBRANCH   7  10
ENDBRANCH   1   7
BRANCH   4  23
ATOM     23  C   UNL     1      43.635   4.880  10.282  0.00  0.00    +0.000 C 
BRANCH  23  24
ATOM     24  N   UNL     1      44.221   3.906   9.379  0.00  0.00    +0.000 N 
ATOM     25  C   UNL     1      45.340   4.168   8.615  0.00  0.00    +0.000 C 
ATOM     26  O   UNL     1      45.957   5.227   8.674  0.00  0.00    +0.000 OA
ATOM     27  H   UNL     1      43.896   2.952   9.442  0.00  0.00    +0.000 HD
BRANCH  25  28
ATOM     28  C   UNL     1      45.740   3.007   7.703  0.00  0.00    +0.000 C 
ATOM     29  C   UNL     1      46.043   1.745   8.520  0.00  0.00    +0.000 C 
ATOM     30  C   UNL     1      46.673   0.658   7.664  0.00  0.00    +0.000 C 
ATOM     31  O   UNL     1      47.838   1.149   7.005  0.00  0.00    +0.000 OA
ATOM     32  C   UNL     1      47.534   2.208   6.104  0.00  0.00    +0.000 C 
ATOM     33  C   UNL     1      46.951   3.401   6.845  0.00  0.00    +0.000 C 
ENDBRANCH  25  28
ENDBRANCH  23  24
ENDBRANCH   4  23
TORSDOF 6
ENDMDL
MODEL 3
REMARK VINA RESULT:    -8.640      2.067      2.676
REMARK INTER + INTRA:         -12.591
REMARK INTER:                 -11.430
REMARK INTRA:                  -1.162
REMARK UNBOUND:                -0.920
REMARK  Name = 
REMARK  6 active torsions:
REMARK  status: ('A' for Active; 'I' for Inactive)
REMARK    1  A    between atoms: C_2  and  C_21
REMARK    2  A    between atoms: N_3  and  C_4
REMARK    3  A    between atoms: C_4  and  C_5
REMARK    4  A    between atoms: C_8  and  C_9
REMARK    5  A    between atoms: C_9  and  N_10
REMARK    6  A    between atoms: C_11  and  C_13
REMARK                            x       y       z     vdW  Elec       q    Type
REMARK                         _______ _______ _______ _____ _____    ______ ____
ROOT
ATOM      1  C   UNL     1      46.093   4.512  12.915  0.00  0.00    +0.000 C 
ATOM      2  C   UNL     1      45.692   3.338  11.999  0.00  0.00    +0.000 C 
ATOM      3  C   UNL     1      44.184   3.106  11.915  0.00  0.00    +0.000 C 
ATOM      4  C   UNL     1      43.376   4.379  11.617  0.00  0.00    +0.000 C 
ATOM      5  C   UNL     1      43.750   5.478  12.625  0.00  0.00    +0.000 C 
ATOM      6  C   UNL     1      45.250   5.769  12.665  0.00  0.00    +0.000 C 
ENDROOT
BRANCH   1   7
ATOM      7  C   UNL     1      46.008   4.132  14.399  0.00  0.00    +0.000 C 
BRANCH   7  10
ATOM      8  O   UNL     1      48.188   3.324  16.004  0.00  0.00    +0.000 OA
ATOM      9  C   UNL     1      47.896   4.513  15.936  0.00  0.00    +0.000 C 
ATOM     10  N   UNL     1      46.838   4.981  15.206  0.00  0.00    +0.000 N 
ATOM     11  H   UNL     1      46.693   5.978  15.102  0.00  0.00    +0.000 HD
BRANCH   9  12
ATOM     12  C   UNL     1      48.633   5.533  16.675  0.00  0.00    +0.000 A 
ATOM     13  C   UNL     1      48.684   5.507  18.059  0.00  0.00    +0.000 A 
ATOM     14  S   UNL     1      49.587   6.797  18.722  0.00  0.00    +0.000 S 
ATOM     15  C   UNL     1      49.961   7.408  17.177  0.00  0.00    +0.000 A 
ATOM     16  N   UNL     1      50.732   8.518  17.020  0.00  0.00    +0.000 NA
ATOM     17  C   UNL     1      50.963   8.839  15.791  0.00  0.00    +0.000 A 
ATOM     18  N   UNL     1      50.493   8.157  14.703  0.00  0.00    +0.000 N 
ATOM     19  C   UNL     1      49.650   7.085  14.804  0.00  0.00    +0.000 A 
ATOM     20  O   UNL     1      49.139   6.591  13.811  0.00  0.00    +0.000 OA
ATOM     21  C   UNL     1      49.390   6.653  16.173  0.00  0.00    +0.000 A 
ATOM     22  H   UNL     1      50.671   8.484  13.765  0.00  0.00    +0.000 HD
ENDBRANCH   9  12
ENDBRANCH   7  10
ENDBRANCH   1   7
BRANCH   4  23
ATOM     23  C   UNL     1      43.524   4.883  10.166  0.00  0.00    +0.000 C 
BRANCH  23  24
ATOM     24  N   UNL     1      44.145   3.916   9.279  0.00  0.00    +0.000 N 
ATOM     25  C   UNL     1      45.303   4.179   8.574  0.00  0.00    +0.000 C 
ATOM     26  O   UNL     1      45.925   5.230   8.678  0.00  0.00    +0.000 OA
ATOM     27  H   UNL     1      43.810   2.964   9.313  0.00  0.00    +0.000 HD
BRANCH  25  28
ATOM     28  C   UNL     1      45.737   3.026   7.667  0.00  0.00    +0.000 C 
ATOM     29  C   UNL     1      46.050   1.768   8.487  0.00  0.00    +0.000 C 
ATOM     30  C   UNL     1      46.712   0.694   7.639  0.00  0.00    +0.000 C 
ATOM     31  O   UNL     1      47.878   1.207   6.999  0.00  0.00    +0.000 OA
ATOM     32  C   UNL     1      47.570   2.261   6.095  0.00  0.00    +0.000 C 
ATOM     33  C   UNL     1      46.954   3.442   6.828  0.00  0.00    +0.000 C 
ENDBRANCH  25  28
ENDBRANCH  23  24
ENDBRANCH   4  23
TORSDOF 6
ENDMDL
MODEL 4
REMARK VINA RESULT:    -8.470      2.224      2.900
REMARK INTER + INTRA:         -12.362
REMARK INTER:                 -11.455
REMARK INTRA:                  -0.907
REMARK UNBOUND:                -0.920
REMARK  Name = 
REMARK  6 active torsions:
REMARK  status: ('A' for Active; 'I' for Inactive)
REMARK    1  A    between atoms: C_2  and  C_21
REMARK    2  A    between atoms: N_3  and  C_4
REMARK    3  A    between atoms: C_4  and  C_5
REMARK    4  A    between atoms: C_8  and  C_9
REMARK    5  A    between atoms: C_9  and  N_10
REMARK    6  A    between atoms: C_11  and  C_13
REMARK                            x       y       z     vdW  Elec       q    Type
REMARK                         _______ _______ _______ _____ _____    ______ ____
ROOT
ATOM      1  C   UNL     1      46.277   4.804  12.943  0.00  0.00    +0.000 C 
ATOM      2  C   UNL     1      46.036   3.564  12.058  0.00  0.00    +0.000 C 
ATOM      3  C   UNL     1      44.588   3.072  12.064  0.00  0.00    +0.000 C 
ATOM      4  C   UNL     1      43.555   4.181  11.808  0.00  0.00    +0.000 C 
ATOM      5  C   UNL     1      43.789   5.344  12.787  0.00  0.00    +0.000 C 
ATOM      6  C   UNL     1      45.216   5.891  12.738  0.00  0.00    +0.000 C 
ENDROOT
BRANCH   1   7
ATOM      7  C   UNL     1      46.344   4.436  14.432  0.00  0.00    +0.000 C 
BRANCH   7  10
ATOM      8  O   UNL     1      48.364   3.838  16.314  0.00  0.00    +0.000 OA
ATOM      9  C   UNL     1      48.116   5.009  16.047  0.00  0.00    +0.000 C 
ATOM     10  N   UNL     1      47.134   5.381  15.170  0.00  0.00    +0.000 N 
ATOM     11  H   UNL     1      47.029   6.355  14.907  0.00  0.00    +0.000 HD
BRANCH   9  12
ATOM     12  C   UNL     1      48.824   6.115  16.684  0.00  0.00    +0.000 A 
ATOM     13  C   UNL     1      49.913   6.708  16.066  0.00  0.00    +0.000 A 
ATOM     14  S   UNL     1      50.600   7.972  16.987  0.00  0.00    +0.000 S 
ATOM     15  C   UNL     1      49.442   7.783  18.221  0.00  0.00    +0.000 A 
ATOM     16  N   UNL     1      49.447   8.577  19.326  0.00  0.00    +0.000 NA
ATOM     17  C   UNL     1      48.486   8.343  20.156  0.00  0.00    +0.000 A 
ATOM     18  N   UNL     1      47.522   7.387  19.988  0.00  0.00    +0.000 N 
ATOM     19  C   UNL     1      47.518   6.512  18.938  0.00  0.00    +0.000 A 
ATOM     20  O   UNL     1      46.725   5.584  18.895  0.00  0.00    +0.000 OA
ATOM     21  C   UNL     1      48.559   6.760  17.945  0.00  0.00    +0.000 A 
ATOM     22  H   UNL     1      46.822   7.222  20.695  0.00  0.00    +0.000 HD
ENDBRANCH   9  12
ENDBRANCH   7  10
ENDBRANCH   1   7
BRANCH   4  23
ATOM     23  C   UNL     1      43.531   4.682  10.348  0.00  0.00    +0.000 C 
BRANCH  23  24
ATOM     24  N   UNL     1      44.156   3.764   9.412  0.00  0.00    +0.000 N 
ATOM     25  C   UNL     1      45.246   4.109   8.638  0.00  0.00    +0.000 C 
ATOM     26  O   UNL     1      45.803   5.198   8.715  0.00  0.00    +0.000 OA
ATOM     27  H   UNL     1      43.887   2.792   9.456  0.00  0.00    +0.000 HD
BRANCH  25  28
ATOM     28  C   UNL     1      45.696   2.994   7.692  0.00  0.00    +0.000 C 
ATOM     29  C   UNL     1      46.076   1.730   8.472  0.00  0.00    +0.000 C 
ATOM     30  C   UNL     1      46.752   0.700   7.580  0.00  0.00    +0.000 C 
ATOM     31  O   UNL     1      47.881   1.270   6.922  0.00  0.00    +0.000 OA
ATOM     32  C   UNL     1      47.510   2.334   6.053  0.00  0.00    +0.000 C 
ATOM     33  C   UNL     1      46.874   3.474   6.832  0.00  0.00    +0.000 C 
ENDBRANCH  25  28
ENDBRANCH  23  24
ENDBRANCH   4  23
TORSDOF 6
ENDMDL
MODEL 5
REMARK VINA RESULT:    -8.138      2.128      2.627
REMARK INTER + INTRA:         -11.913
REMARK INTER:                 -11.132
REMARK INTRA:                  -0.780
REMARK UNBOUND:                -0.920
REMARK  Name = 
REMARK  6 active torsions:
REMARK  status: ('A' for Active; 'I' for Inactive)
REMARK    1  A    between atoms: C_2  and  C_21
REMARK    2  A    between atoms: N_3  and  C_4
REMARK    3  A    between atoms: C_4  and  C_5
REMARK    4  A    between atoms: C_8  and  C_9
REMARK    5  A    between atoms: C_9  and  N_10
REMARK    6  A    between atoms: C_11  and  C_13
REMARK                            x       y       z     vdW  Elec       q    Type
REMARK                         _______ _______ _______ _____ _____    ______ ____
ROOT
ATOM      1  C   UNL     1      46.503   5.497  12.406  0.00  0.00    +0.000 C 
ATOM      2  C   UNL     1      45.324   5.018  13.278  0.00  0.00    +0.000 C 
ATOM      3  C   UNL     1      44.062   5.867  13.130  0.00  0.00    +0.000 C 
ATOM      4  C   UNL     1      43.645   6.111  11.671  0.00  0.00    +0.000 C 
ATOM      5  C   UNL     1      44.836   6.680  10.880  0.00  0.00    +0.000 C 
ATOM      6  C   UNL     1      46.084   5.801  10.963  0.00  0.00    +0.000 C 
ENDROOT
BRANCH   1   7
ATOM      7  C   UNL     1      47.190   6.732  13.005  0.00  0.00    +0.000 C 
BRANCH   7  10
ATOM      8  O   UNL     1      49.775   6.969  14.119  0.00  0.00    +0.000 OA
ATOM      9  C   UNL     1      48.830   6.678  14.844  0.00  0.00    +0.000 C 
ATOM     10  N   UNL     1      47.554   6.515  14.376  0.00  0.00    +0.000 N 
ATOM     11  H   UNL     1      46.790   6.369  15.025  0.00  0.00    +0.000 HD
BRANCH   9  12
ATOM     12  C   UNL     1      48.997   6.432  16.272  0.00  0.00    +0.000 A 
ATOM     13  C   UNL     1      49.500   7.417  17.107  0.00  0.00    +0.000 A 
ATOM     14  S   UNL     1      49.626   6.918  18.735  0.00  0.00    +0.000 S 
ATOM     15  C   UNL     1      48.983   5.383  18.376  0.00  0.00    +0.000 A 
ATOM     16  N   UNL     1      48.804   4.445  19.346  0.00  0.00    +0.000 NA
ATOM     17  C   UNL     1      48.271   3.344  18.932  0.00  0.00    +0.000 A 
ATOM     18  N   UNL     1      47.903   3.090  17.639  0.00  0.00    +0.000 N 
ATOM     19  C   UNL     1      48.134   3.966  16.615  0.00  0.00    +0.000 A 
ATOM     20  O   UNL     1      47.921   3.648  15.456  0.00  0.00    +0.000 OA
ATOM     21  C   UNL     1      48.696   5.246  17.034  0.00  0.00    +0.000 A 
ATOM     22  H   UNL     1      47.532   2.192  17.369  0.00  0.00    +0.000 HD
ENDBRANCH   9  12
ENDBRANCH   7  10
ENDBRANCH   1   7
BRANCH   4  23
ATOM     23  C   UNL     1      43.062   4.863  10.975  0.00  0.00    +0.000 C 
BRANCH  23  24
ATOM     24  N   UNL     1      43.829   4.436   9.818  0.00  0.00    +0.000 N 
ATOM     25  C   UNL     1      44.159   3.117   9.582  0.00  0.00    +0.000 C 
ATOM     26  O   UNL     1      43.790   2.196  10.303  0.00  0.00    +0.000 OA
ATOM     27  H   UNL     1      43.977   5.107   9.078  0.00  0.00    +0.000 HD
BRANCH  25  28
ATOM     28  C   UNL     1      45.013   2.919   8.329  0.00  0.00    +0.000 C 
ATOM     29  C   UNL     1      45.895   1.670   8.456  0.00  0.00    +0.000 C 
ATOM     30  C   UNL     1      46.921   1.589   7.337  0.00  0.00    +0.000 C 
ATOM     31  O   UNL     1      47.703   2.780   7.286  0.00  0.00    +0.000 OA
ATOM     32  C   UNL     1      46.912   3.925   6.988  0.00  0.00    +0.000 C 
ATOM     33  C   UNL     1      45.874   4.164   8.073  0.00  0.00    +0.000 C 
ENDBRANCH  25  28
ENDBRANCH  23  24
ENDBRANCH   4  23
TORSDOF 6
ENDMDL
MODEL 6
REMARK VINA RESULT:    -7.701      4.735      5.324
REMARK INTER + INTRA:         -11.323
REMARK INTER:                 -10.519
REMARK INTRA:                  -0.804
REMARK UNBOUND:                -0.920
REMARK  Name = 
REMARK  6 active torsions:
REMARK  status: ('A' for Active; 'I' for Inactive)
REMARK    1  A    between atoms: C_2  and  C_21
REMARK    2  A    between atoms: N_3  and  C_4
REMARK    3  A    between atoms: C_4  and  C_5
REMARK    4  A    between atoms: C_8  and  C_9
REMARK    5  A    between atoms: C_9  and  N_10
REMARK    6  A    between atoms: C_11  and  C_13
REMARK                            x       y       z     vdW  Elec       q    Type
REMARK                         _______ _______ _______ _____ _____    ______ ____
ROOT
ATOM      1  C   UNL     1      44.971   6.445  11.677  0.00  0.00    +0.000 C 
ATOM      2  C   UNL     1      45.773   5.131  11.770  0.00  0.00    +0.000 C 
ATOM      3  C   UNL     1      45.173   4.106  12.732  0.00  0.00    +0.000 C 
ATOM      4  C   UNL     1      43.671   3.858  12.517  0.00  0.00    +0.000 C 
ATOM      5  C   UNL     1      42.917   5.199  12.533  0.00  0.00    +0.000 C 
ATOM      6  C   UNL     1      43.464   6.206  11.523  0.00  0.00    +0.000 C 
ENDROOT
BRANCH   1   7
ATOM      7  C   UNL     1      45.219   7.350  12.892  0.00  0.00    +0.000 C 
BRANCH   7  10
ATOM      8  O   UNL     1      45.667   9.978  11.956  0.00  0.00    +0.000 OA
ATOM      9  C   UNL     1      46.614   9.310  12.355  0.00  0.00    +0.000 C 
ATOM     10  N   UNL     1      46.485   8.021  12.795  0.00  0.00    +0.000 N 
ATOM     11  H   UNL     1      47.278   7.541  13.205  0.00  0.00    +0.000 HD
BRANCH   9  12
ATOM     12  C   UNL     1      47.980   9.823  12.349  0.00  0.00    +0.000 A 
ATOM     13  C   UNL     1      48.254  11.113  12.774  0.00  0.00    +0.000 A 
ATOM     14  S   UNL     1      49.911  11.516  12.674  0.00  0.00    +0.000 S 
ATOM     15  C   UNL     1      50.312   9.967  12.091  0.00  0.00    +0.000 A 
ATOM     16  N   UNL     1      51.599   9.629  11.806  0.00  0.00    +0.000 NA
ATOM     17  C   UNL     1      51.756   8.410  11.410  0.00  0.00    +0.000 A 
ATOM     18  N   UNL     1      50.747   7.498  11.268  0.00  0.00    +0.000 N 
ATOM     19  C   UNL     1      49.430   7.809  11.464  0.00  0.00    +0.000 A 
ATOM     20  O   UNL     1      48.548   7.010  11.192  0.00  0.00    +0.000 OA
ATOM     21  C   UNL     1      49.200   9.164  11.955  0.00  0.00    +0.000 A 
ATOM     22  H   UNL     1      50.927   6.571  10.911  0.00  0.00    +0.000 HD
ENDBRANCH   9  12
ENDBRANCH   7  10
ENDBRANCH   1   7
BRANCH   4  23
ATOM     23  C   UNL     1      43.352   3.058  11.237  0.00  0.00    +0.000 C 
BRANCH  23  24
ATOM     24  N   UNL     1      44.533   2.669  10.488  0.00  0.00    +0.000 N 
ATOM     25  C   UNL     1      44.837   3.185   9.244  0.00  0.00    +0.000 C 
ATOM     26  O   UNL     1      44.159   4.047   8.694  0.00  0.00    +0.000 OA
ATOM     27  H   UNL     1      45.240   2.133  10.970  0.00  0.00    +0.000 HD
BRANCH  25  28
ATOM     28  C   UNL     1      46.104   2.587   8.630  0.00  0.00    +0.000 C 
ATOM     29  C   UNL     1      46.529   3.365   7.379  0.00  0.00    +0.000 C 
ATOM     30  C   UNL     1      47.635   2.649   6.620  0.00  0.00    +0.000 C 
ATOM     31  O   UNL     1      47.243   1.316   6.301  0.00  0.00    +0.000 OA
ATOM     32  C   UNL     1      47.020   0.532   7.467  0.00  0.00    +0.000 C 
ATOM     33  C   UNL     1      45.881   1.105   8.296  0.00  0.00    +0.000 C 
ENDBRANCH  25  28
ENDBRANCH  23  24
ENDBRANCH   4  23
TORSDOF 6
ENDMDL
MODEL 7
REMARK VINA RESULT:    -7.637      2.552      3.477
REMARK INTER + INTRA:         -11.236
REMARK INTER:                 -10.863
REMARK INTRA:                  -0.373
REMARK UNBOUND:                -0.920
REMARK  Name = 
REMARK  6 active torsions:
REMARK  status: ('A' for Active; 'I' for Inactive)
REMARK    1  A    between atoms: C_2  and  C_21
REMARK    2  A    between atoms: N_3  and  C_4
REMARK    3  A    between atoms: C_4  and  C_5
REMARK    4  A    between atoms: C_8  and  C_9
REMARK    5  A    between atoms: C_9  and  N_10
REMARK    6  A    between atoms: C_11  and  C_13
REMARK                            x       y       z     vdW  Elec       q    Type
REMARK                         _______ _______ _______ _____ _____    ______ ____
ROOT
ATOM      1  C   UNL     1      46.734   5.530  12.452  0.00  0.00    +0.000 C 
ATOM      2  C   UNL     1      45.548   4.769  13.080  0.00  0.00    +0.000 C 
ATOM      3  C   UNL     1      44.252   5.579  13.130  0.00  0.00    +0.000 C 
ATOM      4  C   UNL     1      43.879   6.237  11.792  0.00  0.00    +0.000 C 
ATOM      5  C   UNL     1      45.070   7.059  11.270  0.00  0.00    +0.000 C 
ATOM      6  C   UNL     1      46.355   6.240  11.147  0.00  0.00    +0.000 C 
ENDROOT
BRANCH   1   7
ATOM      7  C   UNL     1      47.338   6.549  13.427  0.00  0.00    +0.000 C 
BRANCH   7  10
ATOM      8  O   UNL     1      49.618   6.655  15.090  0.00  0.00    +0.000 OA
ATOM      9  C   UNL     1      48.596   6.120  15.502  0.00  0.00    +0.000 C 
ATOM     10  N   UNL     1      47.460   6.002  14.748  0.00  0.00    +0.000 N 
ATOM     11  H   UNL     1      46.609   5.638  15.163  0.00  0.00    +0.000 HD
BRANCH   9  12
ATOM     12  C   UNL     1      48.519   5.516  16.829  0.00  0.00    +0.000 A 
ATOM     13  C   UNL     1      48.633   4.144  16.990  0.00  0.00    +0.000 A 
ATOM     14  S   UNL     1      48.502   3.647  18.619  0.00  0.00    +0.000 S 
ATOM     15  C   UNL     1      48.322   5.253  19.157  0.00  0.00    +0.000 A 
ATOM     16  N   UNL     1      48.174   5.546  20.477  0.00  0.00    +0.000 NA
ATOM     17  C   UNL     1      48.088   6.807  20.738  0.00  0.00    +0.000 A 
ATOM     18  N   UNL     1      48.130   7.804  19.802  0.00  0.00    +0.000 N 
ATOM     19  C   UNL     1      48.196   7.560  18.459  0.00  0.00    +0.000 A 
ATOM     20  O   UNL     1      48.090   8.469  17.649  0.00  0.00    +0.000 OA
ATOM     21  C   UNL     1      48.340   6.151  18.110  0.00  0.00    +0.000 A 
ATOM     22  H   UNL     1      48.012   8.771  20.064  0.00  0.00    +0.000 HD
ENDBRANCH   9  12
ENDBRANCH   7  10
ENDBRANCH   1   7
BRANCH   4  23
ATOM     23  C   UNL     1      43.384   5.238  10.726  0.00  0.00    +0.000 C 
BRANCH  23  24
ATOM     24  N   UNL     1      44.452   4.679   9.917  0.00  0.00    +0.000 N 
ATOM     25  C   UNL     1      44.619   3.322   9.729  0.00  0.00    +0.000 C 
ATOM     26  O   UNL     1      43.852   2.483  10.189  0.00  0.00    +0.000 OA
ATOM     27  H   UNL     1      44.984   5.313   9.338  0.00  0.00    +0.000 HD
BRANCH  25  28
ATOM     28  C   UNL     1      45.843   2.972   8.881  0.00  0.00    +0.000 C 
ATOM     29  C   UNL     1      45.904   3.842   7.619  0.00  0.00    +0.000 C 
ATOM     30  C   UNL     1      46.966   3.350   6.648  0.00  0.00    +0.000 C 
ATOM     31  O   UNL     1      46.758   1.977   6.329  0.00  0.00    +0.000 OA
ATOM     32  C   UNL     1      46.879   1.139   7.473  0.00  0.00    +0.000 C 
ATOM     33  C   UNL     1      45.822   1.482   8.511  0.00  0.00    +0.000 C 
ENDBRANCH  25  28
ENDBRANCH  23  24
ENDBRANCH   4  23
TORSDOF 6
ENDMDL
MODEL 8
REMARK VINA RESULT:    -7.349      3.762      4.699
REMARK INTER + INTRA:         -10.846
REMARK INTER:                 -10.248
REMARK INTRA:                  -0.598
REMARK UNBOUND:                -0.920
REMARK  Name = 
REMARK  6 active torsions:
REMARK  status: ('A' for Active; 'I' for Inactive)
REMARK    1  A    between atoms: C_2  and  C_21
REMARK    2  A    between atoms: N_3  and  C_4
REMARK    3  A    between atoms: C_4  and  C_5
REMARK    4  A    between atoms: C_8  and  C_9
REMARK    5  A    between atoms: C_9  and  N_10
REMARK    6  A    between atoms: C_11  and  C_13
REMARK                            x       y       z     vdW  Elec       q    Type
REMARK                         _______ _______ _______ _____ _____    ______ ____
ROOT
ATOM      1  C   UNL     1      44.982   6.465  11.470  0.00  0.00    +0.000 C 
ATOM      2  C   UNL     1      45.861   5.198  11.501  0.00  0.00    +0.000 C 
ATOM      3  C   UNL     1      45.424   4.168  12.542  0.00  0.00    +0.000 C 
ATOM      4  C   UNL     1      43.924   3.836  12.496  0.00  0.00    +0.000 C 
ATOM      5  C   UNL     1      43.104   5.136  12.568  0.00  0.00    +0.000 C 
ATOM      6  C   UNL     1      43.483   6.144  11.485  0.00  0.00    +0.000 C 
ENDROOT
BRANCH   1   7
ATOM      7  C   UNL     1      45.310   7.413  12.632  0.00  0.00    +0.000 C 
BRANCH   7  10
ATOM      8  O   UNL     1      46.320  10.023  12.251  0.00  0.00    +0.000 OA
ATOM      9  C   UNL     1      47.099   9.098  12.453  0.00  0.00    +0.000 C 
ATOM     10  N   UNL     1      46.691   7.802  12.617  0.00  0.00    +0.000 N 
ATOM     11  H   UNL     1      47.361   7.087  12.877  0.00  0.00    +0.000 HD
BRANCH   9  12
ATOM     12  C   UNL     1      48.545   9.297  12.488  0.00  0.00    +0.000 A 
ATOM     13  C   UNL     1      49.169  10.118  11.563  0.00  0.00    +0.000 A 
ATOM     14  S   UNL     1      50.862  10.201  11.776  0.00  0.00    +0.000 S 
ATOM     15  C   UNL     1      50.803   9.169  13.128  0.00  0.00    +0.000 A 
ATOM     16  N   UNL     1      51.930   8.830  13.812  0.00  0.00    +0.000 NA
ATOM     17  C   UNL     1      51.726   8.073  14.837  0.00  0.00    +0.000 A 
ATOM     18  N   UNL     1      50.501   7.618  15.242  0.00  0.00    +0.000 N 
ATOM     19  C   UNL     1      49.350   7.863  14.547  0.00  0.00    +0.000 A 
ATOM     20  O   UNL     1      48.300   7.324  14.860  0.00  0.00    +0.000 OA
ATOM     21  C   UNL     1      49.517   8.751  13.402  0.00  0.00    +0.000 A 
ATOM     22  H   UNL     1      50.411   6.991  16.028  0.00  0.00    +0.000 HD
ENDBRANCH   9  12
ENDBRANCH   7  10
ENDBRANCH   1   7
BRANCH   4  23
ATOM     23  C   UNL     1      43.513   2.988  11.275  0.00  0.00    +0.000 C 
BRANCH  23  24
ATOM     24  N   UNL     1      44.623   2.661  10.398  0.00  0.00    +0.000 N 
ATOM     25  C   UNL     1      44.802   3.250   9.162  0.00  0.00    +0.000 C 
ATOM     26  O   UNL     1      44.066   4.130   8.728  0.00  0.00    +0.000 OA
ATOM     27  H   UNL     1      45.377   2.110  10.781  0.00  0.00    +0.000 HD
BRANCH  25  28
ATOM     28  C   UNL     1      46.012   2.708   8.401  0.00  0.00    +0.000 C 
ATOM     29  C   UNL     1      46.080   3.296   6.986  0.00  0.00    +0.000 C 
ATOM     30  C   UNL     1      47.126   2.592   6.134  0.00  0.00    +0.000 C 
ATOM     31  O   UNL     1      46.889   1.187   6.107  0.00  0.00    +0.000 OA
ATOM     32  C   UNL     1      47.003   0.602   7.399  0.00  0.00    +0.000 C 
ATOM     33  C   UNL     1      45.960   1.174   8.347  0.00  0.00    +0.000 C 
ENDBRANCH  25  28
ENDBRANCH  23  24
ENDBRANCH   4  23
TORSDOF 6
ENDMDL
MODEL 9
REMARK VINA RESULT:    -7.169      3.429      8.836
REMARK INTER + INTRA:         -10.604
REMARK INTER:                  -9.440
REMARK INTRA:                  -1.163
REMARK UNBOUND:                -0.920
REMARK  Name = 
REMARK  6 active torsions:
REMARK  status: ('A' for Active; 'I' for Inactive)
REMARK    1  A    between atoms: C_2  and  C_21
REMARK    2  A    between atoms: N_3  and  C_4
REMARK    3  A    between atoms: C_4  and  C_5
REMARK    4  A    between atoms: C_8  and  C_9
REMARK    5  A    between atoms: C_9  and  N_10
REMARK    6  A    between atoms: C_11  and  C_13
REMARK                            x       y       z     vdW  Elec       q    Type
REMARK                         _______ _______ _______ _____ _____    ______ ____
ROOT
ATOM      1  C   UNL     1      46.850   8.387  13.133  0.00  0.00    +0.000 C 
ATOM      2  C   UNL     1      47.482   7.060  13.600  0.00  0.00    +0.000 C 
ATOM      3  C   UNL     1      48.757   6.684  12.845  0.00  0.00    +0.000 C 
ATOM      4  C   UNL     1      49.787   7.822  12.760  0.00  0.00    +0.000 C 
ATOM      5  C   UNL     1      49.116   9.086  12.196  0.00  0.00    +0.000 C 
ATOM      6  C   UNL     1      47.880   9.513  12.988  0.00  0.00    +0.000 C 
ENDROOT
BRANCH   1   7
ATOM      7  C   UNL     1      46.089   8.221  11.811  0.00  0.00    +0.000 C 
BRANCH   7  10
ATOM      8  O   UNL     1      43.476   7.270  11.318  0.00  0.00    +0.000 OA
ATOM      9  C   UNL     1      44.412   6.479  11.336  0.00  0.00    +0.000 C 
ATOM     10  N   UNL     1      45.701   6.856  11.597  0.00  0.00    +0.000 N 
ATOM     11  H   UNL     1      46.455   6.185  11.507  0.00  0.00    +0.000 HD
BRANCH   9  12
ATOM     12  C   UNL     1      44.220   5.047  11.126  0.00  0.00    +0.000 A 
ATOM     13  C   UNL     1      43.434   4.303  11.991  0.00  0.00    +0.000 A 
ATOM     14  S   UNL     1      43.354   2.650  11.570  0.00  0.00    +0.000 S 
ATOM     15  C   UNL     1      44.340   2.888  10.203  0.00  0.00    +0.000 A 
ATOM     16  N   UNL     1      44.662   1.859   9.373  0.00  0.00    +0.000 NA
ATOM     17  C   UNL     1      45.384   2.198   8.357  0.00  0.00    +0.000 A 
ATOM     18  N   UNL     1      45.818   3.468   8.095  0.00  0.00    +0.000 N 
ATOM     19  C   UNL     1      45.590   4.521   8.938  0.00  0.00    +0.000 A 
ATOM     20  O   UNL     1      46.112   5.608   8.741  0.00  0.00    +0.000 OA
ATOM     21  C   UNL     1      44.741   4.202  10.081  0.00  0.00    +0.000 A 
ATOM     22  H   UNL     1      46.418   3.663   7.308  0.00  0.00    +0.000 HD
ENDBRANCH   9  12
ENDBRANCH   7  10
ENDBRANCH   1   7
BRANCH   4  23
ATOM     23  C   UNL     1      50.495   8.121  14.098  0.00  0.00    +0.000 C 
BRANCH  23  24
ATOM     24  N   UNL     1      50.412   7.029  15.052  0.00  0.00    +0.000 N 
ATOM     25  C   UNL     1      49.885   7.178  16.319  0.00  0.00    +0.000 C 
ATOM     26  O   UNL     1      49.401   8.230  16.723  0.00  0.00    +0.000 OA
ATOM     27  H   UNL     1      50.590   6.095  14.713  0.00  0.00    +0.000 HD
BRANCH  25  28
ATOM     28  C   UNL     1      49.951   5.901  17.159  0.00  0.00    +0.000 C 
ATOM     29  C   UNL     1      51.339   5.253  17.066  0.00  0.00    +0.000 C 
ATOM     30  C   UNL     1      51.355   3.866  17.690  0.00  0.00    +0.000 C 
ATOM     31  O   UNL     1      50.350   3.041  17.105  0.00  0.00    +0.000 OA
ATOM     32  C   UNL     1      49.041   3.545  17.344  0.00  0.00    +0.000 C 
ATOM     33  C   UNL     1      48.863   4.915  16.710  0.00  0.00    +0.000 C 
ENDBRANCH  25  28
ENDBRANCH  23  24
ENDBRANCH   4  23
TORSDOF 6
ENDMDL
