MODEL 1
REMARK VINA RESULT:    -9.055      0.000      0.000
REMARK INTER + INTRA:         -12.423
REMARK INTER:                 -12.231
REMARK INTRA:                  -0.192
REMARK UNBOUND:                -0.192
REMARK  Name = 
REMARK  7 active torsions:
REMARK  status: ('A' for Active; 'I' for Inactive)
REMARK    1  A    between atoms: C_1  and  C_2
REMARK    2  A    between atoms: C_2  and  N_3
REMARK    3  A    between atoms: C_2  and  C_16
REMARK    4  A    between atoms: C_4  and  C_6
REMARK    5  A    between atoms: C_19  and  O_20
REMARK    6  A    between atoms: O_20  and  C_21
REMARK    7  A    between atoms: C_21  and  C_22
REMARK                            x       y       z     vdW  Elec       q    Type
REMARK                         _______ _______ _______ _____ _____    ______ ____
ROOT
ATOM      1  C   UNL     1      47.824   8.695  12.289  0.00  0.00    +0.000 C 
ATOM      2  C   UNL     1      46.733   8.005  13.111  0.00  0.00    +0.000 C 
ENDROOT
BRANCH   2   3
ATOM      3  C   UNL     1      46.061   6.905  12.297  0.00  0.00    +0.000 A 
ATOM      4  N   UNL     1      46.459   6.719  11.021  0.00  0.00    +0.000 NA
ATOM      5  C   UNL     1      45.852   5.721  10.341  0.00  0.00    +0.000 A 
ATOM      6  C   UNL     1      44.887   4.899  10.879  0.00  0.00    +0.000 A 
ATOM      7  C   UNL     1      44.504   5.224  12.161  0.00  0.00    +0.000 A 
ATOM      8  N   UNL     1      45.062   6.213  12.884  0.00  0.00    +0.000 NA
BRANCH   6   9
ATOM      9  O   UNL     1      44.412   3.871  10.129  0.00  0.00    +0.000 OA
BRANCH   9  10
ATOM     10  C   UNL     1      44.495   4.084   8.712  0.00  0.00    +0.000 C 
BRANCH  10  11
ATOM     11  C   UNL     1      45.518   3.168   8.098  0.00  0.00    +0.000 A 
ATOM     12  C   UNL     1      46.546   3.643   7.274  0.00  0.00    +0.000 A 
ATOM     13  C   UNL     1      47.520   2.772   6.782  0.00  0.00    +0.000 A 
ATOM     14  C   UNL     1      47.486   1.420   7.124  0.00  0.00    +0.000 A 
ATOM     15  C   UNL     1      46.479   0.939   7.957  0.00  0.00    +0.000 A 
ATOM     16  C   UNL     1      45.510   1.813   8.439  0.00  0.00    +0.000 A 
ATOM     17  F   UNL     1      44.562   1.339   9.261  0.00  0.00    +0.000 F 
ENDBRANCH  10  11
ENDBRANCH   9  10
ENDBRANCH   6   9
ENDBRANCH   2   3
BRANCH   2  18
ATOM     18  N   UNL     1      47.285   7.457  14.343  0.00  0.00    +0.000 N 
ATOM     19  C   UNL     1      48.376   6.637  14.367  0.00  0.00    +0.000 C 
ATOM     20  O   UNL     1      48.940   6.263  13.341  0.00  0.00    +0.000 OA
ATOM     21  H   UNL     1      46.750   7.630  15.188  0.00  0.00    +0.000 HD
BRANCH  19  22
ATOM     22  C   UNL     1      48.888   6.274  15.696  0.00  0.00    +0.000 A 
ATOM     23  C   UNL     1      49.881   7.047  16.283  0.00  0.00    +0.000 A 
ATOM     24  S   UNL     1      50.338   6.511  17.834  0.00  0.00    +0.000 S 
ATOM     25  C   UNL     1      49.259   5.198  17.758  0.00  0.00    +0.000 A 
ATOM     26  N   UNL     1      49.177   4.300  18.777  0.00  0.00    +0.000 NA
ATOM     27  C   UNL     1      48.344   3.335  18.572  0.00  0.00    +0.000 A 
ATOM     28  N   UNL     1      47.577   3.193  17.445  0.00  0.00    +0.000 N 
ATOM     29  C   UNL     1      47.587   4.102  16.415  0.00  0.00    +0.000 A 
ATOM     30  O   UNL     1      46.821   3.994  15.464  0.00  0.00    +0.000 OA
ATOM     31  C   UNL     1      48.536   5.188  16.578  0.00  0.00    +0.000 A 
ATOM     32  H   UNL     1      46.927   2.426  17.356  0.00  0.00    +0.000 HD
ENDBRANCH  19  22
ENDBRANCH   2  18
TORSDOF 6
ENDMDL
MODEL 2
REMARK VINA RESULT:    -8.557      1.954      2.251
REMARK INTER + INTRA:         -11.751
REMARK INTER:                 -11.609
REMARK INTRA:                  -0.142
REMARK UNBOUND:                -0.192
REMARK  Name = 
REMARK  7 active torsions:
REMARK  status: ('A' for Active; 'I' for Inactive)
REMARK    1  A    between atoms: C_1  and  C_2
REMARK    2  A    between atoms: C_2  and  N_3
REMARK    3  A    between atoms: C_2  and  C_16
REMARK    4  A    between atoms: C_4  and  C_6
REMARK    5  A    between atoms: C_19  and  O_20
REMARK    6  A    between atoms: O_20  and  C_21
REMARK    7  A    between atoms: C_21  and  C_22
REMARK                            x       y       z     vdW  Elec       q    Type
REMARK                         _______ _______ _______ _____ _____    ______ ____
ROOT
ATOM      1  C   UNL     1      48.973   6.963  12.807  0.00  0.00    +0.000 C 
ATOM      2  C   UNL     1      47.631   6.745  13.510  0.00  0.00    +0.000 C 
ENDROOT
BRANCH   2   3
ATOM      3  C   UNL     1      46.682   5.948  12.622  0.00  0.00    +0.000 A 
ATOM      4  N   UNL     1      46.333   6.470  11.428  0.00  0.00    +0.000 NA
ATOM      5  C   UNL     1      45.506   5.722  10.663  0.00  0.00    +0.000 A 
ATOM      6  C   UNL     1      45.033   4.481  11.028  0.00  0.00    +0.000 A 
ATOM      7  C   UNL     1      45.391   4.079  12.295  0.00  0.00    +0.000 A 
ATOM      8  N   UNL     1      46.200   4.784  13.107  0.00  0.00    +0.000 NA
BRANCH   6   9
ATOM      9  O   UNL     1      44.281   3.782  10.139  0.00  0.00    +0.000 OA
BRANCH   9  10
ATOM     10  C   UNL     1      44.508   4.132   8.767  0.00  0.00    +0.000 C 
BRANCH  10  11
ATOM     11  C   UNL     1      45.518   3.207   8.144  0.00  0.00    +0.000 A 
ATOM     12  C   UNL     1      46.573   3.677   7.353  0.00  0.00    +0.000 A 
ATOM     13  C   UNL     1      47.533   2.795   6.854  0.00  0.00    +0.000 A 
ATOM     14  C   UNL     1      47.458   1.435   7.157  0.00  0.00    +0.000 A 
ATOM     15  C   UNL     1      46.423   0.957   7.957  0.00  0.00    +0.000 A 
ATOM     16  C   UNL     1      45.468   1.843   8.447  0.00  0.00    +0.000 A 
ATOM     17  F   UNL     1      44.493   1.371   9.238  0.00  0.00    +0.000 F 
ENDBRANCH  10  11
ENDBRANCH   9  10
ENDBRANCH   6   9
ENDBRANCH   2   3
BRANCH   2  18
ATOM     18  N   UNL     1      47.821   6.067  14.785  0.00  0.00    +0.000 N 
ATOM     19  C   UNL     1      48.579   6.586  15.795  0.00  0.00    +0.000 C 
ATOM     20  O   UNL     1      49.196   7.642  15.678  0.00  0.00    +0.000 OA
ATOM     21  H   UNL     1      47.445   5.127  14.852  0.00  0.00    +0.000 HD
BRANCH  19  22
ATOM     22  C   UNL     1      48.566   5.845  17.064  0.00  0.00    +0.000 A 
ATOM     23  C   UNL     1      48.912   4.501  17.076  0.00  0.00    +0.000 A 
ATOM     24  S   UNL     1      48.878   3.800  18.629  0.00  0.00    +0.000 S 
ATOM     25  C   UNL     1      48.354   5.257  19.335  0.00  0.00    +0.000 A 
ATOM     26  N   UNL     1      48.095   5.334  20.668  0.00  0.00    +0.000 NA
ATOM     27  C   UNL     1      47.671   6.488  21.063  0.00  0.00    +0.000 A 
ATOM     28  N   UNL     1      47.494   7.576  20.247  0.00  0.00    +0.000 N 
ATOM     29  C   UNL     1      47.795   7.559  18.907  0.00  0.00    +0.000 A 
ATOM     30  O   UNL     1      47.713   8.575  18.225  0.00  0.00    +0.000 OA
ATOM     31  C   UNL     1      48.239   6.273  18.403  0.00  0.00    +0.000 A 
ATOM     32  H   UNL     1      47.180   8.458  20.623  0.00  0.00    +0.000 HD
ENDBRANCH  19  22
ENDBRANCH   2  18
TORSDOF 6
ENDMDL
MODEL 3
REMARK VINA RESULT:    -8.504      2.898      4.149
REMARK INTER + INTRA:         -11.680
REMARK INTER:                 -10.484
REMARK INTRA:                  -1.196
REMARK UNBOUND:                -0.192
REMARK  Name = 
REMARK  7 active torsions:
REMARK  status: ('A' for Active; 'I' for Inactive)
REMARK    1  A    between atoms: C_1  and  C_2
REMARK    2  A    between atoms: C_2  and  N_3
REMARK    3  A    between atoms: C_2  and  C_16
REMARK    4  A    between atoms: C_4  and  C_6
REMARK    5  A    between atoms: C_19  and  O_20
REMARK    6  A    between atoms: O_20  and  C_21
REMARK    7  A    between atoms: C_21  and  C_22
REMARK                            x       y       z     vdW  Elec       q    Type
REMARK                         _______ _______ _______ _____ _____    ______ ____
ROOT
ATOM      1  C   UNL     1      47.312   3.306  16.653  0.00  0.00    +0.000 C 
ATOM      2  C   UNL     1      47.881   4.646  16.180  0.00  0.00    +0.000 C 
ENDROOT
BRANCH   2   3
ATOM      3  C   UNL     1      47.303   5.026  14.822  0.00  0.00    +0.000 A 
ATOM      4  N   UNL     1      47.928   5.983  14.105  0.00  0.00    +0.000 NA
ATOM      5  C   UNL     1      47.394   6.276  12.898  0.00  0.00    +0.000 A 
ATOM      6  C   UNL     1      46.286   5.648  12.374  0.00  0.00    +0.000 A 
ATOM      7  C   UNL     1      45.684   4.742  13.219  0.00  0.00    +0.000 A 
ATOM      8  N   UNL     1      46.160   4.419  14.436  0.00  0.00    +0.000 NA
BRANCH   6   9
ATOM      9  O   UNL     1      45.893   5.962  11.112  0.00  0.00    +0.000 OA
BRANCH   9  10
ATOM     10  C   UNL     1      44.744   5.236  10.652  0.00  0.00    +0.000 C 
BRANCH  10  11
ATOM     11  C   UNL     1      45.137   4.236   9.600  0.00  0.00    +0.000 A 
ATOM     12  C   UNL     1      45.880   4.595   8.469  0.00  0.00    +0.000 A 
ATOM     13  C   UNL     1      46.289   3.625   7.551  0.00  0.00    +0.000 A 
ATOM     14  C   UNL     1      45.974   2.283   7.765  0.00  0.00    +0.000 A 
ATOM     15  C   UNL     1      45.250   1.911   8.896  0.00  0.00    +0.000 A 
ATOM     16  C   UNL     1      44.843   2.884   9.802  0.00  0.00    +0.000 A 
ATOM     17  F   UNL     1      44.170   2.506  10.899  0.00  0.00    +0.000 F 
ENDBRANCH  10  11
ENDBRANCH   9  10
ENDBRANCH   6   9
ENDBRANCH   2   3
BRANCH   2  18
ATOM     18  N   UNL     1      47.613   5.693  17.156  0.00  0.00    +0.000 N 
ATOM     19  C   UNL     1      48.495   6.032  18.142  0.00  0.00    +0.000 C 
ATOM     20  O   UNL     1      49.559   5.440  18.303  0.00  0.00    +0.000 OA
ATOM     21  H   UNL     1      46.681   6.095  17.136  0.00  0.00    +0.000 HD
BRANCH  19  22
ATOM     22  C   UNL     1      48.135   7.195  18.965  0.00  0.00    +0.000 A 
ATOM     23  C   UNL     1      47.914   7.029  20.325  0.00  0.00    +0.000 A 
ATOM     24  S   UNL     1      47.538   8.479  21.138  0.00  0.00    +0.000 S 
ATOM     25  C   UNL     1      47.610   9.373  19.692  0.00  0.00    +0.000 A 
ATOM     26  N   UNL     1      47.348  10.708  19.682  0.00  0.00    +0.000 NA
ATOM     27  C   UNL     1      47.404  11.253  18.513  0.00  0.00    +0.000 A 
ATOM     28  N   UNL     1      47.711  10.587  17.355  0.00  0.00    +0.000 N 
ATOM     29  C   UNL     1      48.035   9.252  17.325  0.00  0.00    +0.000 A 
ATOM     30  O   UNL     1      48.394   8.708  16.287  0.00  0.00    +0.000 OA
ATOM     31  C   UNL     1      47.949   8.581  18.610  0.00  0.00    +0.000 A 
ATOM     32  H   UNL     1      47.760  11.077  16.474  0.00  0.00    +0.000 HD
ENDBRANCH  19  22
ENDBRANCH   2  18
TORSDOF 6
ENDMDL
MODEL 4
REMARK VINA RESULT:    -8.382      2.115      4.184
REMARK INTER + INTRA:         -11.514
REMARK INTER:                 -10.870
REMARK INTRA:                  -0.644
REMARK UNBOUND:                -0.192
REMARK  Name = 
REMARK  7 active torsions:
REMARK  status: ('A' for Active; 'I' for Inactive)
REMARK    1  A    between atoms: C_1  and  C_2
REMARK    2  A    between atoms: C_2  and  N_3
REMARK    3  A    between atoms: C_2  and  C_16
REMARK    4  A    between atoms: C_4  and  C_6
REMARK    5  A    between atoms: C_19  and  O_20
REMARK    6  A    between atoms: O_20  and  C_21
REMARK    7  A    between atoms: C_21  and  C_22
REMARK                            x       y       z     vdW  Elec       q    Type
REMARK                         _______ _______ _______ _____ _____    ______ ____
ROOT
ATOM      1  C   UNL     1      46.951   4.370  15.861  0.00  0.00    +0.000 C 
ATOM      2  C   UNL     1      47.471   4.864  14.509  0.00  0.00    +0.000 C 
ENDROOT
BRANCH   2   3
ATOM      3  C   UNL     1      46.491   4.515  13.395  0.00  0.00    +0.000 A 
ATOM      4  N   UNL     1      45.960   5.521  12.671  0.00  0.00    +0.000 NA
ATOM      5  C   UNL     1      45.111   5.166  11.680  0.00  0.00    +0.000 A 
ATOM      6  C   UNL     1      44.788   3.863  11.374  0.00  0.00    +0.000 A 
ATOM      7  C   UNL     1      45.327   2.922  12.222  0.00  0.00    +0.000 A 
ATOM      8  N   UNL     1      46.167   3.214  13.232  0.00  0.00    +0.000 NA
BRANCH   6   9
ATOM      9  O   UNL     1      43.994   3.623  10.297  0.00  0.00    +0.000 OA
BRANCH   9  10
ATOM     10  C   UNL     1      44.450   4.228   9.079  0.00  0.00    +0.000 C 
BRANCH  10  11
ATOM     11  C   UNL     1      45.423   3.326   8.371  0.00  0.00    +0.000 A 
ATOM     12  C   UNL     1      46.487   3.826   7.610  0.00  0.00    +0.000 A 
ATOM     13  C   UNL     1      47.414   2.958   7.030  0.00  0.00    +0.000 A 
ATOM     14  C   UNL     1      47.295   1.581   7.219  0.00  0.00    +0.000 A 
ATOM     15  C   UNL     1      46.251   1.072   7.988  0.00  0.00    +0.000 A 
ATOM     16  C   UNL     1      45.330   1.944   8.560  0.00  0.00    +0.000 A 
ATOM     17  F   UNL     1      44.347   1.440   9.320  0.00  0.00    +0.000 F 
ENDBRANCH  10  11
ENDBRANCH   9  10
ENDBRANCH   6   9
ENDBRANCH   2   3
BRANCH   2  18
ATOM     18  N   UNL     1      47.708   6.301  14.543  0.00  0.00    +0.000 N 
ATOM     19  C   UNL     1      48.850   6.853  15.049  0.00  0.00    +0.000 C 
ATOM     20  O   UNL     1      49.738   6.174  15.558  0.00  0.00    +0.000 OA
ATOM     21  H   UNL     1      46.929   6.890  14.266  0.00  0.00    +0.000 HD
BRANCH  19  22
ATOM     22  C   UNL     1      48.994   8.307  14.893  0.00  0.00    +0.000 A 
ATOM     23  C   UNL     1      49.237   9.096  16.009  0.00  0.00    +0.000 A 
ATOM     24  S   UNL     1      49.411  10.753  15.650  0.00  0.00    +0.000 S 
ATOM     25  C   UNL     1      49.120  10.481  13.996  0.00  0.00    +0.000 A 
ATOM     26  N   UNL     1      49.092  11.516  13.113  0.00  0.00    +0.000 NA
ATOM     27  C   UNL     1      48.825  11.171  11.897  0.00  0.00    +0.000 A 
ATOM     28  N   UNL     1      48.596   9.885  11.483  0.00  0.00    +0.000 N 
ATOM     29  C   UNL     1      48.667   8.805  12.328  0.00  0.00    +0.000 A 
ATOM     30  O   UNL     1      48.547   7.659  11.908  0.00  0.00    +0.000 OA
ATOM     31  C   UNL     1      48.926   9.140  13.717  0.00  0.00    +0.000 A 
ATOM     32  H   UNL     1      48.414   9.679  10.512  0.00  0.00    +0.000 HD
ENDBRANCH  19  22
ENDBRANCH   2  18
TORSDOF 6
ENDMDL
MODEL 5
REMARK VINA RESULT:    -8.381      1.572      1.694
REMARK INTER + INTRA:         -11.513
REMARK INTER:                 -10.835
REMARK INTRA:                  -0.678
REMARK UNBOUND:                -0.192
REMARK  Name = 
REMARK  7 active torsions:
REMARK  status: ('A' for Active; 'I' for Inactive)
REMARK    1  A    between atoms: C_1  and  C_2
REMARK    2  A    between atoms: C_2  and  N_3
REMARK    3  A    between atoms: C_2  and  C_16
REMARK    4  A    between atoms: C_4  and  C_6
REMARK    5  A    between atoms: C_19  and  O_20
REMARK    6  A    between atoms: O_20  and  C_21
REMARK    7  A    between atoms: C_21  and  C_22
REMARK                            x       y       z     vdW  Elec       q    Type
REMARK                         _______ _______ _______ _____ _____    ______ ____
ROOT
ATOM      1  C   UNL     1      49.394   7.030  12.732  0.00  0.00    +0.000 C 
ATOM      2  C   UNL     1      47.997   7.269  13.309  0.00  0.00    +0.000 C 
ENDROOT
BRANCH   2   3
ATOM      3  C   UNL     1      46.978   6.346  12.650  0.00  0.00    +0.000 A 
ATOM      4  N   UNL     1      46.339   6.784  11.545  0.00  0.00    +0.000 NA
ATOM      5  C   UNL     1      45.459   5.927  10.981  0.00  0.00    +0.000 A 
ATOM      6  C   UNL     1      45.206   4.660  11.457  0.00  0.00    +0.000 A 
ATOM      7  C   UNL     1      45.855   4.344  12.629  0.00  0.00    +0.000 A 
ATOM      8  N   UNL     1      46.732   5.159  13.244  0.00  0.00    +0.000 NA
BRANCH   6   9
ATOM      9  O   UNL     1      44.367   3.854  10.754  0.00  0.00    +0.000 OA
BRANCH   9  10
ATOM     10  C   UNL     1      44.271   4.172   9.359  0.00  0.00    +0.000 C 
BRANCH  10  11
ATOM     11  C   UNL     1      45.261   3.365   8.563  0.00  0.00    +0.000 A 
ATOM     12  C   UNL     1      46.240   3.966   7.762  0.00  0.00    +0.000 A 
ATOM     13  C   UNL     1      47.189   3.186   7.097  0.00  0.00    +0.000 A 
ATOM     14  C   UNL     1      47.178   1.798   7.241  0.00  0.00    +0.000 A 
ATOM     15  C   UNL     1      46.220   1.190   8.049  0.00  0.00    +0.000 A 
ATOM     16  C   UNL     1      45.276   1.975   8.705  0.00  0.00    +0.000 A 
ATOM     17  F   UNL     1      44.378   1.377   9.500  0.00  0.00    +0.000 F 
ENDBRANCH  10  11
ENDBRANCH   9  10
ENDBRANCH   6   9
ENDBRANCH   2   3
BRANCH   2  18
ATOM     18  N   UNL     1      47.997   7.075  14.753  0.00  0.00    +0.000 N 
ATOM     19  C   UNL     1      48.717   7.860  15.607  0.00  0.00    +0.000 C 
ATOM     20  O   UNL     1      49.456   8.757  15.210  0.00  0.00    +0.000 OA
ATOM     21  H   UNL     1      47.513   6.250  15.094  0.00  0.00    +0.000 HD
BRANCH  19  22
ATOM     22  C   UNL     1      48.509   7.621  17.042  0.00  0.00    +0.000 A 
ATOM     23  C   UNL     1      48.182   8.683  17.874  0.00  0.00    +0.000 A 
ATOM     24  S   UNL     1      47.944   8.229  19.500  0.00  0.00    +0.000 S 
ATOM     25  C   UNL     1      48.316   6.604  19.158  0.00  0.00    +0.000 A 
ATOM     26  N   UNL     1      48.330   5.668  20.145  0.00  0.00    +0.000 NA
ATOM     27  C   UNL     1      48.662   4.484  19.752  0.00  0.00    +0.000 A 
ATOM     28  N   UNL     1      48.970   4.149  18.460  0.00  0.00    +0.000 N 
ATOM     29  C   UNL     1      48.917   5.048  17.422  0.00  0.00    +0.000 A 
ATOM     30  O   UNL     1      49.109   4.695  16.264  0.00  0.00    +0.000 OA
ATOM     31  C   UNL     1      48.585   6.405  17.816  0.00  0.00    +0.000 A 
ATOM     32  H   UNL     1      49.202   3.198  18.214  0.00  0.00    +0.000 HD
ENDBRANCH  19  22
ENDBRANCH   2  18
TORSDOF 6
ENDMDL
MODEL 6
REMARK VINA RESULT:    -8.349      2.592      3.273
REMARK INTER + INTRA:         -11.470
REMARK INTER:                 -10.348
REMARK INTRA:                  -1.122
REMARK UNBOUND:                -0.192
REMARK  Name = 
REMARK  7 active torsions:
REMARK  status: ('A' for Active; 'I' for Inactive)
REMARK    1  A    between atoms: C_1  and  C_2
REMARK    2  A    between atoms: C_2  and  N_3
REMARK    3  A    between atoms: C_2  and  C_16
REMARK    4  A    between atoms: C_4  and  C_6
REMARK    5  A    between atoms: C_19  and  O_20
REMARK    6  A    between atoms: O_20  and  C_21
REMARK    7  A    between atoms: C_21  and  C_22
REMARK                            x       y       z     vdW  Elec       q    Type
REMARK                         _______ _______ _______ _____ _____    ______ ____
ROOT
ATOM      1  C   UNL     1      47.344   3.723  15.998  0.00  0.00    +0.000 C 
ATOM      2  C   UNL     1      47.826   4.877  15.117  0.00  0.00    +0.000 C 
ENDROOT
BRANCH   2   3
ATOM      3  C   UNL     1      46.928   5.034  13.896  0.00  0.00    +0.000 A 
ATOM      4  N   UNL     1      47.201   6.026  13.023  0.00  0.00    +0.000 NA
ATOM      5  C   UNL     1      46.392   6.117  11.944  0.00  0.00    +0.000 A 
ATOM      6  C   UNL     1      45.345   5.259  11.693  0.00  0.00    +0.000 A 
ATOM      7  C   UNL     1      45.109   4.332  12.683  0.00  0.00    +0.000 A 
ATOM      8  N   UNL     1      45.871   4.201  13.785  0.00  0.00    +0.000 NA
BRANCH   6   9
ATOM      9  O   UNL     1      44.656   5.392  10.529  0.00  0.00    +0.000 OA
BRANCH   9  10
ATOM     10  C   UNL     1      44.125   4.164  10.011  0.00  0.00    +0.000 C 
BRANCH  10  11
ATOM     11  C   UNL     1      45.058   3.572   8.991  0.00  0.00    +0.000 A 
ATOM     12  C   UNL     1      45.895   4.365   8.196  0.00  0.00    +0.000 A 
ATOM     13  C   UNL     1      46.801   3.776   7.312  0.00  0.00    +0.000 A 
ATOM     14  C   UNL     1      46.891   2.386   7.227  0.00  0.00    +0.000 A 
ATOM     15  C   UNL     1      46.077   1.586   8.025  0.00  0.00    +0.000 A 
ATOM     16  C   UNL     1      45.174   2.182   8.900  0.00  0.00    +0.000 A 
ATOM     17  F   UNL     1      44.416   1.398   9.680  0.00  0.00    +0.000 F 
ENDBRANCH  10  11
ENDBRANCH   9  10
ENDBRANCH   6   9
ENDBRANCH   2   3
BRANCH   2  18
ATOM     18  N   UNL     1      47.871   6.120  15.876  0.00  0.00    +0.000 N 
ATOM     19  C   UNL     1      48.977   6.920  15.925  0.00  0.00    +0.000 C 
ATOM     20  O   UNL     1      50.030   6.619  15.370  0.00  0.00    +0.000 OA
ATOM     21  H   UNL     1      47.066   6.316  16.462  0.00  0.00    +0.000 HD
BRANCH  19  22
ATOM     22  C   UNL     1      48.821   8.202  16.626  0.00  0.00    +0.000 A 
ATOM     23  C   UNL     1      49.225   9.376  16.005  0.00  0.00    +0.000 A 
ATOM     24  S   UNL     1      48.945  10.775  16.938  0.00  0.00    +0.000 S 
ATOM     25  C   UNL     1      48.318   9.856  18.225  0.00  0.00    +0.000 A 
ATOM     26  N   UNL     1      47.914  10.454  19.379  0.00  0.00    +0.000 NA
ATOM     27  C   UNL     1      47.492   9.636  20.284  0.00  0.00    +0.000 A 
ATOM     28  N   UNL     1      47.427   8.275  20.137  0.00  0.00    +0.000 N 
ATOM     29  C   UNL     1      47.773   7.633  18.973  0.00  0.00    +0.000 A 
ATOM     30  O   UNL     1      47.616   6.424  18.842  0.00  0.00    +0.000 OA
ATOM     31  C   UNL     1      48.291   8.504  17.933  0.00  0.00    +0.000 A 
ATOM     32  H   UNL     1      47.066   7.692  20.877  0.00  0.00    +0.000 HD
ENDBRANCH  19  22
ENDBRANCH   2  18
TORSDOF 6
ENDMDL
MODEL 7
REMARK VINA RESULT:    -8.315      3.054      4.349
REMARK INTER + INTRA:         -11.423
REMARK INTER:                 -10.313
REMARK INTRA:                  -1.110
REMARK UNBOUND:                -0.192
REMARK  Name = 
REMARK  7 active torsions:
REMARK  status: ('A' for Active; 'I' for Inactive)
REMARK    1  A    between atoms: C_1  and  C_2
REMARK    2  A    between atoms: C_2  and  N_3
REMARK    3  A    between atoms: C_2  and  C_16
REMARK    4  A    between atoms: C_4  and  C_6
REMARK    5  A    between atoms: C_19  and  O_20
REMARK    6  A    between atoms: O_20  and  C_21
REMARK    7  A    between atoms: C_21  and  C_22
REMARK                            x       y       z     vdW  Elec       q    Type
REMARK                         _______ _______ _______ _____ _____    ______ ____
ROOT
ATOM      1  C   UNL     1      50.178   7.878  15.406  0.00  0.00    +0.000 C 
ATOM      2  C   UNL     1      49.589   6.740  16.245  0.00  0.00    +0.000 C 
ENDROOT
BRANCH   2   3
ATOM      3  C   UNL     1      48.566   5.951  15.436  0.00  0.00    +0.000 A 
ATOM      4  N   UNL     1      47.944   4.912  16.032  0.00  0.00    +0.000 NA
ATOM      5  C   UNL     1      47.030   4.251  15.286  0.00  0.00    +0.000 A 
ATOM      6  C   UNL     1      46.700   4.591  13.993  0.00  0.00    +0.000 A 
ATOM      7  C   UNL     1      47.447   5.617  13.460  0.00  0.00    +0.000 A 
ATOM      8  N   UNL     1      48.379   6.304  14.147  0.00  0.00    +0.000 NA
BRANCH   6   9
ATOM      9  O   UNL     1      45.701   3.911  13.373  0.00  0.00    +0.000 OA
BRANCH   9  10
ATOM     10  C   UNL     1      44.875   4.718  12.521  0.00  0.00    +0.000 C 
BRANCH  10  11
ATOM     11  C   UNL     1      44.955   4.238  11.098  0.00  0.00    +0.000 A 
ATOM     12  C   UNL     1      44.385   3.028  10.686  0.00  0.00    +0.000 A 
ATOM     13  C   UNL     1      44.415   2.651   9.341  0.00  0.00    +0.000 A 
ATOM     14  C   UNL     1      45.000   3.491   8.393  0.00  0.00    +0.000 A 
ATOM     15  C   UNL     1      45.556   4.705   8.788  0.00  0.00    +0.000 A 
ATOM     16  C   UNL     1      45.525   5.070  10.131  0.00  0.00    +0.000 A 
ATOM     17  F   UNL     1      46.041   6.254  10.491  0.00  0.00    +0.000 F 
ENDBRANCH  10  11
ENDBRANCH   9  10
ENDBRANCH   6   9
ENDBRANCH   2   3
BRANCH   2  18
ATOM     18  N   UNL     1      50.643   5.858  16.728  0.00  0.00    +0.000 N 
ATOM     19  C   UNL     1      50.846   5.602  18.053  0.00  0.00    +0.000 C 
ATOM     20  O   UNL     1      50.183   6.141  18.936  0.00  0.00    +0.000 OA
ATOM     21  H   UNL     1      51.297   5.519  16.030  0.00  0.00    +0.000 HD
BRANCH  19  22
ATOM     22  C   UNL     1      51.864   4.591  18.372  0.00  0.00    +0.000 A 
ATOM     23  C   UNL     1      52.998   4.960  19.083  0.00  0.00    +0.000 A 
ATOM     24  S   UNL     1      54.060   3.664  19.397  0.00  0.00    +0.000 S 
ATOM     25  C   UNL     1      53.065   2.573  18.552  0.00  0.00    +0.000 A 
ATOM     26  N   UNL     1      53.422   1.268  18.409  0.00  0.00    +0.000 NA
ATOM     27  C   UNL     1      52.594   0.561  17.716  0.00  0.00    +0.000 A 
ATOM     28  N   UNL     1      51.434   1.037  17.162  0.00  0.00    +0.000 N 
ATOM     29  C   UNL     1      51.007   2.333  17.325  0.00  0.00    +0.000 A 
ATOM     30  O   UNL     1      49.920   2.703  16.895  0.00  0.00    +0.000 OA
ATOM     31  C   UNL     1      51.922   3.182  18.065  0.00  0.00    +0.000 A 
ATOM     32  H   UNL     1      50.817   0.426  16.648  0.00  0.00    +0.000 HD
ENDBRANCH  19  22
ENDBRANCH   2  18
TORSDOF 6
ENDMDL
MODEL 8
REMARK VINA RESULT:    -8.211      3.587      4.985
REMARK INTER + INTRA:         -11.283
REMARK INTER:                  -9.910
REMARK INTRA:                  -1.373
REMARK UNBOUND:                -0.192
REMARK  Name = 
REMARK  7 active torsions:
REMARK  status: ('A' for Active; 'I' for Inactive)
REMARK    1  A    between atoms: C_1  and  C_2
REMARK    2  A    between atoms: C_2  and  N_3
REMARK    3  A    between atoms: C_2  and  C_16
REMARK    4  A    between atoms: C_4  and  C_6
REMARK    5  A    between atoms: C_19  and  O_20
REMARK    6  A    between atoms: O_20  and  C_21
REMARK    7  A    between atoms: C_21  and  C_22
REMARK                            x       y       z     vdW  Elec       q    Type
REMARK                         _______ _______ _______ _____ _____    ______ ____
ROOT
ATOM      1  C   UNL     1      44.820   9.586  12.428  0.00  0.00    +0.000 C 
ATOM      2  C   UNL     1      45.994   8.669  12.778  0.00  0.00    +0.000 C 
ENDROOT
BRANCH   2   3
ATOM      3  C   UNL     1      45.669   7.222  12.429  0.00  0.00    +0.000 A 
ATOM      4  N   UNL     1      44.619   6.979  11.617  0.00  0.00    +0.000 NA
ATOM      5  C   UNL     1      44.378   5.684  11.316  0.00  0.00    +0.000 A 
ATOM      6  C   UNL     1      45.143   4.633  11.772  0.00  0.00    +0.000 A 
ATOM      7  C   UNL     1      46.141   4.986  12.651  0.00  0.00    +0.000 A 
ATOM      8  N   UNL     1      46.421   6.256  12.999  0.00  0.00    +0.000 NA
BRANCH   6   9
ATOM      9  O   UNL     1      44.860   3.379  11.330  0.00  0.00    +0.000 OA
BRANCH   9  10
ATOM     10  C   UNL     1      44.284   3.331  10.017  0.00  0.00    +0.000 C 
BRANCH  10  11
ATOM     11  C   UNL     1      45.315   2.922   9.001  0.00  0.00    +0.000 A 
ATOM     12  C   UNL     1      45.606   1.579   8.732  0.00  0.00    +0.000 A 
ATOM     13  C   UNL     1      46.516   1.237   7.729  0.00  0.00    +0.000 A 
ATOM     14  C   UNL     1      47.131   2.236   6.974  0.00  0.00    +0.000 A 
ATOM     15  C   UNL     1      46.837   3.575   7.220  0.00  0.00    +0.000 A 
ATOM     16  C   UNL     1      45.932   3.906   8.224  0.00  0.00    +0.000 A 
ATOM     17  F   UNL     1      45.640   5.198   8.431  0.00  0.00    +0.000 F 
ENDBRANCH  10  11
ENDBRANCH   9  10
ENDBRANCH   6   9
ENDBRANCH   2   3
BRANCH   2  18
ATOM     18  N   UNL     1      47.205   9.097  12.090  0.00  0.00    +0.000 N 
ATOM     19  C   UNL     1      48.188   9.821  12.700  0.00  0.00    +0.000 C 
ATOM     20  O   UNL     1      48.096  10.205  13.863  0.00  0.00    +0.000 OA
ATOM     21  H   UNL     1      47.237   8.921  11.090  0.00  0.00    +0.000 HD
BRANCH  19  22
ATOM     22  C   UNL     1      49.403  10.063  11.909  0.00  0.00    +0.000 A 
ATOM     23  C   UNL     1      49.736  11.360  11.544  0.00  0.00    +0.000 A 
ATOM     24  S   UNL     1      51.189  11.470  10.659  0.00  0.00    +0.000 S 
ATOM     25  C   UNL     1      51.400   9.782  10.691  0.00  0.00    +0.000 A 
ATOM     26  N   UNL     1      52.459   9.198  10.069  0.00  0.00    +0.000 NA
ATOM     27  C   UNL     1      52.477   7.909  10.143  0.00  0.00    +0.000 A 
ATOM     28  N   UNL     1      51.537   7.152  10.792  0.00  0.00    +0.000 N 
ATOM     29  C   UNL     1      50.482   7.700  11.480  0.00  0.00    +0.000 A 
ATOM     30  O   UNL     1      49.711   7.000  12.127  0.00  0.00    +0.000 OA
ATOM     31  C   UNL     1      50.393   9.147  11.396  0.00  0.00    +0.000 A 
ATOM     32  H   UNL     1      51.620   6.147  10.832  0.00  0.00    +0.000 HD
ENDBRANCH  19  22
ENDBRANCH   2  18
TORSDOF 6
ENDMDL
MODEL 9
REMARK VINA RESULT:    -7.856      2.033      2.492
REMARK INTER + INTRA:         -10.804
REMARK INTER:                  -9.732
REMARK INTRA:                  -1.072
REMARK UNBOUND:                -0.192
REMARK  Name = 
REMARK  7 active torsions:
REMARK  status: ('A' for Active; 'I' for Inactive)
REMARK    1  A    between atoms: C_1  and  C_2
REMARK    2  A    between atoms: C_2  and  N_3
REMARK    3  A    between atoms: C_2  and  C_16
REMARK    4  A    between atoms: C_4  and  C_6
REMARK    5  A    between atoms: C_19  and  O_20
REMARK    6  A    between atoms: O_20  and  C_21
REMARK    7  A    between atoms: C_21  and  C_22
REMARK                            x       y       z     vdW  Elec       q    Type
REMARK                         _______ _______ _______ _____ _____    ______ ____
ROOT
ATOM      1  C   UNL     1      49.873   8.217  11.519  0.00  0.00    +0.000 C 
ATOM      2  C   UNL     1      49.210   7.936  12.869  0.00  0.00    +0.000 C 
ENDROOT
BRANCH   2   3
ATOM      3  C   UNL     1      47.974   7.062  12.690  0.00  0.00    +0.000 A 
ATOM      4  N   UNL     1      46.926   7.568  12.008  0.00  0.00    +0.000 NA
ATOM      5  C   UNL     1      45.858   6.754  11.854  0.00  0.00    +0.000 A 
ATOM      6  C   UNL     1      45.800   5.463  12.332  0.00  0.00    +0.000 A 
ATOM      7  C   UNL     1      46.892   5.075  13.075  0.00  0.00    +0.000 A 
ATOM      8  N   UNL     1      47.978   5.845  13.274  0.00  0.00    +0.000 NA
BRANCH   6   9
ATOM      9  O   UNL     1      44.710   4.707  12.039  0.00  0.00    +0.000 OA
BRANCH   9  10
ATOM     10  C   UNL     1      44.135   4.971  10.751  0.00  0.00    +0.000 C 
BRANCH  10  11
ATOM     11  C   UNL     1      44.764   4.096   9.702  0.00  0.00    +0.000 A 
ATOM     12  C   UNL     1      45.628   4.606   8.725  0.00  0.00    +0.000 A 
ATOM     13  C   UNL     1      46.251   3.752   7.812  0.00  0.00    +0.000 A 
ATOM     14  C   UNL     1      46.030   2.376   7.880  0.00  0.00    +0.000 A 
ATOM     15  C   UNL     1      45.186   1.854   8.858  0.00  0.00    +0.000 A 
ATOM     16  C   UNL     1      44.567   2.713   9.760  0.00  0.00    +0.000 A 
ATOM     17  F   UNL     1      43.779   2.193  10.712  0.00  0.00    +0.000 F 
ENDBRANCH  10  11
ENDBRANCH   9  10
ENDBRANCH   6   9
ENDBRANCH   2   3
BRANCH   2  18
ATOM     18  N   UNL     1      50.151   7.302  13.783  0.00  0.00    +0.000 N 
ATOM     19  C   UNL     1      50.602   7.907  14.920  0.00  0.00    +0.000 C 
ATOM     20  O   UNL     1      50.283   9.053  15.226  0.00  0.00    +0.000 OA
ATOM     21  H   UNL     1      50.544   6.417  13.477  0.00  0.00    +0.000 HD
BRANCH  19  22
ATOM     22  C   UNL     1      51.445   7.087  15.802  0.00  0.00    +0.000 A 
ATOM     23  C   UNL     1      52.819   7.282  15.814  0.00  0.00    +0.000 A 
ATOM     24  S   UNL     1      53.644   6.275  16.914  0.00  0.00    +0.000 S 
ATOM     25  C   UNL     1      52.198   5.507  17.379  0.00  0.00    +0.000 A 
ATOM     26  N   UNL     1      52.206   4.496  18.288  0.00  0.00    +0.000 NA
ATOM     27  C   UNL     1      51.046   3.981  18.522  0.00  0.00    +0.000 A 
ATOM     28  N   UNL     1      49.876   4.393  17.938  0.00  0.00    +0.000 N 
ATOM     29  C   UNL     1      49.813   5.445  17.056  0.00  0.00    +0.000 A 
ATOM     30  O   UNL     1      48.740   5.848  16.623  0.00  0.00    +0.000 OA
ATOM     31  C   UNL     1      51.098   6.036  16.728  0.00  0.00    +0.000 A 
ATOM     32  H   UNL     1      48.997   3.962  18.181  0.00  0.00    +0.000 HD
ENDBRANCH  19  22
ENDBRANCH   2  18
TORSDOF 6
ENDMDL
