MODEL 1
REMARK VINA RESULT:    -9.526      0.000      0.000
REMARK INTER + INTRA:         -13.677
REMARK INTER:                 -12.868
REMARK INTRA:                  -0.809
REMARK UNBOUND:                -0.809
REMARK  Name = 
REMARK  6 active torsions:
REMARK  status: ('A' for Active; 'I' for Inactive)
REMARK    1  A    between atoms: C_2  and  C_4
REMARK    2  A    between atoms: N_8  and  C_9
REMARK    3  A    between atoms: C_9  and  C_10
REMARK    4  A    between atoms: C_10  and  C_13
REMARK    5  A    between atoms: C_17  and  O_18
REMARK    6  A    between atoms: O_18  and  C_19
REMARK                            x       y       z     vdW  Elec       q    Type
REMARK                         _______ _______ _______ _____ _____    ______ ____
ROOT
ATOM      1  C   UNL     1      43.512   5.618  12.169  0.00  0.00    +0.000 C 
ATOM      2  F   UNL     1      43.177   6.773  11.517  0.00  0.00    +0.000 F 
ATOM      3  F   UNL     1      42.601   5.499  13.181  0.00  0.00    +0.000 F 
ENDROOT
BRANCH   1   4
ATOM      4  C   UNL     1      44.935   5.651  12.696  0.00  0.00    +0.000 A 
ATOM      5  C   UNL     1      45.813   6.680  12.337  0.00  0.00    +0.000 A 
ATOM      6  C   UNL     1      47.122   6.694  12.824  0.00  0.00    +0.000 A 
ATOM      7  C   UNL     1      47.575   5.677  13.669  0.00  0.00    +0.000 A 
ATOM      8  C   UNL     1      46.714   4.640  14.024  0.00  0.00    +0.000 A 
ATOM      9  C   UNL     1      45.402   4.633  13.545  0.00  0.00    +0.000 A 
BRANCH   8  10
ATOM     10  O   UNL     1      47.034   3.604  14.864  0.00  0.00    +0.000 OA
BRANCH  10  11
ATOM     11  C   UNL     1      47.825   3.870  16.047  0.00  0.00    +0.000 C 
ATOM     12  C   UNL     1      48.301   2.663  16.880  0.00  0.00    +0.000 C 
ATOM     13  N   UNL     1      47.701   3.237  18.092  0.00  0.00    +0.000 NA
ATOM     14  C   UNL     1      47.006   4.257  17.296  0.00  0.00    +0.000 C 
ATOM     15  H   UNL     1      48.375   3.617  18.756  0.00  0.00    +0.000 HD
ENDBRANCH  10  11
ENDBRANCH   8  10
ENDBRANCH   1   4
BRANCH   1  16
ATOM     16  C   UNL     1      43.327   4.435  11.183  0.00  0.00    +0.000 C 
BRANCH  16  21
ATOM     17  C   UNL     1      46.486   2.493   7.686  0.00  0.00    +0.000 A 
ATOM     18  C   UNL     1      45.673   1.842   8.605  0.00  0.00    +0.000 A 
ATOM     19  C   UNL     1      44.757   2.586   9.348  0.00  0.00    +0.000 A 
ATOM     20  C   UNL     1      44.681   3.967   9.176  0.00  0.00    +0.000 A 
ATOM     21  N   UNL     1      43.740   4.753   9.809  0.00  0.00    +0.000 N 
ATOM     22  N   UNL     1      45.491   4.611   8.313  0.00  0.00    +0.000 NA
ATOM     23  C   UNL     1      46.375   3.871   7.591  0.00  0.00    +0.000 A 
ATOM     24  H   UNL     1      43.957   5.732   9.629  0.00  0.00    +0.000 HD
BRANCH  17  26
ATOM     25  N   UNL     1      48.552   2.474   6.413  0.00  0.00    +0.000 N 
ATOM     26  C   UNL     1      47.447   1.778   6.823  0.00  0.00    +0.000 C 
ATOM     27  O   UNL     1      47.282   0.606   6.516  0.00  0.00    +0.000 OA
ATOM     28  H   UNL     1      49.255   1.941   5.916  0.00  0.00    +0.000 HD
ATOM     29  H   UNL     1      48.846   3.337   6.847  0.00  0.00    +0.000 HD
ENDBRANCH  17  26
ENDBRANCH  16  21
ENDBRANCH   1  16
TORSDOF 6
ENDMDL
MODEL 2
REMARK VINA RESULT:    -8.762      2.316      3.307
REMARK INTER + INTRA:         -12.644
REMARK INTER:                 -11.918
REMARK INTRA:                  -0.726
REMARK UNBOUND:                -0.809
REMARK  Name = 
REMARK  6 active torsions:
REMARK  status: ('A' for Active; 'I' for Inactive)
REMARK    1  A    between atoms: C_2  and  C_4
REMARK    2  A    between atoms: N_8  and  C_9
REMARK    3  A    between atoms: C_9  and  C_10
REMARK    4  A    between atoms: C_10  and  C_13
REMARK    5  A    between atoms: C_17  and  O_18
REMARK    6  A    between atoms: O_18  and  C_19
REMARK                            x       y       z     vdW  Elec       q    Type
REMARK                         _______ _______ _______ _____ _____    ______ ____
ROOT
ATOM      1  C   UNL     1      43.525   5.559  12.140  0.00  0.00    +0.000 C 
ATOM      2  F   UNL     1      43.130   6.729  11.554  0.00  0.00    +0.000 F 
ATOM      3  F   UNL     1      42.699   5.398  13.217  0.00  0.00    +0.000 F 
ENDROOT
BRANCH   1   4
ATOM      4  C   UNL     1      44.985   5.592  12.555  0.00  0.00    +0.000 A 
ATOM      5  C   UNL     1      45.472   4.734  13.548  0.00  0.00    +0.000 A 
ATOM      6  C   UNL     1      46.817   4.781  13.923  0.00  0.00    +0.000 A 
ATOM      7  C   UNL     1      47.691   5.690  13.320  0.00  0.00    +0.000 A 
ATOM      8  C   UNL     1      47.216   6.558  12.340  0.00  0.00    +0.000 A 
ATOM      9  C   UNL     1      45.873   6.503  11.956  0.00  0.00    +0.000 A 
BRANCH   8  10
ATOM     10  O   UNL     1      47.979   7.472  11.659  0.00  0.00    +0.000 OA
BRANCH  10  11
ATOM     11  C   UNL     1      48.426   8.668  12.340  0.00  0.00    +0.000 C 
ATOM     12  C   UNL     1      47.807   8.986  13.716  0.00  0.00    +0.000 C 
ATOM     13  N   UNL     1      47.417  10.326  13.253  0.00  0.00    +0.000 NA
ATOM     14  C   UNL     1      47.748   9.971  11.867  0.00  0.00    +0.000 C 
ATOM     15  H   UNL     1      47.982  11.084  13.634  0.00  0.00    +0.000 HD
ENDBRANCH  10  11
ENDBRANCH   8  10
ENDBRANCH   1   4
BRANCH   1  16
ATOM     16  C   UNL     1      43.274   4.405  11.136  0.00  0.00    +0.000 C 
BRANCH  16  21
ATOM     17  C   UNL     1      46.485   2.471   7.681  0.00  0.00    +0.000 A 
ATOM     18  C   UNL     1      45.663   1.818   8.591  0.00  0.00    +0.000 A 
ATOM     19  C   UNL     1      44.734   2.560   9.321  0.00  0.00    +0.000 A 
ATOM     20  C   UNL     1      44.655   3.940   9.146  0.00  0.00    +0.000 A 
ATOM     21  N   UNL     1      43.702   4.722   9.766  0.00  0.00    +0.000 N 
ATOM     22  N   UNL     1      45.473   4.586   8.292  0.00  0.00    +0.000 NA
ATOM     23  C   UNL     1      46.369   3.848   7.583  0.00  0.00    +0.000 A 
ATOM     24  H   UNL     1      43.918   5.703   9.587  0.00  0.00    +0.000 HD
BRANCH  17  26
ATOM     25  N   UNL     1      48.547   2.471   6.403  0.00  0.00    +0.000 N 
ATOM     26  C   UNL     1      47.459   1.759   6.831  0.00  0.00    +0.000 C 
ATOM     27  O   UNL     1      47.321   0.577   6.552  0.00  0.00    +0.000 OA
ATOM     28  H   UNL     1      49.261   1.943   5.915  0.00  0.00    +0.000 HD
ATOM     29  H   UNL     1      48.822   3.350   6.815  0.00  0.00    +0.000 HD
ENDBRANCH  17  26
ENDBRANCH  16  21
ENDBRANCH   1  16
TORSDOF 6
ENDMDL
MODEL 3
REMARK VINA RESULT:    -8.661      1.909      2.264
REMARK INTER + INTRA:         -12.508
REMARK INTER:                 -11.836
REMARK INTRA:                  -0.671
REMARK UNBOUND:                -0.809
REMARK  Name = 
REMARK  6 active torsions:
REMARK  status: ('A' for Active; 'I' for Inactive)
REMARK    1  A    between atoms: C_2  and  C_4
REMARK    2  A    between atoms: N_8  and  C_9
REMARK    3  A    between atoms: C_9  and  C_10
REMARK    4  A    between atoms: C_10  and  C_13
REMARK    5  A    between atoms: C_17  and  O_18
REMARK    6  A    between atoms: O_18  and  C_19
REMARK                            x       y       z     vdW  Elec       q    Type
REMARK                         _______ _______ _______ _____ _____    ______ ____
ROOT
ATOM      1  C   UNL     1      42.991   5.436  12.168  0.00  0.00    +0.000 C 
ATOM      2  F   UNL     1      41.893   6.111  11.709  0.00  0.00    +0.000 F 
ATOM      3  F   UNL     1      42.635   4.968  13.402  0.00  0.00    +0.000 F 
ENDROOT
BRANCH   1   4
ATOM      4  C   UNL     1      44.219   6.324  12.239  0.00  0.00    +0.000 A 
ATOM      5  C   UNL     1      44.259   7.554  11.571  0.00  0.00    +0.000 A 
ATOM      6  C   UNL     1      45.399   8.358  11.639  0.00  0.00    +0.000 A 
ATOM      7  C   UNL     1      46.518   7.941  12.366  0.00  0.00    +0.000 A 
ATOM      8  C   UNL     1      46.496   6.714  13.024  0.00  0.00    +0.000 A 
ATOM      9  C   UNL     1      45.351   5.916  12.965  0.00  0.00    +0.000 A 
BRANCH   8  10
ATOM     10  O   UNL     1      47.518   6.211  13.788  0.00  0.00    +0.000 OA
BRANCH  10  11
ATOM     11  C   UNL     1      48.417   7.126  14.458  0.00  0.00    +0.000 C 
ATOM     12  C   UNL     1      49.818   7.335  13.848  0.00  0.00    +0.000 C 
ATOM     13  N   UNL     1      50.450   6.991  15.129  0.00  0.00    +0.000 NA
ATOM     14  C   UNL     1      49.165   6.526  15.667  0.00  0.00    +0.000 C 
ATOM     15  H   UNL     1      50.847   7.785  15.630  0.00  0.00    +0.000 HD
ENDBRANCH  10  11
ENDBRANCH   8  10
ENDBRANCH   1   4
BRANCH   1  16
ATOM     16  C   UNL     1      43.247   4.230  11.227  0.00  0.00    +0.000 C 
BRANCH  16  21
ATOM     17  C   UNL     1      46.518   2.519   7.712  0.00  0.00    +0.000 A 
ATOM     18  C   UNL     1      45.692   1.809   8.576  0.00  0.00    +0.000 A 
ATOM     19  C   UNL     1      44.748   2.501   9.333  0.00  0.00    +0.000 A 
ATOM     20  C   UNL     1      44.656   3.887   9.232  0.00  0.00    +0.000 A 
ATOM     21  N   UNL     1      43.687   4.626   9.882  0.00  0.00    +0.000 N 
ATOM     22  N   UNL     1      45.476   4.588   8.424  0.00  0.00    +0.000 NA
ATOM     23  C   UNL     1      46.388   3.899   7.687  0.00  0.00    +0.000 A 
ATOM     24  H   UNL     1      43.894   5.616   9.758  0.00  0.00    +0.000 HD
BRANCH  17  26
ATOM     25  N   UNL     1      48.518   2.648   6.345  0.00  0.00    +0.000 N 
ATOM     26  C   UNL     1      47.509   1.864   6.836  0.00  0.00    +0.000 C 
ATOM     27  O   UNL     1      47.454   0.668   6.589  0.00  0.00    +0.000 OA
ATOM     28  H   UNL     1      49.251   2.165   5.840  0.00  0.00    +0.000 HD
ATOM     29  H   UNL     1      48.740   3.556   6.727  0.00  0.00    +0.000 HD
ENDBRANCH  17  26
ENDBRANCH  16  21
ENDBRANCH   1  16
TORSDOF 6
ENDMDL
MODEL 4
REMARK VINA RESULT:    -8.148      3.190      4.713
REMARK INTER + INTRA:         -11.815
REMARK INTER:                 -11.217
REMARK INTRA:                  -0.598
REMARK UNBOUND:                -0.809
REMARK  Name = 
REMARK  6 active torsions:
REMARK  status: ('A' for Active; 'I' for Inactive)
REMARK    1  A    between atoms: C_2  and  C_4
REMARK    2  A    between atoms: N_8  and  C_9
REMARK    3  A    between atoms: C_9  and  C_10
REMARK    4  A    between atoms: C_10  and  C_13
REMARK    5  A    between atoms: C_17  and  O_18
REMARK    6  A    between atoms: O_18  and  C_19
REMARK                            x       y       z     vdW  Elec       q    Type
REMARK                         _______ _______ _______ _____ _____    ______ ____
ROOT
ATOM      1  C   UNL     1      44.775   4.862  12.295  0.00  0.00    +0.000 C 
ATOM      2  F   UNL     1      44.207   4.644  13.520  0.00  0.00    +0.000 F 
ATOM      3  F   UNL     1      45.632   3.815  12.104  0.00  0.00    +0.000 F 
ENDROOT
BRANCH   1   4
ATOM      4  C   UNL     1      45.498   6.196  12.230  0.00  0.00    +0.000 A 
ATOM      5  C   UNL     1      46.867   6.260  11.948  0.00  0.00    +0.000 A 
ATOM      6  C   UNL     1      47.520   7.494  11.899  0.00  0.00    +0.000 A 
ATOM      7  C   UNL     1      46.818   8.678  12.138  0.00  0.00    +0.000 A 
ATOM      8  C   UNL     1      45.457   8.627  12.432  0.00  0.00    +0.000 A 
ATOM      9  C   UNL     1      44.802   7.393  12.470  0.00  0.00    +0.000 A 
BRANCH   8  10
ATOM     10  O   UNL     1      44.658   9.718  12.658  0.00  0.00    +0.000 OA
BRANCH  10  11
ATOM     11  C   UNL     1      44.213  10.515  11.535  0.00  0.00    +0.000 C 
ATOM     12  C   UNL     1      42.767  11.049  11.559  0.00  0.00    +0.000 C 
ATOM     13  N   UNL     1      42.501  10.446  10.246  0.00  0.00    +0.000 NA
ATOM     14  C   UNL     1      43.765   9.700  10.303  0.00  0.00    +0.000 C 
ATOM     15  H   UNL     1      42.447  11.114   9.478  0.00  0.00    +0.000 HD
ENDBRANCH  10  11
ENDBRANCH   8  10
ENDBRANCH   1   4
BRANCH   1  16
ATOM     16  C   UNL     1      43.656   4.800  11.223  0.00  0.00    +0.000 C 
BRANCH  16  21
ATOM     17  C   UNL     1      46.578   2.604   7.671  0.00  0.00    +0.000 A 
ATOM     18  C   UNL     1      45.670   2.029   8.552  0.00  0.00    +0.000 A 
ATOM     19  C   UNL     1      44.851   2.858   9.319  0.00  0.00    +0.000 A 
ATOM     20  C   UNL     1      44.966   4.242   9.209  0.00  0.00    +0.000 A 
ATOM     21  N   UNL     1      44.129   5.119   9.869  0.00  0.00    +0.000 N 
ATOM     22  N   UNL     1      45.869   4.808   8.385  0.00  0.00    +0.000 NA
ATOM     23  C   UNL     1      46.656   3.987   7.639  0.00  0.00    +0.000 A 
ATOM     24  H   UNL     1      44.479   6.067   9.736  0.00  0.00    +0.000 HD
BRANCH  17  26
ATOM     25  N   UNL     1      48.606   2.391   6.357  0.00  0.00    +0.000 N 
ATOM     26  C   UNL     1      47.447   1.804   6.785  0.00  0.00    +0.000 C 
ATOM     27  O   UNL     1      47.162   0.656   6.476  0.00  0.00    +0.000 OA
ATOM     28  H   UNL     1      49.244   1.795   5.843  0.00  0.00    +0.000 HD
ATOM     29  H   UNL     1      48.993   3.219   6.789  0.00  0.00    +0.000 HD
ENDBRANCH  17  26
ENDBRANCH  16  21
ENDBRANCH   1  16
TORSDOF 6
ENDMDL
MODEL 5
REMARK VINA RESULT:    -7.998      2.235      8.096
REMARK INTER + INTRA:         -11.612
REMARK INTER:                 -11.083
REMARK INTRA:                  -0.530
REMARK UNBOUND:                -0.809
REMARK  Name = 
REMARK  6 active torsions:
REMARK  status: ('A' for Active; 'I' for Inactive)
REMARK    1  A    between atoms: C_2  and  C_4
REMARK    2  A    between atoms: N_8  and  C_9
REMARK    3  A    between atoms: C_9  and  C_10
REMARK    4  A    between atoms: C_10  and  C_13
REMARK    5  A    between atoms: C_17  and  O_18
REMARK    6  A    between atoms: O_18  and  C_19
REMARK                            x       y       z     vdW  Elec       q    Type
REMARK                         _______ _______ _______ _____ _____    ______ ____
ROOT
ATOM      1  C   UNL     1      45.464   5.902  11.504  0.00  0.00    +0.000 C 
ATOM      2  F   UNL     1      44.418   6.782  11.548  0.00  0.00    +0.000 F 
ATOM      3  F   UNL     1      46.538   6.640  11.093  0.00  0.00    +0.000 F 
ENDROOT
BRANCH   1   4
ATOM      4  C   UNL     1      45.192   4.739  10.567  0.00  0.00    +0.000 A 
ATOM      5  C   UNL     1      44.433   3.639  10.985  0.00  0.00    +0.000 A 
ATOM      6  C   UNL     1      44.196   2.573  10.114  0.00  0.00    +0.000 A 
ATOM      7  C   UNL     1      44.721   2.585   8.818  0.00  0.00    +0.000 A 
ATOM      8  C   UNL     1      45.489   3.668   8.395  0.00  0.00    +0.000 A 
ATOM      9  C   UNL     1      45.715   4.739   9.263  0.00  0.00    +0.000 A 
BRANCH   8  10
ATOM     10  O   UNL     1      46.033   3.806   7.144  0.00  0.00    +0.000 OA
BRANCH  10  11
ATOM     11  C   UNL     1      46.488   2.629   6.436  0.00  0.00    +0.000 C 
ATOM     12  C   UNL     1      47.718   1.885   6.993  0.00  0.00    +0.000 C 
ATOM     13  N   UNL     1      48.394   1.985   5.691  0.00  0.00    +0.000 NA
ATOM     14  C   UNL     1      47.371   2.919   5.203  0.00  0.00    +0.000 C 
ATOM     15  H   UNL     1      48.437   1.109   5.172  0.00  0.00    +0.000 HD
ENDBRANCH  10  11
ENDBRANCH   8  10
ENDBRANCH   1   4
BRANCH   1  16
ATOM     16  C   UNL     1      45.726   5.388  12.943  0.00  0.00    +0.000 C 
BRANCH  16  21
ATOM     17  C   UNL     1      48.493   4.418  17.113  0.00  0.00    +0.000 A 
ATOM     18  C   UNL     1      47.550   3.625  16.470  0.00  0.00    +0.000 A 
ATOM     19  C   UNL     1      47.047   4.035  15.236  0.00  0.00    +0.000 A 
ATOM     20  C   UNL     1      47.477   5.235  14.674  0.00  0.00    +0.000 A 
ATOM     21  N   UNL     1      47.090   5.658  13.418  0.00  0.00    +0.000 N 
ATOM     22  N   UNL     1      48.363   6.029  15.307  0.00  0.00    +0.000 NA
ATOM     23  C   UNL     1      48.849   5.612  16.507  0.00  0.00    +0.000 A 
ATOM     24  H   UNL     1      47.427   6.610  13.275  0.00  0.00    +0.000 HD
BRANCH  17  26
ATOM     25  N   UNL     1      48.372   3.257  19.239  0.00  0.00    +0.000 N 
ATOM     26  C   UNL     1      49.115   4.037  18.396  0.00  0.00    +0.000 C 
ATOM     27  O   UNL     1      50.257   4.373  18.678  0.00  0.00    +0.000 OA
ATOM     28  H   UNL     1      48.851   2.911  20.063  0.00  0.00    +0.000 HD
ATOM     29  H   UNL     1      47.548   2.757  18.938  0.00  0.00    +0.000 HD
ENDBRANCH  17  26
ENDBRANCH  16  21
ENDBRANCH   1  16
TORSDOF 6
ENDMDL
MODEL 6
REMARK VINA RESULT:    -7.816      3.009      3.847
REMARK INTER + INTRA:         -11.367
REMARK INTER:                 -10.763
REMARK INTRA:                  -0.604
REMARK UNBOUND:                -0.809
REMARK  Name = 
REMARK  6 active torsions:
REMARK  status: ('A' for Active; 'I' for Inactive)
REMARK    1  A    between atoms: C_2  and  C_4
REMARK    2  A    between atoms: N_8  and  C_9
REMARK    3  A    between atoms: C_9  and  C_10
REMARK    4  A    between atoms: C_10  and  C_13
REMARK    5  A    between atoms: C_17  and  O_18
REMARK    6  A    between atoms: O_18  and  C_19
REMARK                            x       y       z     vdW  Elec       q    Type
REMARK                         _______ _______ _______ _____ _____    ______ ____
ROOT
ATOM      1  C   UNL     1      44.752   4.836  12.241  0.00  0.00    +0.000 C 
ATOM      2  F   UNL     1      44.149   4.608  13.447  0.00  0.00    +0.000 F 
ATOM      3  F   UNL     1      45.605   3.783  12.061  0.00  0.00    +0.000 F 
ENDROOT
BRANCH   1   4
ATOM      4  C   UNL     1      45.487   6.164  12.210  0.00  0.00    +0.000 A 
ATOM      5  C   UNL     1      44.785   7.375  12.199  0.00  0.00    +0.000 A 
ATOM      6  C   UNL     1      45.475   8.589  12.164  0.00  0.00    +0.000 A 
ATOM      7  C   UNL     1      46.872   8.611  12.131  0.00  0.00    +0.000 A 
ATOM      8  C   UNL     1      47.581   7.412  12.129  0.00  0.00    +0.000 A 
ATOM      9  C   UNL     1      46.891   6.198  12.176  0.00  0.00    +0.000 A 
BRANCH   8  10
ATOM     10  O   UNL     1      48.949   7.305  12.125  0.00  0.00    +0.000 OA
BRANCH  10  11
ATOM     11  C   UNL     1      49.713   8.034  11.136  0.00  0.00    +0.000 C 
ATOM     12  C   UNL     1      51.199   7.663  10.959  0.00  0.00    +0.000 C 
ATOM     13  N   UNL     1      51.594   9.063  11.170  0.00  0.00    +0.000 NA
ATOM     14  C   UNL     1      50.234   9.408  11.607  0.00  0.00    +0.000 C 
ATOM     15  H   UNL     1      51.894   9.548  10.325  0.00  0.00    +0.000 HD
ENDBRANCH  10  11
ENDBRANCH   8  10
ENDBRANCH   1   4
BRANCH   1  16
ATOM     16  C   UNL     1      43.661   4.795  11.139  0.00  0.00    +0.000 C 
BRANCH  16  21
ATOM     17  C   UNL     1      46.567   2.605   7.569  0.00  0.00    +0.000 A 
ATOM     18  C   UNL     1      45.622   2.037   8.416  0.00  0.00    +0.000 A 
ATOM     19  C   UNL     1      44.820   2.871   9.194  0.00  0.00    +0.000 A 
ATOM     20  C   UNL     1      44.987   4.252   9.131  0.00  0.00    +0.000 A 
ATOM     21  N   UNL     1      44.170   5.139   9.804  0.00  0.00    +0.000 N 
ATOM     22  N   UNL     1      45.925   4.810   8.341  0.00  0.00    +0.000 NA
ATOM     23  C   UNL     1      46.695   3.984   7.582  0.00  0.00    +0.000 A 
ATOM     24  H   UNL     1      44.557   6.077   9.707  0.00  0.00    +0.000 HD
BRANCH  17  26
ATOM     25  N   UNL     1      48.474   2.444   6.078  0.00  0.00    +0.000 N 
ATOM     26  C   UNL     1      47.422   1.802   6.673  0.00  0.00    +0.000 C 
ATOM     27  O   UNL     1      47.222   0.609   6.498  0.00  0.00    +0.000 OA
ATOM     28  H   UNL     1      49.115   1.858   5.557  0.00  0.00    +0.000 HD
ATOM     29  H   UNL     1      48.816   3.340   6.393  0.00  0.00    +0.000 HD
ENDBRANCH  17  26
ENDBRANCH  16  21
ENDBRANCH   1  16
TORSDOF 6
ENDMDL
MODEL 7
REMARK VINA RESULT:    -7.801      2.150      8.079
REMARK INTER + INTRA:         -11.346
REMARK INTER:                 -10.848
REMARK INTRA:                  -0.498
REMARK UNBOUND:                -0.809
REMARK  Name = 
REMARK  6 active torsions:
REMARK  status: ('A' for Active; 'I' for Inactive)
REMARK    1  A    between atoms: C_2  and  C_4
REMARK    2  A    between atoms: N_8  and  C_9
REMARK    3  A    between atoms: C_9  and  C_10
REMARK    4  A    between atoms: C_10  and  C_13
REMARK    5  A    between atoms: C_17  and  O_18
REMARK    6  A    between atoms: O_18  and  C_19
REMARK                            x       y       z     vdW  Elec       q    Type
REMARK                         _______ _______ _______ _____ _____    ______ ____
ROOT
ATOM      1  C   UNL     1      45.388   5.981  11.613  0.00  0.00    +0.000 C 
ATOM      2  F   UNL     1      44.307   6.272  12.398  0.00  0.00    +0.000 F 
ATOM      3  F   UNL     1      45.664   7.136  10.938  0.00  0.00    +0.000 F 
ENDROOT
BRANCH   1   4
ATOM      4  C   UNL     1      45.111   4.829  10.664  0.00  0.00    +0.000 A 
ATOM      5  C   UNL     1      44.284   3.765  11.043  0.00  0.00    +0.000 A 
ATOM      6  C   UNL     1      44.044   2.709  10.161  0.00  0.00    +0.000 A 
ATOM      7  C   UNL     1      44.633   2.696   8.894  0.00  0.00    +0.000 A 
ATOM      8  C   UNL     1      45.467   3.742   8.509  0.00  0.00    +0.000 A 
ATOM      9  C   UNL     1      45.698   4.804   9.387  0.00  0.00    +0.000 A 
BRANCH   8  10
ATOM     10  O   UNL     1      46.078   3.854   7.286  0.00  0.00    +0.000 OA
BRANCH  10  11
ATOM     11  C   UNL     1      46.454   2.654   6.570  0.00  0.00    +0.000 C 
ATOM     12  C   UNL     1      47.699   1.885   7.058  0.00  0.00    +0.000 C 
ATOM     13  N   UNL     1      48.288   1.945   5.713  0.00  0.00    +0.000 NA
ATOM     14  C   UNL     1      47.260   2.900   5.277  0.00  0.00    +0.000 C 
ATOM     15  H   UNL     1      48.274   1.060   5.207  0.00  0.00    +0.000 HD
ENDBRANCH  10  11
ENDBRANCH   8  10
ENDBRANCH   1   4
BRANCH   1  16
ATOM     16  C   UNL     1      46.583   5.642  12.541  0.00  0.00    +0.000 C 
BRANCH  16  21
ATOM     17  C   UNL     1      48.517   4.354  17.078  0.00  0.00    +0.000 A 
ATOM     18  C   UNL     1      48.503   5.587  16.437  0.00  0.00    +0.000 A 
ATOM     19  C   UNL     1      47.756   5.737  15.270  0.00  0.00    +0.000 A 
ATOM     20  C   UNL     1      47.053   4.652  14.751  0.00  0.00    +0.000 A 
ATOM     21  N   UNL     1      46.222   4.751  13.653  0.00  0.00    +0.000 N 
ATOM     22  N   UNL     1      47.090   3.443  15.345  0.00  0.00    +0.000 NA
ATOM     23  C   UNL     1      47.818   3.314  16.487  0.00  0.00    +0.000 A 
ATOM     24  H   UNL     1      45.919   3.814  13.387  0.00  0.00    +0.000 HD
BRANCH  17  26
ATOM     25  N   UNL     1      48.524   3.574  19.375  0.00  0.00    +0.000 N 
ATOM     26  C   UNL     1      49.239   4.120  18.344  0.00  0.00    +0.000 C 
ATOM     27  O   UNL     1      50.431   4.368  18.457  0.00  0.00    +0.000 OA
ATOM     28  H   UNL     1      49.055   3.316  20.198  0.00  0.00    +0.000 HD
ATOM     29  H   UNL     1      47.629   3.126  19.243  0.00  0.00    +0.000 HD
ENDBRANCH  17  26
ENDBRANCH  16  21
ENDBRANCH   1  16
TORSDOF 6
ENDMDL
MODEL 8
REMARK VINA RESULT:    -7.218      3.420      7.708
REMARK INTER + INTRA:         -10.559
REMARK INTER:                  -9.894
REMARK INTRA:                  -0.665
REMARK UNBOUND:                -0.809
REMARK  Name = 
REMARK  6 active torsions:
REMARK  status: ('A' for Active; 'I' for Inactive)
REMARK    1  A    between atoms: C_2  and  C_4
REMARK    2  A    between atoms: N_8  and  C_9
REMARK    3  A    between atoms: C_9  and  C_10
REMARK    4  A    between atoms: C_10  and  C_13
REMARK    5  A    between atoms: C_17  and  O_18
REMARK    6  A    between atoms: O_18  and  C_19
REMARK                            x       y       z     vdW  Elec       q    Type
REMARK                         _______ _______ _______ _____ _____    ______ ____
ROOT
ATOM      1  C   UNL     1      45.127   5.894  11.413  0.00  0.00    +0.000 C 
ATOM      2  F   UNL     1      43.925   6.293  11.930  0.00  0.00    +0.000 F 
ATOM      3  F   UNL     1      45.618   6.987  10.758  0.00  0.00    +0.000 F 
ENDROOT
BRANCH   1   4
ATOM      4  C   UNL     1      44.981   4.702  10.484  0.00  0.00    +0.000 A 
ATOM      5  C   UNL     1      44.265   3.565  10.877  0.00  0.00    +0.000 A 
ATOM      6  C   UNL     1      44.145   2.473  10.014  0.00  0.00    +0.000 A 
ATOM      7  C   UNL     1      44.745   2.498   8.751  0.00  0.00    +0.000 A 
ATOM      8  C   UNL     1      45.470   3.619   8.353  0.00  0.00    +0.000 A 
ATOM      9  C   UNL     1      45.580   4.715   9.213  0.00  0.00    +0.000 A 
BRANCH   8  10
ATOM     10  O   UNL     1      46.078   3.771   7.133  0.00  0.00    +0.000 OA
BRANCH  10  11
ATOM     11  C   UNL     1      46.533   2.599   6.418  0.00  0.00    +0.000 C 
ATOM     12  C   UNL     1      47.766   1.854   6.968  0.00  0.00    +0.000 C 
ATOM     13  N   UNL     1      48.438   1.961   5.665  0.00  0.00    +0.000 NA
ATOM     14  C   UNL     1      47.412   2.896   5.185  0.00  0.00    +0.000 C 
ATOM     15  H   UNL     1      48.482   1.088   5.141  0.00  0.00    +0.000 HD
ENDBRANCH  10  11
ENDBRANCH   8  10
ENDBRANCH   1   4
BRANCH   1  16
ATOM     16  C   UNL     1      46.071   5.547  12.594  0.00  0.00    +0.000 C 
BRANCH  16  21
ATOM     17  C   UNL     1      50.363   8.205  13.297  0.00  0.00    +0.000 A 
ATOM     18  C   UNL     1      49.872   7.602  12.145  0.00  0.00    +0.000 A 
ATOM     19  C   UNL     1      48.580   7.076  12.153  0.00  0.00    +0.000 A 
ATOM     20  C   UNL     1      47.809   7.143  13.311  0.00  0.00    +0.000 A 
ATOM     21  N   UNL     1      46.495   6.725  13.364  0.00  0.00    +0.000 N 
ATOM     22  N   UNL     1      48.291   7.693  14.443  0.00  0.00    +0.000 NA
ATOM     23  C   UNL     1      49.549   8.208  14.419  0.00  0.00    +0.000 A 
ATOM     24  H   UNL     1      46.182   6.754  14.334  0.00  0.00    +0.000 HD
BRANCH  17  26
ATOM     25  N   UNL     1      52.759   8.009  13.618  0.00  0.00    +0.000 N 
ATOM     26  C   UNL     1      51.697   8.833  13.363  0.00  0.00    +0.000 C 
ATOM     27  O   UNL     1      51.853  10.029  13.163  0.00  0.00    +0.000 OA
ATOM     28  H   UNL     1      53.677   8.431  13.550  0.00  0.00    +0.000 HD
ATOM     29  H   UNL     1      52.705   7.004  13.532  0.00  0.00    +0.000 HD
ENDBRANCH  17  26
ENDBRANCH  16  21
ENDBRANCH   1  16
TORSDOF 6
ENDMDL
MODEL 9
REMARK VINA RESULT:    -6.847      2.453      8.076
REMARK INTER + INTRA:         -10.057
REMARK INTER:                  -9.634
REMARK INTRA:                  -0.424
REMARK UNBOUND:                -0.809
REMARK  Name = 
REMARK  6 active torsions:
REMARK  status: ('A' for Active; 'I' for Inactive)
REMARK    1  A    between atoms: C_2  and  C_4
REMARK    2  A    between atoms: N_8  and  C_9
REMARK    3  A    between atoms: C_9  and  C_10
REMARK    4  A    between atoms: C_10  and  C_13
REMARK    5  A    between atoms: C_17  and  O_18
REMARK    6  A    between atoms: O_18  and  C_19
REMARK                            x       y       z     vdW  Elec       q    Type
REMARK                         _______ _______ _______ _____ _____    ______ ____
ROOT
ATOM      1  C   UNL     1      46.289   6.531  12.515  0.00  0.00    +0.000 C 
ATOM      2  F   UNL     1      45.869   7.604  13.252  0.00  0.00    +0.000 F 
ATOM      3  F   UNL     1      46.924   7.067  11.430  0.00  0.00    +0.000 F 
ENDROOT
BRANCH   1   4
ATOM      4  C   UNL     1      45.135   5.634  12.103  0.00  0.00    +0.000 A 
ATOM      5  C   UNL     1      43.813   5.972  12.416  0.00  0.00    +0.000 A 
ATOM      6  C   UNL     1      42.762   5.133  12.037  0.00  0.00    +0.000 A 
ATOM      7  C   UNL     1      43.017   3.944  11.348  0.00  0.00    +0.000 A 
ATOM      8  C   UNL     1      44.330   3.591  11.042  0.00  0.00    +0.000 A 
ATOM      9  C   UNL     1      45.379   4.436  11.412  0.00  0.00    +0.000 A 
BRANCH   8  10
ATOM     10  O   UNL     1      44.702   2.467  10.349  0.00  0.00    +0.000 OA
BRANCH  10  11
ATOM     11  C   UNL     1      44.637   2.473   8.904  0.00  0.00    +0.000 C 
ATOM     12  C   UNL     1      45.895   2.039   8.125  0.00  0.00    +0.000 C 
ATOM     13  N   UNL     1      45.881   3.294   7.361  0.00  0.00    +0.000 NA
ATOM     14  C   UNL     1      44.857   3.855   8.253  0.00  0.00    +0.000 C 
ATOM     15  H   UNL     1      45.578   3.194   6.393  0.00  0.00    +0.000 HD
ENDBRANCH  10  11
ENDBRANCH   8  10
ENDBRANCH   1   4
BRANCH   1  16
ATOM     16  C   UNL     1      47.318   5.736  13.360  0.00  0.00    +0.000 C 
BRANCH  16  21
ATOM     17  C   UNL     1      48.690   4.565  18.127  0.00  0.00    +0.000 A 
ATOM     18  C   UNL     1      48.968   5.702  17.378  0.00  0.00    +0.000 A 
ATOM     19  C   UNL     1      48.333   5.876  16.149  0.00  0.00    +0.000 A 
ATOM     20  C   UNL     1      47.449   4.907  15.679  0.00  0.00    +0.000 A 
ATOM     21  N   UNL     1      46.719   5.056  14.517  0.00  0.00    +0.000 N 
ATOM     22  N   UNL     1      47.202   3.784  16.382  0.00  0.00    +0.000 NA
ATOM     23  C   UNL     1      47.824   3.631  17.582  0.00  0.00    +0.000 A 
ATOM     24  H   UNL     1      46.244   4.177  14.316  0.00  0.00    +0.000 HD
BRANCH  17  26
ATOM     25  N   UNL     1      48.474   3.726  20.393  0.00  0.00    +0.000 N 
ATOM     26  C   UNL     1      49.277   4.324  19.460  0.00  0.00    +0.000 C 
ATOM     27  O   UNL     1      50.439   4.611  19.709  0.00  0.00    +0.000 OA
ATOM     28  H   UNL     1      48.922   3.466  21.264  0.00  0.00    +0.000 HD
ATOM     29  H   UNL     1      47.617   3.250  20.153  0.00  0.00    +0.000 HD
ENDBRANCH  17  26
ENDBRANCH  16  21
ENDBRANCH   1  16
TORSDOF 6
ENDMDL
