MODEL 1
REMARK VINA RESULT:    -9.101      0.000      0.000
REMARK INTER + INTRA:         -12.279
REMARK INTER:                 -11.229
REMARK INTRA:                  -1.049
REMARK UNBOUND:                -1.049
REMARK  Name = 
REMARK  4 active torsions:
REMARK  status: ('A' for Active; 'I' for Inactive)
REMARK    1  A    between atoms: C_2  and  C_4
REMARK    2  A    between atoms: N_8  and  C_9
REMARK    3  A    between atoms: C_9  and  C_10
REMARK    4  A    between atoms: C_14  and  C_15
REMARK                            x       y       z     vdW  Elec       q    Type
REMARK                         _______ _______ _______ _____ _____    ______ ____
ROOT
ATOM      1  C   UNL     1      43.823   4.894  11.383  0.00  0.00    +0.000 C 
ATOM      2  C   UNL     1      42.506   5.140  12.106  0.00  0.00    +0.000 C 
ATOM      3  C   UNL     1      42.948   6.086  11.040  0.00  0.00    +0.000 C 
ENDROOT
BRANCH   1   8
ATOM      4  C   UNL     1      46.581   2.787   7.511  0.00  0.00    +0.000 A 
ATOM      5  C   UNL     1      46.263   4.120   7.724  0.00  0.00    +0.000 A 
ATOM      6  C   UNL     1      45.393   4.462   8.764  0.00  0.00    +0.000 A 
ATOM      7  C   UNL     1      44.848   3.460   9.559  0.00  0.00    +0.000 A 
ATOM      8  N   UNL     1      43.863   3.699  10.523  0.00  0.00    +0.000 N 
ATOM      9  N   UNL     1      45.159   2.160   9.369  0.00  0.00    +0.000 NA
ATOM     10  C   UNL     1      46.007   1.846   8.357  0.00  0.00    +0.000 A 
ATOM     11  H   UNL     1      43.718   2.804  10.986  0.00  0.00    +0.000 HD
BRANCH   4  13
ATOM     12  N   UNL     1      47.341   2.972   5.207  0.00  0.00    +0.000 N 
ATOM     13  C   UNL     1      47.440   2.316   6.402  0.00  0.00    +0.000 C 
ATOM     14  O   UNL     1      48.222   1.385   6.548  0.00  0.00    +0.000 OA
ATOM     15  H   UNL     1      47.987   2.685   4.484  0.00  0.00    +0.000 HD
ATOM     16  H   UNL     1      46.900   3.875   5.108  0.00  0.00    +0.000 HD
ENDBRANCH   4  13
ENDBRANCH   1   8
BRANCH   1  17
ATOM     17  C   UNL     1      45.105   5.102  12.184  0.00  0.00    +0.000 A 
ATOM     18  C   UNL     1      45.576   4.121  13.071  0.00  0.00    +0.000 A 
ATOM     19  C   UNL     1      46.797   4.261  13.729  0.00  0.00    +0.000 A 
ATOM     20  C   UNL     1      47.580   5.394  13.512  0.00  0.00    +0.000 A 
ATOM     21  C   UNL     1      47.155   6.405  12.637  0.00  0.00    +0.000 A 
ATOM     22  C   UNL     1      45.910   6.241  12.000  0.00  0.00    +0.000 A 
BRANCH  21  23
ATOM     23  C   UNL     1      48.010   7.559  12.307  0.00  0.00    +0.000 A 
ATOM     24  C   UNL     1      47.511   8.864  12.234  0.00  0.00    +0.000 A 
ATOM     25  N   UNL     1      48.221   9.946  11.826  0.00  0.00    +0.000 NA
ATOM     26  C   UNL     1      49.509   9.726  11.482  0.00  0.00    +0.000 A 
ATOM     27  C   UNL     1      50.117   8.483  11.546  0.00  0.00    +0.000 A 
ATOM     28 CL   UNL     1      51.758   8.277  11.087  0.00  0.00    +0.000 Cl
ATOM     29  C   UNL     1      49.360   7.393  11.965  0.00  0.00    +0.000 A 
ENDBRANCH  21  23
ENDBRANCH   1  17
TORSDOF 4
ENDMDL
MODEL 2
REMARK VINA RESULT:    -8.886      2.479      3.654
REMARK INTER + INTRA:         -12.013
REMARK INTER:                 -11.496
REMARK INTRA:                  -0.518
REMARK UNBOUND:                -1.049
REMARK  Name = 
REMARK  4 active torsions:
REMARK  status: ('A' for Active; 'I' for Inactive)
REMARK    1  A    between atoms: C_2  and  C_4
REMARK    2  A    between atoms: N_8  and  C_9
REMARK    3  A    between atoms: C_9  and  C_10
REMARK    4  A    between atoms: C_14  and  C_15
REMARK                            x       y       z     vdW  Elec       q    Type
REMARK                         _______ _______ _______ _____ _____    ______ ____
ROOT
ATOM      1  C   UNL     1      43.926   4.896  11.474  0.00  0.00    +0.000 C 
ATOM      2  C   UNL     1      42.761   5.002  12.449  0.00  0.00    +0.000 C 
ATOM      3  C   UNL     1      42.821   5.918  11.272  0.00  0.00    +0.000 C 
ENDROOT
BRANCH   1   8
ATOM      4  C   UNL     1      46.484   2.761   7.482  0.00  0.00    +0.000 A 
ATOM      5  C   UNL     1      46.087   4.079   7.653  0.00  0.00    +0.000 A 
ATOM      6  C   UNL     1      45.289   4.421   8.749  0.00  0.00    +0.000 A 
ATOM      7  C   UNL     1      44.892   3.432   9.642  0.00  0.00    +0.000 A 
ATOM      8  N   UNL     1      43.980   3.659  10.678  0.00  0.00    +0.000 N 
ATOM      9  N   UNL     1      45.281   2.148   9.493  0.00  0.00    +0.000 NA
ATOM     10  C   UNL     1      46.058   1.834   8.426  0.00  0.00    +0.000 A 
ATOM     11  H   UNL     1      43.943   2.785  11.199  0.00  0.00    +0.000 HD
BRANCH   4  13
ATOM     12  N   UNL     1      47.236   3.039   5.184  0.00  0.00    +0.000 N 
ATOM     13  C   UNL     1      47.276   2.287   6.326  0.00  0.00    +0.000 C 
ATOM     14  O   UNL     1      47.953   1.269   6.388  0.00  0.00    +0.000 OA
ATOM     15  H   UNL     1      47.839   2.739   4.430  0.00  0.00    +0.000 HD
ATOM     16  H   UNL     1      46.894   3.988   5.161  0.00  0.00    +0.000 HD
ENDBRANCH   4  13
ENDBRANCH   1   8
BRANCH   1  17
ATOM     17  C   UNL     1      45.294   5.350  11.974  0.00  0.00    +0.000 A 
ATOM     18  C   UNL     1      46.017   6.352  11.307  0.00  0.00    +0.000 A 
ATOM     19  C   UNL     1      47.219   6.843  11.816  0.00  0.00    +0.000 A 
ATOM     20  C   UNL     1      47.729   6.337  13.011  0.00  0.00    +0.000 A 
ATOM     21  C   UNL     1      47.047   5.334  13.716  0.00  0.00    +0.000 A 
ATOM     22  C   UNL     1      45.843   4.849  13.168  0.00  0.00    +0.000 A 
BRANCH  21  23
ATOM     23  C   UNL     1      47.507   4.860  15.033  0.00  0.00    +0.000 A 
ATOM     24  C   UNL     1      47.150   3.607  15.544  0.00  0.00    +0.000 A 
ATOM     25  N   UNL     1      47.446   3.162  16.791  0.00  0.00    +0.000 NA
ATOM     26  C   UNL     1      48.151   4.006  17.578  0.00  0.00    +0.000 A 
ATOM     27  C   UNL     1      48.584   5.256  17.168  0.00  0.00    +0.000 A 
ATOM     28 CL   UNL     1      49.471   6.275  18.225  0.00  0.00    +0.000 Cl
ATOM     29  C   UNL     1      48.260   5.682  15.883  0.00  0.00    +0.000 A 
ENDBRANCH  21  23
ENDBRANCH   1  17
TORSDOF 4
ENDMDL
MODEL 3
REMARK VINA RESULT:    -7.151      4.616      8.271
REMARK INTER + INTRA:          -9.873
REMARK INTER:                  -9.018
REMARK INTRA:                  -0.854
REMARK UNBOUND:                -1.049
REMARK  Name = 
REMARK  4 active torsions:
REMARK  status: ('A' for Active; 'I' for Inactive)
REMARK    1  A    between atoms: C_2  and  C_4
REMARK    2  A    between atoms: N_8  and  C_9
REMARK    3  A    between atoms: C_9  and  C_10
REMARK    4  A    between atoms: C_14  and  C_15
REMARK                            x       y       z     vdW  Elec       q    Type
REMARK                         _______ _______ _______ _____ _____    ______ ____
ROOT
ATOM      1  C   UNL     1      48.741   7.711  12.736  0.00  0.00    +0.000 C 
ATOM      2  C   UNL     1      49.723   8.009  11.611  0.00  0.00    +0.000 C 
ATOM      3  C   UNL     1      49.409   9.069  12.613  0.00  0.00    +0.000 C 
ENDROOT
BRANCH   1   8
ATOM      4  C   UNL     1      48.458   6.669  17.822  0.00  0.00    +0.000 A 
ATOM      5  C   UNL     1      48.575   7.900  17.194  0.00  0.00    +0.000 A 
ATOM      6  C   UNL     1      48.768   7.950  15.810  0.00  0.00    +0.000 A 
ATOM      7  C   UNL     1      48.857   6.767  15.087  0.00  0.00    +0.000 A 
ATOM      8  N   UNL     1      49.191   6.723  13.730  0.00  0.00    +0.000 N 
ATOM      9  N   UNL     1      48.732   5.562  15.685  0.00  0.00    +0.000 NA
ATOM     10  C   UNL     1      48.542   5.531  17.028  0.00  0.00    +0.000 A 
ATOM     11  H   UNL     1      49.106   5.744  13.464  0.00  0.00    +0.000 HD
BRANCH   4  13
ATOM     12  N   UNL     1      47.396   5.594  19.730  0.00  0.00    +0.000 N 
ATOM     13  C   UNL     1      48.313   6.506  19.286  0.00  0.00    +0.000 C 
ATOM     14  O   UNL     1      48.995   7.150  20.073  0.00  0.00    +0.000 OA
ATOM     15  H   UNL     1      47.362   5.444  20.729  0.00  0.00    +0.000 HD
ATOM     16  H   UNL     1      46.991   4.884  19.136  0.00  0.00    +0.000 HD
ENDBRANCH   4  13
ENDBRANCH   1   8
BRANCH   1  17
ATOM     17  C   UNL     1      47.272   7.553  12.353  0.00  0.00    +0.000 A 
ATOM     18  C   UNL     1      46.353   8.596  12.547  0.00  0.00    +0.000 A 
ATOM     19  C   UNL     1      45.034   8.496  12.107  0.00  0.00    +0.000 A 
ATOM     20  C   UNL     1      44.602   7.340  11.457  0.00  0.00    +0.000 A 
ATOM     21  C   UNL     1      45.480   6.267  11.239  0.00  0.00    +0.000 A 
ATOM     22  C   UNL     1      46.802   6.395  11.709  0.00  0.00    +0.000 A 
BRANCH  21  23
ATOM     23  C   UNL     1      45.080   5.082  10.461  0.00  0.00    +0.000 A 
ATOM     24  C   UNL     1      44.242   4.091  10.984  0.00  0.00    +0.000 A 
ATOM     25  N   UNL     1      43.932   2.926  10.361  0.00  0.00    +0.000 NA
ATOM     26  C   UNL     1      44.474   2.736   9.137  0.00  0.00    +0.000 A 
ATOM     27  C   UNL     1      45.290   3.661   8.509  0.00  0.00    +0.000 A 
ATOM     28 CL   UNL     1      45.948   3.348   6.955  0.00  0.00    +0.000 Cl
ATOM     29  C   UNL     1      45.592   4.844   9.177  0.00  0.00    +0.000 A 
ENDBRANCH  21  23
ENDBRANCH   1  17
TORSDOF 4
ENDMDL
MODEL 4
REMARK VINA RESULT:    -6.450      3.146      7.041
REMARK INTER + INTRA:          -9.008
REMARK INTER:                  -8.083
REMARK INTRA:                  -0.925
REMARK UNBOUND:                -1.049
REMARK  Name = 
REMARK  4 active torsions:
REMARK  status: ('A' for Active; 'I' for Inactive)
REMARK    1  A    between atoms: C_2  and  C_4
REMARK    2  A    between atoms: N_8  and  C_9
REMARK    3  A    between atoms: C_9  and  C_10
REMARK    4  A    between atoms: C_14  and  C_15
REMARK                            x       y       z     vdW  Elec       q    Type
REMARK                         _______ _______ _______ _____ _____    ______ ____
ROOT
ATOM      1  C   UNL     1      46.069   5.043  13.283  0.00  0.00    +0.000 C 
ATOM      2  C   UNL     1      45.900   4.093  14.461  0.00  0.00    +0.000 C 
ATOM      3  C   UNL     1      47.169   4.072  13.675  0.00  0.00    +0.000 C 
ENDROOT
BRANCH   1   8
ATOM      4  C   UNL     1      48.325   9.455  11.711  0.00  0.00    +0.000 A 
ATOM      5  C   UNL     1      48.849   8.170  11.726  0.00  0.00    +0.000 A 
ATOM      6  C   UNL     1      48.116   7.136  12.315  0.00  0.00    +0.000 A 
ATOM      7  C   UNL     1      46.881   7.413  12.891  0.00  0.00    +0.000 A 
ATOM      8  N   UNL     1      46.151   6.472  13.625  0.00  0.00    +0.000 N 
ATOM      9  N   UNL     1      46.356   8.657  12.873  0.00  0.00    +0.000 NA
ATOM     10  C   UNL     1      47.079   9.649  12.294  0.00  0.00    +0.000 A 
ATOM     11  H   UNL     1      45.273   6.933  13.854  0.00  0.00    +0.000 HD
BRANCH   4  13
ATOM     12  N   UNL     1      50.241  10.955  11.746  0.00  0.00    +0.000 N 
ATOM     13  C   UNL     1      49.047  10.628  11.168  0.00  0.00    +0.000 C 
ATOM     14  O   UNL     1      48.601  11.275  10.228  0.00  0.00    +0.000 OA
ATOM     15  H   UNL     1      50.754  11.713  11.315  0.00  0.00    +0.000 HD
ATOM     16  H   UNL     1      50.754  10.327  12.347  0.00  0.00    +0.000 HD
ENDBRANCH   4  13
ENDBRANCH   1   8
BRANCH   1  17
ATOM     17  C   UNL     1      45.224   4.768  12.043  0.00  0.00    +0.000 A 
ATOM     18  C   UNL     1      44.017   5.449  11.820  0.00  0.00    +0.000 A 
ATOM     19  C   UNL     1      43.291   5.277  10.641  0.00  0.00    +0.000 A 
ATOM     20  C   UNL     1      43.762   4.414   9.653  0.00  0.00    +0.000 A 
ATOM     21  C   UNL     1      44.962   3.708   9.826  0.00  0.00    +0.000 A 
ATOM     22  C   UNL     1      45.663   3.892  11.034  0.00  0.00    +0.000 A 
BRANCH  21  23
ATOM     23  C   UNL     1      45.536   2.876   8.754  0.00  0.00    +0.000 A 
ATOM     24  C   UNL     1      45.714   1.494   8.894  0.00  0.00    +0.000 A 
ATOM     25  N   UNL     1      46.338   0.695   7.992  0.00  0.00    +0.000 NA
ATOM     26  C   UNL     1      46.803   1.299   6.875  0.00  0.00    +0.000 A 
ATOM     27  C   UNL     1      46.656   2.651   6.617  0.00  0.00    +0.000 A 
ATOM     28 CL   UNL     1      47.278   3.350   5.178  0.00  0.00    +0.000 Cl
ATOM     29  C   UNL     1      46.013   3.443   7.564  0.00  0.00    +0.000 A 
ENDBRANCH  21  23
ENDBRANCH   1  17
TORSDOF 4
ENDMDL
MODEL 5
REMARK VINA RESULT:    -6.319      4.062      6.713
REMARK INTER + INTRA:          -8.846
REMARK INTER:                  -7.810
REMARK INTRA:                  -1.036
REMARK UNBOUND:                -1.049
REMARK  Name = 
REMARK  4 active torsions:
REMARK  status: ('A' for Active; 'I' for Inactive)
REMARK    1  A    between atoms: C_2  and  C_4
REMARK    2  A    between atoms: N_8  and  C_9
REMARK    3  A    between atoms: C_9  and  C_10
REMARK    4  A    between atoms: C_14  and  C_15
REMARK                            x       y       z     vdW  Elec       q    Type
REMARK                         _______ _______ _______ _____ _____    ______ ____
ROOT
ATOM      1  C   UNL     1      49.094   8.547  12.523  0.00  0.00    +0.000 C 
ATOM      2  C   UNL     1      50.276   9.310  11.939  0.00  0.00    +0.000 C 
ATOM      3  C   UNL     1      50.189   7.832  11.752  0.00  0.00    +0.000 C 
ENDROOT
BRANCH   1   8
ATOM      4  C   UNL     1      44.502   6.308  11.557  0.00  0.00    +0.000 A 
ATOM      5  C   UNL     1      45.769   5.745  11.510  0.00  0.00    +0.000 A 
ATOM      6  C   UNL     1      46.891   6.562  11.679  0.00  0.00    +0.000 A 
ATOM      7  C   UNL     1      46.721   7.927  11.875  0.00  0.00    +0.000 A 
ATOM      8  N   UNL     1      47.786   8.833  11.909  0.00  0.00    +0.000 N 
ATOM      9  N   UNL     1      45.493   8.485  11.935  0.00  0.00    +0.000 NA
ATOM     10  C   UNL     1      44.415   7.678  11.772  0.00  0.00    +0.000 A 
ATOM     11  H   UNL     1      47.367   9.732  12.138  0.00  0.00    +0.000 HD
BRANCH   4  13
ATOM     12  N   UNL     1      42.080   6.130  11.702  0.00  0.00    +0.000 N 
ATOM     13  C   UNL     1      43.256   5.542  11.329  0.00  0.00    +0.000 C 
ATOM     14  O   UNL     1      43.272   4.431  10.815  0.00  0.00    +0.000 OA
ATOM     15  H   UNL     1      41.235   5.624  11.473  0.00  0.00    +0.000 HD
ATOM     16  H   UNL     1      41.994   7.116  11.903  0.00  0.00    +0.000 HD
ENDBRANCH   4  13
ENDBRANCH   1   8
BRANCH   1  17
ATOM     17  C   UNL     1      49.031   8.421  14.042  0.00  0.00    +0.000 A 
ATOM     18  C   UNL     1      48.615   9.495  14.844  0.00  0.00    +0.000 A 
ATOM     19  C   UNL     1      48.459   9.356  16.223  0.00  0.00    +0.000 A 
ATOM     20  C   UNL     1      48.717   8.129  16.833  0.00  0.00    +0.000 A 
ATOM     21  C   UNL     1      49.136   7.024  16.077  0.00  0.00    +0.000 A 
ATOM     22  C   UNL     1      49.299   7.202  14.690  0.00  0.00    +0.000 A 
BRANCH  21  23
ATOM     23  C   UNL     1      49.310   5.690  16.680  0.00  0.00    +0.000 A 
ATOM     24  C   UNL     1      50.572   5.162  16.975  0.00  0.00    +0.000 A 
ATOM     25  N   UNL     1      50.802   3.902  17.423  0.00  0.00    +0.000 NA
ATOM     26  C   UNL     1      49.713   3.119  17.602  0.00  0.00    +0.000 A 
ATOM     27  C   UNL     1      48.416   3.547  17.372  0.00  0.00    +0.000 A 
ATOM     28 CL   UNL     1      47.082   2.496  17.617  0.00  0.00    +0.000 Cl
ATOM     29  C   UNL     1      48.216   4.845  16.911  0.00  0.00    +0.000 A 
ENDBRANCH  21  23
ENDBRANCH   1  17
TORSDOF 4
ENDMDL
MODEL 6
REMARK VINA RESULT:    -6.294      5.866      8.396
REMARK INTER + INTRA:          -8.815
REMARK INTER:                  -8.070
REMARK INTRA:                  -0.745
REMARK UNBOUND:                -1.049
REMARK  Name = 
REMARK  4 active torsions:
REMARK  status: ('A' for Active; 'I' for Inactive)
REMARK    1  A    between atoms: C_2  and  C_4
REMARK    2  A    between atoms: N_8  and  C_9
REMARK    3  A    between atoms: C_9  and  C_10
REMARK    4  A    between atoms: C_14  and  C_15
REMARK                            x       y       z     vdW  Elec       q    Type
REMARK                         _______ _______ _______ _____ _____    ______ ____
ROOT
ATOM      1  C   UNL     1      48.317   5.065  17.449  0.00  0.00    +0.000 C 
ATOM      2  C   UNL     1      47.211   5.492  18.405  0.00  0.00    +0.000 C 
ATOM      3  C   UNL     1      47.150   4.145  17.763  0.00  0.00    +0.000 C 
ENDROOT
BRANCH   1   8
ATOM      4  C   UNL     1      52.283   1.703  17.467  0.00  0.00    +0.000 A 
ATOM      5  C   UNL     1      50.923   1.440  17.400  0.00  0.00    +0.000 A 
ATOM      6  C   UNL     1      50.011   2.490  17.541  0.00  0.00    +0.000 A 
ATOM      7  C   UNL     1      50.481   3.780  17.763  0.00  0.00    +0.000 A 
ATOM      8  N   UNL     1      49.641   4.859  18.058  0.00  0.00    +0.000 N 
ATOM      9  N   UNL     1      51.802   4.051  17.819  0.00  0.00    +0.000 NA
ATOM     10  C   UNL     1      52.674   3.020  17.677  0.00  0.00    +0.000 A 
ATOM     11  H   UNL     1      50.253   5.672  18.096  0.00  0.00    +0.000 HD
BRANCH   4  13
ATOM     12  N   UNL     1      53.150  -0.464  18.157  0.00  0.00    +0.000 N 
ATOM     13  C   UNL     1      53.326   0.655  17.391  0.00  0.00    +0.000 C 
ATOM     14  O   UNL     1      54.303   0.776  16.663  0.00  0.00    +0.000 OA
ATOM     15  H   UNL     1      53.834  -1.199  18.037  0.00  0.00    +0.000 HD
ATOM     16  H   UNL     1      52.267  -0.711  18.578  0.00  0.00    +0.000 HD
ENDBRANCH   4  13
ENDBRANCH   1   8
BRANCH   1  17
ATOM     17  C   UNL     1      48.379   5.773  16.099  0.00  0.00    +0.000 A 
ATOM     18  C   UNL     1      49.409   6.679  15.800  0.00  0.00    +0.000 A 
ATOM     19  C   UNL     1      49.529   7.253  14.534  0.00  0.00    +0.000 A 
ATOM     20  C   UNL     1      48.615   6.929  13.533  0.00  0.00    +0.000 A 
ATOM     21  C   UNL     1      47.566   6.030  13.779  0.00  0.00    +0.000 A 
ATOM     22  C   UNL     1      47.464   5.481  15.072  0.00  0.00    +0.000 A 
BRANCH  21  23
ATOM     23  C   UNL     1      46.653   5.589  12.711  0.00  0.00    +0.000 A 
ATOM     24  C   UNL     1      46.547   6.266  11.491  0.00  0.00    +0.000 A 
ATOM     25  N   UNL     1      45.647   5.977  10.517  0.00  0.00    +0.000 NA
ATOM     26  C   UNL     1      44.809   4.944  10.760  0.00  0.00    +0.000 A 
ATOM     27  C   UNL     1      44.845   4.184  11.917  0.00  0.00    +0.000 A 
ATOM     28 CL   UNL     1      43.745   2.890  12.160  0.00  0.00    +0.000 Cl
ATOM     29  C   UNL     1      45.778   4.509  12.898  0.00  0.00    +0.000 A 
ENDBRANCH  21  23
ENDBRANCH   1  17
TORSDOF 4
ENDMDL
MODEL 7
REMARK VINA RESULT:    -6.282      1.272      2.092
REMARK INTER + INTRA:          -8.801
REMARK INTER:                  -8.837
REMARK INTRA:                   0.036
REMARK UNBOUND:                -1.049
REMARK  Name = 
REMARK  4 active torsions:
REMARK  status: ('A' for Active; 'I' for Inactive)
REMARK    1  A    between atoms: C_2  and  C_4
REMARK    2  A    between atoms: N_8  and  C_9
REMARK    3  A    between atoms: C_9  and  C_10
REMARK    4  A    between atoms: C_14  and  C_15
REMARK                            x       y       z     vdW  Elec       q    Type
REMARK                         _______ _______ _______ _____ _____    ______ ____
ROOT
ATOM      1  C   UNL     1      44.061   3.960  11.803  0.00  0.00    +0.000 C 
ATOM      2  C   UNL     1      44.882   3.289  12.896  0.00  0.00    +0.000 C 
ATOM      3  C   UNL     1      43.419   3.500  13.100  0.00  0.00    +0.000 C 
ENDROOT
BRANCH   1   8
ATOM      4  C   UNL     1      46.508   2.999   7.317  0.00  0.00    +0.000 A 
ATOM      5  C   UNL     1      46.433   4.188   8.027  0.00  0.00    +0.000 A 
ATOM      6  C   UNL     1      45.608   4.266   9.153  0.00  0.00    +0.000 A 
ATOM      7  C   UNL     1      44.864   3.155   9.535  0.00  0.00    +0.000 A 
ATOM      8  N   UNL     1      43.910   3.190  10.557  0.00  0.00    +0.000 N 
ATOM      9  N   UNL     1      44.938   1.989   8.860  0.00  0.00    +0.000 NA
ATOM     10  C   UNL     1      45.745   1.929   7.771  0.00  0.00    +0.000 A 
ATOM     11  H   UNL     1      43.588   2.229  10.656  0.00  0.00    +0.000 HD
BRANCH   4  13
ATOM     12  N   UNL     1      48.633   2.555   6.218  0.00  0.00    +0.000 N 
ATOM     13  C   UNL     1      47.302   2.831   6.079  0.00  0.00    +0.000 C 
ATOM     14  O   UNL     1      46.787   2.923   4.971  0.00  0.00    +0.000 OA
ATOM     15  H   UNL     1      49.143   2.372   5.364  0.00  0.00    +0.000 HD
ATOM     16  H   UNL     1      49.044   2.239   7.084  0.00  0.00    +0.000 HD
ENDBRANCH   4  13
ENDBRANCH   1   8
BRANCH   1  17
ATOM     17  C   UNL     1      44.305   5.447  11.565  0.00  0.00    +0.000 A 
ATOM     18  C   UNL     1      43.269   6.295  11.145  0.00  0.00    +0.000 A 
ATOM     19  C   UNL     1      43.459   7.672  11.023  0.00  0.00    +0.000 A 
ATOM     20  C   UNL     1      44.700   8.233  11.321  0.00  0.00    +0.000 A 
ATOM     21  C   UNL     1      45.770   7.429  11.743  0.00  0.00    +0.000 A 
ATOM     22  C   UNL     1      45.549   6.041  11.841  0.00  0.00    +0.000 A 
BRANCH  21  23
ATOM     23  C   UNL     1      47.057   8.007  12.168  0.00  0.00    +0.000 A 
ATOM     24  C   UNL     1      47.141   9.010  13.141  0.00  0.00    +0.000 A 
ATOM     25  N   UNL     1      48.280   9.660  13.491  0.00  0.00    +0.000 NA
ATOM     26  C   UNL     1      49.409   9.284  12.848  0.00  0.00    +0.000 A 
ATOM     27  C   UNL     1      49.449   8.283  11.892  0.00  0.00    +0.000 A 
ATOM     28 CL   UNL     1      50.919   7.863  11.112  0.00  0.00    +0.000 Cl
ATOM     29  C   UNL     1      48.262   7.639  11.553  0.00  0.00    +0.000 A 
ENDBRANCH  21  23
ENDBRANCH   1  17
TORSDOF 4
ENDMDL
MODEL 8
REMARK VINA RESULT:    -6.279      3.008      4.612
REMARK INTER + INTRA:          -8.796
REMARK INTER:                  -7.934
REMARK INTRA:                  -0.862
REMARK UNBOUND:                -1.049
REMARK  Name = 
REMARK  4 active torsions:
REMARK  status: ('A' for Active; 'I' for Inactive)
REMARK    1  A    between atoms: C_2  and  C_4
REMARK    2  A    between atoms: N_8  and  C_9
REMARK    3  A    between atoms: C_9  and  C_10
REMARK    4  A    between atoms: C_14  and  C_15
REMARK                            x       y       z     vdW  Elec       q    Type
REMARK                         _______ _______ _______ _____ _____    ______ ____
ROOT
ATOM      1  C   UNL     1      45.345   8.104  11.982  0.00  0.00    +0.000 C 
ATOM      2  C   UNL     1      44.703   9.360  12.556  0.00  0.00    +0.000 C 
ATOM      3  C   UNL     1      45.232   9.376  11.161  0.00  0.00    +0.000 C 
ENDROOT
BRANCH   1   8
ATOM      4  C   UNL     1      45.150   3.478   9.617  0.00  0.00    +0.000 A 
ATOM      5  C   UNL     1      45.758   4.648   9.186  0.00  0.00    +0.000 A 
ATOM      6  C   UNL     1      45.579   5.826   9.918  0.00  0.00    +0.000 A 
ATOM      7  C   UNL     1      44.783   5.810  11.057  0.00  0.00    +0.000 A 
ATOM      8  N   UNL     1      44.436   6.967  11.763  0.00  0.00    +0.000 N 
ATOM      9  N   UNL     1      44.195   4.676  11.493  0.00  0.00    +0.000 NA
ATOM     10  C   UNL     1      44.381   3.541  10.773  0.00  0.00    +0.000 A 
ATOM     11  H   UNL     1      43.917   6.640  12.576  0.00  0.00    +0.000 HD
BRANCH   4  13
ATOM     12  N   UNL     1      44.283   1.248   9.170  0.00  0.00    +0.000 N 
ATOM     13  C   UNL     1      45.225   2.196   8.882  0.00  0.00    +0.000 C 
ATOM     14  O   UNL     1      46.089   1.992   8.037  0.00  0.00    +0.000 OA
ATOM     15  H   UNL     1      44.306   0.409   8.607  0.00  0.00    +0.000 HD
ATOM     16  H   UNL     1      43.430   1.453   9.670  0.00  0.00    +0.000 HD
ENDBRANCH   4  13
ENDBRANCH   1   8
BRANCH   1  17
ATOM     17  C   UNL     1      46.698   7.691  12.555  0.00  0.00    +0.000 A 
ATOM     18  C   UNL     1      47.885   8.309  12.133  0.00  0.00    +0.000 A 
ATOM     19  C   UNL     1      49.112   8.009  12.724  0.00  0.00    +0.000 A 
ATOM     20  C   UNL     1      49.178   7.076  13.759  0.00  0.00    +0.000 A 
ATOM     21  C   UNL     1      48.020   6.429  14.218  0.00  0.00    +0.000 A 
ATOM     22  C   UNL     1      46.800   6.744  13.589  0.00  0.00    +0.000 A 
BRANCH  21  23
ATOM     23  C   UNL     1      48.045   5.523  15.379  0.00  0.00    +0.000 A 
ATOM     24  C   UNL     1      47.232   4.387  15.459  0.00  0.00    +0.000 A 
ATOM     25  N   UNL     1      47.127   3.581  16.546  0.00  0.00    +0.000 NA
ATOM     26  C   UNL     1      47.884   3.912  17.616  0.00  0.00    +0.000 A 
ATOM     27  C   UNL     1      48.747   4.995  17.638  0.00  0.00    +0.000 A 
ATOM     28 CL   UNL     1      49.675   5.359  19.035  0.00  0.00    +0.000 Cl
ATOM     29  C   UNL     1      48.829   5.803  16.507  0.00  0.00    +0.000 A 
ENDBRANCH  21  23
ENDBRANCH   1  17
TORSDOF 4
ENDMDL
MODEL 9
REMARK VINA RESULT:    -6.237      3.486      5.375
REMARK INTER + INTRA:          -8.745
REMARK INTER:                  -7.904
REMARK INTRA:                  -0.840
REMARK UNBOUND:                -1.049
REMARK  Name = 
REMARK  4 active torsions:
REMARK  status: ('A' for Active; 'I' for Inactive)
REMARK    1  A    between atoms: C_2  and  C_4
REMARK    2  A    between atoms: N_8  and  C_9
REMARK    3  A    between atoms: C_9  and  C_10
REMARK    4  A    between atoms: C_14  and  C_15
REMARK                            x       y       z     vdW  Elec       q    Type
REMARK                         _______ _______ _______ _____ _____    ______ ____
ROOT
ATOM      1  C   UNL     1      45.982   8.967  12.203  0.00  0.00    +0.000 C 
ATOM      2  C   UNL     1      45.741  10.453  12.433  0.00  0.00    +0.000 C 
ATOM      3  C   UNL     1      45.861   9.935  11.039  0.00  0.00    +0.000 C 
ENDROOT
BRANCH   1   8
ATOM      4  C   UNL     1      44.210   4.148  11.389  0.00  0.00    +0.000 A 
ATOM      5  C   UNL     1      44.828   5.008  10.493  0.00  0.00    +0.000 A 
ATOM      6  C   UNL     1      45.111   6.320  10.884  0.00  0.00    +0.000 A 
ATOM      7  C   UNL     1      44.756   6.748  12.158  0.00  0.00    +0.000 A 
ATOM      8  N   UNL     1      44.872   8.077  12.578  0.00  0.00    +0.000 N 
ATOM      9  N   UNL     1      44.165   5.917  13.043  0.00  0.00    +0.000 NA
ATOM     10  C   UNL     1      43.899   4.646  12.649  0.00  0.00    +0.000 A 
ATOM     11  H   UNL     1      44.610   8.071  13.562  0.00  0.00    +0.000 HD
BRANCH   4  13
ATOM     12  N   UNL     1      44.463   2.154  10.017  0.00  0.00    +0.000 N 
ATOM     13  C   UNL     1      43.812   2.762  11.054  0.00  0.00    +0.000 C 
ATOM     14  O   UNL     1      42.944   2.175  11.686  0.00  0.00    +0.000 OA
ATOM     15  H   UNL     1      44.229   1.184   9.850  0.00  0.00    +0.000 HD
ATOM     16  H   UNL     1      45.329   2.499   9.631  0.00  0.00    +0.000 HD
ENDBRANCH   4  13
ENDBRANCH   1   8
BRANCH   1  17
ATOM     17  C   UNL     1      47.352   8.418  12.591  0.00  0.00    +0.000 A 
ATOM     18  C   UNL     1      48.503   8.756  11.862  0.00  0.00    +0.000 A 
ATOM     19  C   UNL     1      49.771   8.340  12.270  0.00  0.00    +0.000 A 
ATOM     20  C   UNL     1      49.914   7.571  13.423  0.00  0.00    +0.000 A 
ATOM     21  C   UNL     1      48.795   7.204  14.187  0.00  0.00    +0.000 A 
ATOM     22  C   UNL     1      47.528   7.627  13.740  0.00  0.00    +0.000 A 
BRANCH  21  23
ATOM     23  C   UNL     1      48.928   6.485  15.466  0.00  0.00    +0.000 A 
ATOM     24  C   UNL     1      49.971   6.743  16.363  0.00  0.00    +0.000 A 
ATOM     25  N   UNL     1      50.212   6.039  17.499  0.00  0.00    +0.000 NA
ATOM     26  C   UNL     1      49.359   5.026  17.770  0.00  0.00    +0.000 A 
ATOM     27  C   UNL     1      48.275   4.702  16.971  0.00  0.00    +0.000 A 
ATOM     28 CL   UNL     1      47.236   3.397  17.377  0.00  0.00    +0.000 Cl
ATOM     29  C   UNL     1      48.058   5.442  15.812  0.00  0.00    +0.000 A 
ENDBRANCH  21  23
ENDBRANCH   1  17
TORSDOF 4
ENDMDL
