MODEL 1
REMARK VINA RESULT:    -9.338      0.000      0.000
REMARK INTER + INTRA:         -12.437
REMARK INTER:                 -12.067
REMARK INTRA:                  -0.370
REMARK UNBOUND:                -0.370
REMARK  Name = 
REMARK  6 active torsions:
REMARK  status: ('A' for Active; 'I' for Inactive)
REMARK    1  A    between atoms: C_1  and  C_2
REMARK    2  A    between atoms: C_2  and  N_3
REMARK    3  A    between atoms: C_2  and  C_16
REMARK    4  A    between atoms: C_4  and  C_6
REMARK    5  A    between atoms: C_19  and  C_20
REMARK    6  A    between atoms: C_20  and  N_21
REMARK                            x       y       z     vdW  Elec       q    Type
REMARK                         _______ _______ _______ _____ _____    ______ ____
ROOT
ATOM      1  C   UNL     1      47.807   9.037  12.303  0.00  0.00    +0.000 C 
ATOM      2  C   UNL     1      46.768   8.284  13.141  0.00  0.00    +0.000 C 
ENDROOT
BRANCH   2   3
ATOM      3  C   UNL     1      46.108   7.143  12.388  0.00  0.00    +0.000 A 
ATOM      4  C   UNL     1      44.973   6.532  12.940  0.00  0.00    +0.000 A 
ATOM      5  C   UNL     1      44.257   5.576  12.218  0.00  0.00    +0.000 A 
ATOM      6  C   UNL     1      44.679   5.187  10.940  0.00  0.00    +0.000 A 
ATOM      7  C   UNL     1      45.855   5.734  10.418  0.00  0.00    +0.000 A 
ATOM      8  C   UNL     1      46.573   6.687  11.144  0.00  0.00    +0.000 A 
BRANCH   6   9
ATOM      9  C   UNL     1      43.851   4.226  10.123  0.00  0.00    +0.000 C 
BRANCH   9  10
ATOM     10  N   UNL     1      44.150   4.406   8.717  0.00  0.00    +0.000 N 
ATOM     11  C   UNL     1      45.091   3.501   8.248  0.00  0.00    +0.000 A 
ATOM     12  N   UNL     1      45.135   2.262   8.763  0.00  0.00    +0.000 NA
ATOM     13  C   UNL     1      46.072   1.427   8.284  0.00  0.00    +0.000 A 
ATOM     14  C   UNL     1      46.970   1.782   7.311  0.00  0.00    +0.000 A 
ATOM     15  C   UNL     1      46.848   3.067   6.847  0.00  0.00    +0.000 A 
ATOM     16  N   UNL     1      45.929   3.942   7.301  0.00  0.00    +0.000 NA
ATOM     17  H   UNL     1      44.459   5.334   8.453  0.00  0.00    +0.000 HD
ENDBRANCH   9  10
ENDBRANCH   6   9
ENDBRANCH   2   3
BRANCH   2  18
ATOM     18  N   UNL     1      47.364   7.784  14.358  0.00  0.00    +0.000 N 
ATOM     19  C   UNL     1      48.404   6.893  14.368  0.00  0.00    +0.000 C 
ATOM     20  O   UNL     1      49.028   6.581  13.356  0.00  0.00    +0.000 OA
ATOM     21  H   UNL     1      46.786   7.878  15.185  0.00  0.00    +0.000 HD
BRANCH  19  22
ATOM     22  C   UNL     1      48.762   6.351  15.684  0.00  0.00    +0.000 A 
ATOM     23  C   UNL     1      49.721   6.976  16.468  0.00  0.00    +0.000 A 
ATOM     24  S   UNL     1      49.982   6.205  17.969  0.00  0.00    +0.000 S 
ATOM     25  C   UNL     1      48.868   4.973  17.593  0.00  0.00    +0.000 A 
ATOM     26  N   UNL     1      48.641   3.944  18.453  0.00  0.00    +0.000 NA
ATOM     27  C   UNL     1      47.802   3.063  18.020  0.00  0.00    +0.000 A 
ATOM     28  N   UNL     1      47.161   3.122  16.810  0.00  0.00    +0.000 N 
ATOM     29  C   UNL     1      47.316   4.168  15.935  0.00  0.00    +0.000 A 
ATOM     30  O   UNL     1      46.652   4.234  14.906  0.00  0.00    +0.000 OA
ATOM     31  C   UNL     1      48.278   5.169  16.357  0.00  0.00    +0.000 A 
ATOM     32  H   UNL     1      46.494   2.413  16.539  0.00  0.00    +0.000 HD
ENDBRANCH  19  22
ENDBRANCH   2  18
TORSDOF 5
ENDMDL
MODEL 2
REMARK VINA RESULT:    -8.820      1.275      1.378
REMARK INTER + INTRA:         -11.768
REMARK INTER:                 -10.527
REMARK INTRA:                  -1.241
REMARK UNBOUND:                -0.370
REMARK  Name = 
REMARK  6 active torsions:
REMARK  status: ('A' for Active; 'I' for Inactive)
REMARK    1  A    between atoms: C_1  and  C_2
REMARK    2  A    between atoms: C_2  and  N_3
REMARK    3  A    between atoms: C_2  and  C_16
REMARK    4  A    between atoms: C_4  and  C_6
REMARK    5  A    between atoms: C_19  and  C_20
REMARK    6  A    between atoms: C_20  and  N_21
REMARK                            x       y       z     vdW  Elec       q    Type
REMARK                         _______ _______ _______ _____ _____    ______ ____
ROOT
ATOM      1  C   UNL     1      48.303   8.341  12.404  0.00  0.00    +0.000 C 
ATOM      2  C   UNL     1      47.396   7.619  13.405  0.00  0.00    +0.000 C 
ENDROOT
BRANCH   2   3
ATOM      3  C   UNL     1      46.372   6.716  12.740  0.00  0.00    +0.000 A 
ATOM      4  C   UNL     1      45.432   7.283  11.867  0.00  0.00    +0.000 A 
ATOM      5  C   UNL     1      44.565   6.473  11.130  0.00  0.00    +0.000 A 
ATOM      6  C   UNL     1      44.600   5.081  11.273  0.00  0.00    +0.000 A 
ATOM      7  C   UNL     1      45.480   4.515  12.201  0.00  0.00    +0.000 A 
ATOM      8  C   UNL     1      46.343   5.327  12.940  0.00  0.00    +0.000 A 
BRANCH   6   9
ATOM      9  C   UNL     1      43.731   4.203  10.407  0.00  0.00    +0.000 C 
BRANCH   9  10
ATOM     10  N   UNL     1      44.024   4.460   9.012  0.00  0.00    +0.000 N 
ATOM     11  C   UNL     1      44.961   3.581   8.488  0.00  0.00    +0.000 A 
ATOM     12  N   UNL     1      45.005   2.316   8.933  0.00  0.00    +0.000 NA
ATOM     13  C   UNL     1      45.938   1.507   8.404  0.00  0.00    +0.000 A 
ATOM     14  C   UNL     1      46.832   1.914   7.448  0.00  0.00    +0.000 A 
ATOM     15  C   UNL     1      46.710   3.223   7.057  0.00  0.00    +0.000 A 
ATOM     16  N   UNL     1      45.795   4.074   7.563  0.00  0.00    +0.000 NA
ATOM     17  H   UNL     1      44.334   5.401   8.798  0.00  0.00    +0.000 HD
ENDBRANCH   9  10
ENDBRANCH   6   9
ENDBRANCH   2   3
BRANCH   2  18
ATOM     18  N   UNL     1      48.183   6.853  14.344  0.00  0.00    +0.000 N 
ATOM     19  C   UNL     1      48.698   7.388  15.495  0.00  0.00    +0.000 C 
ATOM     20  O   UNL     1      48.393   8.504  15.910  0.00  0.00    +0.000 OA
ATOM     21  H   UNL     1      48.591   6.006  13.967  0.00  0.00    +0.000 HD
BRANCH  19  22
ATOM     22  C   UNL     1      49.624   6.524  16.237  0.00  0.00    +0.000 A 
ATOM     23  C   UNL     1      50.924   6.936  16.493  0.00  0.00    +0.000 A 
ATOM     24  S   UNL     1      51.835   5.800  17.385  0.00  0.00    +0.000 S 
ATOM     25  C   UNL     1      50.542   4.692  17.402  0.00  0.00    +0.000 A 
ATOM     26  N   UNL     1      50.672   3.469  17.982  0.00  0.00    +0.000 NA
ATOM     27  C   UNL     1      49.625   2.719  17.886  0.00  0.00    +0.000 A 
ATOM     28  N   UNL     1      48.455   3.085  17.271  0.00  0.00    +0.000 N 
ATOM     29  C   UNL     1      48.260   4.328  16.722  0.00  0.00    +0.000 A 
ATOM     30  O   UNL     1      47.167   4.652  16.268  0.00  0.00    +0.000 OA
ATOM     31  C   UNL     1      49.419   5.197  16.771  0.00  0.00    +0.000 A 
ATOM     32  H   UNL     1      47.661   2.461  17.251  0.00  0.00    +0.000 HD
ENDBRANCH  19  22
ENDBRANCH   2  18
TORSDOF 5
ENDMDL
MODEL 3
REMARK VINA RESULT:    -8.660      1.909      2.620
REMARK INTER + INTRA:         -11.562
REMARK INTER:                 -10.621
REMARK INTRA:                  -0.941
REMARK UNBOUND:                -0.370
REMARK  Name = 
REMARK  6 active torsions:
REMARK  status: ('A' for Active; 'I' for Inactive)
REMARK    1  A    between atoms: C_1  and  C_2
REMARK    2  A    between atoms: C_2  and  N_3
REMARK    3  A    between atoms: C_2  and  C_16
REMARK    4  A    between atoms: C_4  and  C_6
REMARK    5  A    between atoms: C_19  and  C_20
REMARK    6  A    between atoms: C_20  and  N_21
REMARK                            x       y       z     vdW  Elec       q    Type
REMARK                         _______ _______ _______ _____ _____    ______ ____
ROOT
ATOM      1  C   UNL     1      49.037   7.077  12.716  0.00  0.00    +0.000 C 
ATOM      2  C   UNL     1      47.777   6.853  13.557  0.00  0.00    +0.000 C 
ENDROOT
BRANCH   2   3
ATOM      3  C   UNL     1      46.668   6.148  12.795  0.00  0.00    +0.000 A 
ATOM      4  C   UNL     1      46.090   6.791  11.690  0.00  0.00    +0.000 A 
ATOM      5  C   UNL     1      45.167   6.124  10.882  0.00  0.00    +0.000 A 
ATOM      6  C   UNL     1      44.781   4.811  11.178  0.00  0.00    +0.000 A 
ATOM      7  C   UNL     1      45.294   4.195  12.324  0.00  0.00    +0.000 A 
ATOM      8  C   UNL     1      46.212   4.865  13.134  0.00  0.00    +0.000 A 
BRANCH   6   9
ATOM      9  C   UNL     1      43.859   4.059  10.250  0.00  0.00    +0.000 C 
BRANCH   9  10
ATOM     10  N   UNL     1      44.194   4.374   8.877  0.00  0.00    +0.000 N 
ATOM     11  C   UNL     1      45.153   3.522   8.349  0.00  0.00    +0.000 A 
ATOM     12  N   UNL     1      45.190   2.239   8.743  0.00  0.00    +0.000 NA
ATOM     13  C   UNL     1      46.144   1.457   8.211  0.00  0.00    +0.000 A 
ATOM     14  C   UNL     1      47.065   1.907   7.302  0.00  0.00    +0.000 A 
ATOM     15  C   UNL     1      46.948   3.230   6.961  0.00  0.00    +0.000 A 
ATOM     16  N   UNL     1      46.013   4.055   7.471  0.00  0.00    +0.000 NA
ATOM     17  H   UNL     1      44.505   5.325   8.712  0.00  0.00    +0.000 HD
ENDBRANCH   9  10
ENDBRANCH   6   9
ENDBRANCH   2   3
BRANCH   2  18
ATOM     18  N   UNL     1      48.091   6.110  14.756  0.00  0.00    +0.000 N 
ATOM     19  C   UNL     1      48.650   6.687  15.865  0.00  0.00    +0.000 C 
ATOM     20  O   UNL     1      48.769   7.903  16.000  0.00  0.00    +0.000 OA
ATOM     21  H   UNL     1      48.169   5.107  14.628  0.00  0.00    +0.000 HD
BRANCH  19  22
ATOM     22  C   UNL     1      49.073   5.757  16.919  0.00  0.00    +0.000 A 
ATOM     23  C   UNL     1      48.133   5.070  17.674  0.00  0.00    +0.000 A 
ATOM     24  S   UNL     1      48.823   4.023  18.833  0.00  0.00    +0.000 S 
ATOM     25  C   UNL     1      50.401   4.503  18.408  0.00  0.00    +0.000 A 
ATOM     26  N   UNL     1      51.487   4.006  19.060  0.00  0.00    +0.000 NA
ATOM     27  C   UNL     1      52.616   4.487  18.660  0.00  0.00    +0.000 A 
ATOM     28  N   UNL     1      52.760   5.413  17.659  0.00  0.00    +0.000 N 
ATOM     29  C   UNL     1      51.700   5.899  16.936  0.00  0.00    +0.000 A 
ATOM     30  O   UNL     1      51.877   6.651  15.984  0.00  0.00    +0.000 OA
ATOM     31  C   UNL     1      50.402   5.418  17.371  0.00  0.00    +0.000 A 
ATOM     32  H   UNL     1      53.675   5.731  17.373  0.00  0.00    +0.000 HD
ENDBRANCH  19  22
ENDBRANCH   2  18
TORSDOF 5
ENDMDL
MODEL 4
REMARK VINA RESULT:    -8.510      1.475      1.721
REMARK INTER + INTRA:         -11.368
REMARK INTER:                 -10.548
REMARK INTRA:                  -0.821
REMARK UNBOUND:                -0.370
REMARK  Name = 
REMARK  6 active torsions:
REMARK  status: ('A' for Active; 'I' for Inactive)
REMARK    1  A    between atoms: C_1  and  C_2
REMARK    2  A    between atoms: C_2  and  N_3
REMARK    3  A    between atoms: C_2  and  C_16
REMARK    4  A    between atoms: C_4  and  C_6
REMARK    5  A    between atoms: C_19  and  C_20
REMARK    6  A    between atoms: C_20  and  N_21
REMARK                            x       y       z     vdW  Elec       q    Type
REMARK                         _______ _______ _______ _____ _____    ______ ____
ROOT
ATOM      1  C   UNL     1      49.255   7.029  12.813  0.00  0.00    +0.000 C 
ATOM      2  C   UNL     1      47.863   7.416  13.323  0.00  0.00    +0.000 C 
ENDROOT
BRANCH   2   3
ATOM      3  C   UNL     1      46.752   6.577  12.717  0.00  0.00    +0.000 A 
ATOM      4  C   UNL     1      45.989   7.114  11.669  0.00  0.00    +0.000 A 
ATOM      5  C   UNL     1      45.053   6.329  10.994  0.00  0.00    +0.000 A 
ATOM      6  C   UNL     1      44.837   4.998  11.373  0.00  0.00    +0.000 A 
ATOM      7  C   UNL     1      45.537   4.482  12.468  0.00  0.00    +0.000 A 
ATOM      8  C   UNL     1      46.469   5.270  13.145  0.00  0.00    +0.000 A 
BRANCH   6   9
ATOM      9  C   UNL     1      43.897   4.123  10.582  0.00  0.00    +0.000 C 
BRANCH   9  10
ATOM     10  N   UNL     1      44.026   4.425   9.172  0.00  0.00    +0.000 N 
ATOM     11  C   UNL     1      44.967   3.628   8.536  0.00  0.00    +0.000 A 
ATOM     12  N   UNL     1      45.148   2.362   8.943  0.00  0.00    +0.000 NA
ATOM     13  C   UNL     1      46.079   1.635   8.303  0.00  0.00    +0.000 A 
ATOM     14  C   UNL     1      46.839   2.124   7.272  0.00  0.00    +0.000 A 
ATOM     15  C   UNL     1      46.583   3.427   6.928  0.00  0.00    +0.000 A 
ATOM     16  N   UNL     1      45.665   4.197   7.544  0.00  0.00    +0.000 NA
ATOM     17  H   UNL     1      44.243   5.390   8.952  0.00  0.00    +0.000 HD
ENDBRANCH   9  10
ENDBRANCH   6   9
ENDBRANCH   2   3
BRANCH   2  18
ATOM     18  N   UNL     1      47.808   7.329  14.764  0.00  0.00    +0.000 N 
ATOM     19  C   UNL     1      48.706   7.961  15.583  0.00  0.00    +0.000 C 
ATOM     20  O   UNL     1      49.520   8.787  15.174  0.00  0.00    +0.000 OA
ATOM     21  H   UNL     1      47.277   6.545  15.124  0.00  0.00    +0.000 HD
BRANCH  19  22
ATOM     22  C   UNL     1      48.616   7.618  17.007  0.00  0.00    +0.000 A 
ATOM     23  C   UNL     1      48.585   8.613  17.973  0.00  0.00    +0.000 A 
ATOM     24  S   UNL     1      48.458   8.013  19.566  0.00  0.00    +0.000 S 
ATOM     25  C   UNL     1      48.506   6.400  19.022  0.00  0.00    +0.000 A 
ATOM     26  N   UNL     1      48.479   5.361  19.899  0.00  0.00    +0.000 NA
ATOM     27  C   UNL     1      48.561   4.196  19.348  0.00  0.00    +0.000 A 
ATOM     28  N   UNL     1      48.658   3.974  17.999  0.00  0.00    +0.000 N 
ATOM     29  C   UNL     1      48.633   4.988  17.074  0.00  0.00    +0.000 A 
ATOM     30  O   UNL     1      48.623   4.745  15.872  0.00  0.00    +0.000 OA
ATOM     31  C   UNL     1      48.578   6.321  17.643  0.00  0.00    +0.000 A 
ATOM     32  H   UNL     1      48.694   3.036  17.627  0.00  0.00    +0.000 HD
ENDBRANCH  19  22
ENDBRANCH   2  18
TORSDOF 5
ENDMDL
MODEL 5
REMARK VINA RESULT:    -8.332      2.704      3.583
REMARK INTER + INTRA:         -11.137
REMARK INTER:                 -10.042
REMARK INTRA:                  -1.096
REMARK UNBOUND:                -0.370
REMARK  Name = 
REMARK  6 active torsions:
REMARK  status: ('A' for Active; 'I' for Inactive)
REMARK    1  A    between atoms: C_1  and  C_2
REMARK    2  A    between atoms: C_2  and  N_3
REMARK    3  A    between atoms: C_2  and  C_16
REMARK    4  A    between atoms: C_4  and  C_6
REMARK    5  A    between atoms: C_19  and  C_20
REMARK    6  A    between atoms: C_20  and  N_21
REMARK                            x       y       z     vdW  Elec       q    Type
REMARK                         _______ _______ _______ _____ _____    ______ ____
ROOT
ATOM      1  C   UNL     1      47.486   4.230  16.052  0.00  0.00    +0.000 C 
ATOM      2  C   UNL     1      47.809   5.116  14.845  0.00  0.00    +0.000 C 
ENDROOT
BRANCH   2   3
ATOM      3  C   UNL     1      46.835   4.935  13.694  0.00  0.00    +0.000 A 
ATOM      4  C   UNL     1      46.405   3.641  13.365  0.00  0.00    +0.000 A 
ATOM      5  C   UNL     1      45.408   3.443  12.408  0.00  0.00    +0.000 A 
ATOM      6  C   UNL     1      44.840   4.534  11.738  0.00  0.00    +0.000 A 
ATOM      7  C   UNL     1      45.322   5.819  12.004  0.00  0.00    +0.000 A 
ATOM      8  C   UNL     1      46.323   6.015  12.958  0.00  0.00    +0.000 A 
BRANCH   6   9
ATOM      9  C   UNL     1      43.697   4.327  10.775  0.00  0.00    +0.000 C 
BRANCH   9  10
ATOM     10  N   UNL     1      44.076   4.812   9.464  0.00  0.00    +0.000 N 
ATOM     11  C   UNL     1      44.937   3.949   8.801  0.00  0.00    +0.000 A 
ATOM     12  N   UNL     1      44.828   2.625   8.992  0.00  0.00    +0.000 NA
ATOM     13  C   UNL     1      45.693   1.834   8.337  0.00  0.00    +0.000 A 
ATOM     14  C   UNL     1      46.666   2.313   7.499  0.00  0.00    +0.000 A 
ATOM     15  C   UNL     1      46.700   3.678   7.367  0.00  0.00    +0.000 A 
ATOM     16  N   UNL     1      45.858   4.513   8.008  0.00  0.00    +0.000 NA
ATOM     17  H   UNL     1      44.492   5.735   9.445  0.00  0.00    +0.000 HD
ENDBRANCH   9  10
ENDBRANCH   6   9
ENDBRANCH   2   3
BRANCH   2  18
ATOM     18  N   UNL     1      47.851   6.507  15.232  0.00  0.00    +0.000 N 
ATOM     19  C   UNL     1      49.009   7.146  15.591  0.00  0.00    +0.000 C 
ATOM     20  O   UNL     1      50.122   6.646  15.446  0.00  0.00    +0.000 OA
ATOM     21  H   UNL     1      46.962   6.896  15.523  0.00  0.00    +0.000 HD
BRANCH  19  22
ATOM     22  C   UNL     1      48.844   8.501  16.132  0.00  0.00    +0.000 A 
ATOM     23  C   UNL     1      49.264   9.607  15.407  0.00  0.00    +0.000 A 
ATOM     24  S   UNL     1      48.968  11.091  16.197  0.00  0.00    +0.000 S 
ATOM     25  C   UNL     1      48.327  10.301  17.562  0.00  0.00    +0.000 A 
ATOM     26  N   UNL     1      47.911  11.003  18.651  0.00  0.00    +0.000 NA
ATOM     27  C   UNL     1      47.485  10.272  19.626  0.00  0.00    +0.000 A 
ATOM     28  N   UNL     1      47.427   8.902  19.609  0.00  0.00    +0.000 N 
ATOM     29  C   UNL     1      47.782   8.155  18.513  0.00  0.00    +0.000 A 
ATOM     30  O   UNL     1      47.624   6.939  18.501  0.00  0.00    +0.000 OA
ATOM     31  C   UNL     1      48.304   8.927  17.401  0.00  0.00    +0.000 A 
ATOM     32  H   UNL     1      47.058   8.388  20.396  0.00  0.00    +0.000 HD
ENDBRANCH  19  22
ENDBRANCH   2  18
TORSDOF 5
ENDMDL
MODEL 6
REMARK VINA RESULT:    -8.244      1.982      2.343
REMARK INTER + INTRA:         -11.024
REMARK INTER:                 -10.769
REMARK INTRA:                  -0.254
REMARK UNBOUND:                -0.370
REMARK  Name = 
REMARK  6 active torsions:
REMARK  status: ('A' for Active; 'I' for Inactive)
REMARK    1  A    between atoms: C_1  and  C_2
REMARK    2  A    between atoms: C_2  and  N_3
REMARK    3  A    between atoms: C_2  and  C_16
REMARK    4  A    between atoms: C_4  and  C_6
REMARK    5  A    between atoms: C_19  and  C_20
REMARK    6  A    between atoms: C_20  and  N_21
REMARK                            x       y       z     vdW  Elec       q    Type
REMARK                         _______ _______ _______ _____ _____    ______ ____
ROOT
ATOM      1  C   UNL     1      49.311   7.214  13.057  0.00  0.00    +0.000 C 
ATOM      2  C   UNL     1      47.899   7.062  13.631  0.00  0.00    +0.000 C 
ENDROOT
BRANCH   2   3
ATOM      3  C   UNL     1      46.968   6.275  12.726  0.00  0.00    +0.000 A 
ATOM      4  C   UNL     1      46.354   5.116  13.225  0.00  0.00    +0.000 A 
ATOM      5  C   UNL     1      45.388   4.443  12.475  0.00  0.00    +0.000 A 
ATOM      6  C   UNL     1      45.037   4.896  11.197  0.00  0.00    +0.000 A 
ATOM      7  C   UNL     1      45.703   6.003  10.663  0.00  0.00    +0.000 A 
ATOM      8  C   UNL     1      46.673   6.673  11.412  0.00  0.00    +0.000 A 
BRANCH   6   9
ATOM      9  C   UNL     1      43.926   4.225  10.429  0.00  0.00    +0.000 C 
BRANCH   9  10
ATOM     10  N   UNL     1      44.117   4.447   9.010  0.00  0.00    +0.000 N 
ATOM     11  C   UNL     1      45.026   3.563   8.446  0.00  0.00    +0.000 A 
ATOM     12  N   UNL     1      45.116   2.311   8.921  0.00  0.00    +0.000 NA
ATOM     13  C   UNL     1      46.020   1.498   8.349  0.00  0.00    +0.000 A 
ATOM     14  C   UNL     1      46.840   1.887   7.322  0.00  0.00    +0.000 A 
ATOM     15  C   UNL     1      46.675   3.184   6.906  0.00  0.00    +0.000 A 
ATOM     16  N   UNL     1      45.787   4.039   7.452  0.00  0.00    +0.000 NA
ATOM     17  H   UNL     1      44.400   5.385   8.750  0.00  0.00    +0.000 HD
ENDBRANCH   9  10
ENDBRANCH   6   9
ENDBRANCH   2   3
BRANCH   2  18
ATOM     18  N   UNL     1      47.945   6.444  14.936  0.00  0.00    +0.000 N 
ATOM     19  C   UNL     1      48.847   6.808  15.901  0.00  0.00    +0.000 C 
ATOM     20  O   UNL     1      49.570   7.798  15.803  0.00  0.00    +0.000 OA
ATOM     21  H   UNL     1      47.498   5.537  14.995  0.00  0.00    +0.000 HD
BRANCH  19  22
ATOM     22  C   UNL     1      48.876   5.956  17.096  0.00  0.00    +0.000 A 
ATOM     23  C   UNL     1      49.379   4.664  17.031  0.00  0.00    +0.000 A 
ATOM     24  S   UNL     1      49.344   3.843  18.527  0.00  0.00    +0.000 S 
ATOM     25  C   UNL     1      48.596   5.164  19.298  0.00  0.00    +0.000 A 
ATOM     26  N   UNL     1      48.243   5.105  20.610  0.00  0.00    +0.000 NA
ATOM     27  C   UNL     1      47.649   6.163  21.051  0.00  0.00    +0.000 A 
ATOM     28  N   UNL     1      47.384   7.280  20.302  0.00  0.00    +0.000 N 
ATOM     29  C   UNL     1      47.771   7.407  18.991  0.00  0.00    +0.000 A 
ATOM     30  O   UNL     1      47.603   8.459  18.383  0.00  0.00    +0.000 OA
ATOM     31  C   UNL     1      48.410   6.230  18.435  0.00  0.00    +0.000 A 
ATOM     32  H   UNL     1      46.938   8.088  20.713  0.00  0.00    +0.000 HD
ENDBRANCH  19  22
ENDBRANCH   2  18
TORSDOF 5
ENDMDL
MODEL 7
REMARK VINA RESULT:    -8.204      4.599      8.932
REMARK INTER + INTRA:         -10.972
REMARK INTER:                  -9.926
REMARK INTRA:                  -1.046
REMARK UNBOUND:                -0.370
REMARK  Name = 
REMARK  6 active torsions:
REMARK  status: ('A' for Active; 'I' for Inactive)
REMARK    1  A    between atoms: C_1  and  C_2
REMARK    2  A    between atoms: C_2  and  N_3
REMARK    3  A    between atoms: C_2  and  C_16
REMARK    4  A    between atoms: C_4  and  C_6
REMARK    5  A    between atoms: C_19  and  C_20
REMARK    6  A    between atoms: C_20  and  N_21
REMARK                            x       y       z     vdW  Elec       q    Type
REMARK                         _______ _______ _______ _____ _____    ______ ____
ROOT
ATOM      1  C   UNL     1      47.887   5.850  18.653  0.00  0.00    +0.000 C 
ATOM      2  C   UNL     1      48.796   5.702  17.428  0.00  0.00    +0.000 C 
ENDROOT
BRANCH   2   3
ATOM      3  C   UNL     1      49.705   4.487  17.503  0.00  0.00    +0.000 A 
ATOM      4  C   UNL     1      49.161   3.217  17.262  0.00  0.00    +0.000 A 
ATOM      5  C   UNL     1      49.985   2.092  17.184  0.00  0.00    +0.000 A 
ATOM      6  C   UNL     1      51.368   2.210  17.376  0.00  0.00    +0.000 A 
ATOM      7  C   UNL     1      51.904   3.461  17.696  0.00  0.00    +0.000 A 
ATOM      8  C   UNL     1      51.078   4.584  17.778  0.00  0.00    +0.000 A 
BRANCH   6   9
ATOM      9  C   UNL     1      52.267   1.013  17.197  0.00  0.00    +0.000 C 
BRANCH   9  10
ATOM     10  N   UNL     1      52.760   0.581  18.488  0.00  0.00    +0.000 N 
ATOM     11  C   UNL     1      53.756  -0.380  18.389  0.00  0.00    +0.000 A 
ATOM     12  N   UNL     1      54.607  -0.348  17.352  0.00  0.00    +0.000 NA
ATOM     13  C   UNL     1      55.547  -1.307  17.295  0.00  0.00    +0.000 A 
ATOM     14  C   UNL     1      55.667  -2.300  18.233  0.00  0.00    +0.000 A 
ATOM     15  C   UNL     1      54.752  -2.250  19.254  0.00  0.00    +0.000 A 
ATOM     16  N   UNL     1      53.789  -1.312  19.350  0.00  0.00    +0.000 NA
ATOM     17  H   UNL     1      52.056   0.227  19.127  0.00  0.00    +0.000 HD
ENDBRANCH   9  10
ENDBRANCH   6   9
ENDBRANCH   2   3
BRANCH   2  18
ATOM     18  N   UNL     1      48.011   5.649  16.217  0.00  0.00    +0.000 N 
ATOM     19  C   UNL     1      48.445   6.165  15.025  0.00  0.00    +0.000 C 
ATOM     20  O   UNL     1      49.596   6.557  14.844  0.00  0.00    +0.000 OA
ATOM     21  H   UNL     1      47.019   5.496  16.358  0.00  0.00    +0.000 HD
BRANCH  19  22
ATOM     22  C   UNL     1      47.450   6.191  13.945  0.00  0.00    +0.000 A 
ATOM     23  C   UNL     1      47.064   7.393  13.369  0.00  0.00    +0.000 A 
ATOM     24  S   UNL     1      45.915   7.211  12.120  0.00  0.00    +0.000 S 
ATOM     25  C   UNL     1      45.847   5.525  12.352  0.00  0.00    +0.000 A 
ATOM     26  N   UNL     1      45.006   4.748  11.618  0.00  0.00    +0.000 NA
ATOM     27  C   UNL     1      45.032   3.495  11.928  0.00  0.00    +0.000 A 
ATOM     28  N   UNL     1      45.829   2.946  12.899  0.00  0.00    +0.000 N 
ATOM     29  C   UNL     1      46.731   3.681  13.625  0.00  0.00    +0.000 A 
ATOM     30  O   UNL     1      47.496   3.139  14.416  0.00  0.00    +0.000 OA
ATOM     31  C   UNL     1      46.717   5.104  13.342  0.00  0.00    +0.000 A 
ATOM     32  H   UNL     1      45.821   1.952  13.077  0.00  0.00    +0.000 HD
ENDBRANCH  19  22
ENDBRANCH   2  18
TORSDOF 5
ENDMDL
MODEL 8
REMARK VINA RESULT:    -7.968      2.637      3.998
REMARK INTER + INTRA:         -10.667
REMARK INTER:                  -9.810
REMARK INTRA:                  -0.857
REMARK UNBOUND:                -0.370
REMARK  Name = 
REMARK  6 active torsions:
REMARK  status: ('A' for Active; 'I' for Inactive)
REMARK    1  A    between atoms: C_1  and  C_2
REMARK    2  A    between atoms: C_2  and  N_3
REMARK    3  A    between atoms: C_2  and  C_16
REMARK    4  A    between atoms: C_4  and  C_6
REMARK    5  A    between atoms: C_19  and  C_20
REMARK    6  A    between atoms: C_20  and  N_21
REMARK                            x       y       z     vdW  Elec       q    Type
REMARK                         _______ _______ _______ _____ _____    ______ ____
ROOT
ATOM      1  C   UNL     1      45.417   8.757  12.866  0.00  0.00    +0.000 C 
ATOM      2  C   UNL     1      46.179   7.487  13.258  0.00  0.00    +0.000 C 
ENDROOT
BRANCH   2   3
ATOM      3  C   UNL     1      45.854   6.298  12.371  0.00  0.00    +0.000 A 
ATOM      4  C   UNL     1      45.563   5.063  12.970  0.00  0.00    +0.000 A 
ATOM      5  C   UNL     1      45.125   3.984  12.200  0.00  0.00    +0.000 A 
ATOM      6  C   UNL     1      44.998   4.107  10.811  0.00  0.00    +0.000 A 
ATOM      7  C   UNL     1      45.364   5.311  10.200  0.00  0.00    +0.000 A 
ATOM      8  C   UNL     1      45.806   6.387  10.971  0.00  0.00    +0.000 A 
BRANCH   6   9
ATOM      9  C   UNL     1      44.434   2.972   9.993  0.00  0.00    +0.000 C 
BRANCH   9  10
ATOM     10  N   UNL     1      44.423   3.344   8.593  0.00  0.00    +0.000 N 
ATOM     11  C   UNL     1      45.500   2.821   7.890  0.00  0.00    +0.000 A 
ATOM     12  N   UNL     1      45.999   1.624   8.236  0.00  0.00    +0.000 NA
ATOM     13  C   UNL     1      47.048   1.167   7.532  0.00  0.00    +0.000 A 
ATOM     14  C   UNL     1      47.621   1.861   6.498  0.00  0.00    +0.000 A 
ATOM     15  C   UNL     1      47.042   3.073   6.220  0.00  0.00    +0.000 A 
ATOM     16  N   UNL     1      45.994   3.576   6.900  0.00  0.00    +0.000 NA
ATOM     17  H   UNL     1      44.391   4.340   8.407  0.00  0.00    +0.000 HD
ENDBRANCH   9  10
ENDBRANCH   6   9
ENDBRANCH   2   3
BRANCH   2  18
ATOM     18  N   UNL     1      47.604   7.726  13.248  0.00  0.00    +0.000 N 
ATOM     19  C   UNL     1      48.473   7.082  14.088  0.00  0.00    +0.000 C 
ATOM     20  O   UNL     1      48.143   6.129  14.792  0.00  0.00    +0.000 OA
ATOM     21  H   UNL     1      47.887   8.600  12.819  0.00  0.00    +0.000 HD
BRANCH  19  22
ATOM     22  C   UNL     1      49.855   7.577  14.072  0.00  0.00    +0.000 A 
ATOM     23  C   UNL     1      50.567   7.722  15.253  0.00  0.00    +0.000 A 
ATOM     24  S   UNL     1      52.160   8.292  15.023  0.00  0.00    +0.000 S 
ATOM     25  C   UNL     1      51.929   8.425  13.341  0.00  0.00    +0.000 A 
ATOM     26  N   UNL     1      52.912   8.904  12.532  0.00  0.00    +0.000 NA
ATOM     27  C   UNL     1      52.584   8.987  11.286  0.00  0.00    +0.000 A 
ATOM     28  N   UNL     1      51.365   8.625  10.773  0.00  0.00    +0.000 N 
ATOM     29  C   UNL     1      50.364   8.085  11.542  0.00  0.00    +0.000 A 
ATOM     30  O   UNL     1      49.324   7.683  11.031  0.00  0.00    +0.000 OA
ATOM     31  C   UNL     1      50.668   8.005  12.958  0.00  0.00    +0.000 A 
ATOM     32  H   UNL     1      51.178   8.690   9.783  0.00  0.00    +0.000 HD
ENDBRANCH  19  22
ENDBRANCH   2  18
TORSDOF 5
ENDMDL
