MODEL 1
REMARK VINA RESULT:    -9.740      0.000      0.000
REMARK INTER + INTRA:         -13.439
REMARK INTER:                 -12.588
REMARK INTRA:                  -0.851
REMARK UNBOUND:                -0.851
REMARK  Name = 
REMARK  5 active torsions:
REMARK  status: ('A' for Active; 'I' for Inactive)
REMARK    1  A    between atoms: C_2  and  C_4
REMARK    2  A    between atoms: N_8  and  C_9
REMARK    3  A    between atoms: C_9  and  C_10
REMARK    4  A    between atoms: C_10  and  C_13
REMARK    5  A    between atoms: C_15  and  C_16
REMARK                            x       y       z     vdW  Elec       q    Type
REMARK                         _______ _______ _______ _____ _____    ______ ____
ROOT
ATOM      1  C   UNL     1      43.480   4.588  12.411  0.00  0.00    +0.000 C 
ATOM      2  F   UNL     1      42.541   5.522  12.746  0.00  0.00    +0.000 F 
ATOM      3  F   UNL     1      43.092   3.450  13.066  0.00  0.00    +0.000 F 
ENDROOT
BRANCH   1   4
ATOM      4  C   UNL     1      44.872   5.027  12.809  0.00  0.00    +0.000 A 
ATOM      5  C   UNL     1      45.534   4.461  13.915  0.00  0.00    +0.000 A 
ATOM      6  C   UNL     1      46.842   4.852  14.274  0.00  0.00    +0.000 A 
ATOM      7  C   UNL     1      47.476   5.822  13.479  0.00  0.00    +0.000 A 
ATOM      8  C   UNL     1      46.831   6.394  12.384  0.00  0.00    +0.000 A 
ATOM      9  C   UNL     1      45.537   6.001  12.069  0.00  0.00    +0.000 A 
ATOM     10  F   UNL     1      44.946   6.561  11.005  0.00  0.00    +0.000 F 
BRANCH   6  11
ATOM     11  C   UNL     1      47.526   4.240  15.432  0.00  0.00    +0.000 A 
ATOM     12  C   UNL     1      47.848   4.960  16.584  0.00  0.00    +0.000 A 
ATOM     13  C   UNL     1      48.539   4.326  17.615  0.00  0.00    +0.000 A 
ATOM     14  C   UNL     1      48.882   2.990  17.477  0.00  0.00    +0.000 A 
ATOM     15  C   UNL     1      48.512   2.337  16.316  0.00  0.00    +0.000 A 
ATOM     16  N   UNL     1      47.846   2.929  15.299  0.00  0.00    +0.000 NA
ENDBRANCH   6  11
ENDBRANCH   1   4
BRANCH   1  17
ATOM     17  C   UNL     1      43.396   4.319  10.887  0.00  0.00    +0.000 C 
BRANCH  17  22
ATOM     18  C   UNL     1      46.670   2.587   7.329  0.00  0.00    +0.000 A 
ATOM     19  C   UNL     1      46.195   3.866   7.595  0.00  0.00    +0.000 A 
ATOM     20  C   UNL     1      45.301   4.050   8.650  0.00  0.00    +0.000 A 
ATOM     21  C   UNL     1      44.882   2.960   9.409  0.00  0.00    +0.000 A 
ATOM     22  N   UNL     1      44.017   3.069  10.462  0.00  0.00    +0.000 N 
ATOM     23  N   UNL     1      45.330   1.717   9.150  0.00  0.00    +0.000 NA
ATOM     24  C   UNL     1      46.205   1.551   8.123  0.00  0.00    +0.000 A 
ATOM     25  H   UNL     1      43.707   2.186  10.855  0.00  0.00    +0.000 HD
BRANCH  18  27
ATOM     26  N   UNL     1      47.638   3.182   5.184  0.00  0.00    +0.000 N 
ATOM     27  C   UNL     1      47.603   2.295   6.224  0.00  0.00    +0.000 C 
ATOM     28  O   UNL     1      48.335   1.314   6.246  0.00  0.00    +0.000 OA
ATOM     29  H   UNL     1      48.346   3.017   4.477  0.00  0.00    +0.000 HD
ATOM     30  H   UNL     1      47.250   4.112   5.247  0.00  0.00    +0.000 HD
ENDBRANCH  18  27
ENDBRANCH  17  22
ENDBRANCH   1  17
TORSDOF 5
ENDMDL
MODEL 2
REMARK VINA RESULT:    -9.516      2.520      4.247
REMARK INTER + INTRA:         -13.148
REMARK INTER:                 -12.160
REMARK INTRA:                  -0.989
REMARK UNBOUND:                -0.851
REMARK  Name = 
REMARK  5 active torsions:
REMARK  status: ('A' for Active; 'I' for Inactive)
REMARK    1  A    between atoms: C_2  and  C_4
REMARK    2  A    between atoms: N_8  and  C_9
REMARK    3  A    between atoms: C_9  and  C_10
REMARK    4  A    between atoms: C_10  and  C_13
REMARK    5  A    between atoms: C_15  and  C_16
REMARK                            x       y       z     vdW  Elec       q    Type
REMARK                         _______ _______ _______ _____ _____    ______ ____
ROOT
ATOM      1  C   UNL     1      43.238   4.920  12.556  0.00  0.00    +0.000 C 
ATOM      2  F   UNL     1      42.277   5.885  12.656  0.00  0.00    +0.000 F 
ATOM      3  F   UNL     1      42.972   4.052  13.581  0.00  0.00    +0.000 F 
ENDROOT
BRANCH   1   4
ATOM      4  C   UNL     1      44.630   5.507  12.654  0.00  0.00    +0.000 A 
ATOM      5  C   UNL     1      44.868   6.876  12.428  0.00  0.00    +0.000 A 
ATOM      6  C   UNL     1      46.162   7.431  12.541  0.00  0.00    +0.000 A 
ATOM      7  C   UNL     1      47.212   6.571  12.906  0.00  0.00    +0.000 A 
ATOM      8  C   UNL     1      46.991   5.213  13.129  0.00  0.00    +0.000 A 
ATOM      9  C   UNL     1      45.710   4.696  12.990  0.00  0.00    +0.000 A 
ATOM     10  F   UNL     1      45.526   3.389  13.220  0.00  0.00    +0.000 F 
BRANCH   6  11
ATOM     11  C   UNL     1      46.393   8.872  12.310  0.00  0.00    +0.000 A 
ATOM     12  C   UNL     1      45.361   9.759  11.997  0.00  0.00    +0.000 A 
ATOM     13  C   UNL     1      45.665  11.095  11.743  0.00  0.00    +0.000 A 
ATOM     14  C   UNL     1      46.984  11.516  11.816  0.00  0.00    +0.000 A 
ATOM     15  C   UNL     1      47.949  10.583  12.151  0.00  0.00    +0.000 A 
ATOM     16  N   UNL     1      47.683   9.281  12.398  0.00  0.00    +0.000 NA
ENDBRANCH   6  11
ENDBRANCH   1   4
BRANCH   1  17
ATOM     17  C   UNL     1      43.049   4.160  11.219  0.00  0.00    +0.000 C 
BRANCH  17  22
ATOM     18  C   UNL     1      46.415   2.449   7.739  0.00  0.00    +0.000 A 
ATOM     19  C   UNL     1      45.704   1.785   8.732  0.00  0.00    +0.000 A 
ATOM     20  C   UNL     1      44.835   2.515   9.544  0.00  0.00    +0.000 A 
ATOM     21  C   UNL     1      44.703   3.890   9.367  0.00  0.00    +0.000 A 
ATOM     22  N   UNL     1      43.864   4.664  10.120  0.00  0.00    +0.000 N 
ATOM     23  N   UNL     1      45.396   4.540   8.414  0.00  0.00    +0.000 NA
ATOM     24  C   UNL     1      46.234   3.818   7.625  0.00  0.00    +0.000 A 
ATOM     25  H   UNL     1      43.948   5.664   9.964  0.00  0.00    +0.000 HD
BRANCH  18  27
ATOM     26  N   UNL     1      48.401   2.504   6.345  0.00  0.00    +0.000 N 
ATOM     27  C   UNL     1      47.367   1.763   6.845  0.00  0.00    +0.000 C 
ATOM     28  O   UNL     1      47.254   0.573   6.580  0.00  0.00    +0.000 OA
ATOM     29  H   UNL     1      49.096   2.000   5.806  0.00  0.00    +0.000 HD
ATOM     30  H   UNL     1      48.670   3.396   6.734  0.00  0.00    +0.000 HD
ENDBRANCH  18  27
ENDBRANCH  17  22
ENDBRANCH   1  17
TORSDOF 5
ENDMDL
MODEL 3
REMARK VINA RESULT:    -9.459      2.070      3.214
REMARK INTER + INTRA:         -13.074
REMARK INTER:                 -11.851
REMARK INTRA:                  -1.223
REMARK UNBOUND:                -0.851
REMARK  Name = 
REMARK  5 active torsions:
REMARK  status: ('A' for Active; 'I' for Inactive)
REMARK    1  A    between atoms: C_2  and  C_4
REMARK    2  A    between atoms: N_8  and  C_9
REMARK    3  A    between atoms: C_9  and  C_10
REMARK    4  A    between atoms: C_10  and  C_13
REMARK    5  A    between atoms: C_15  and  C_16
REMARK                            x       y       z     vdW  Elec       q    Type
REMARK                         _______ _______ _______ _____ _____    ______ ____
ROOT
ATOM      1  C   UNL     1      43.619   5.689  12.011  0.00  0.00    +0.000 C 
ATOM      2  F   UNL     1      43.539   7.026  11.747  0.00  0.00    +0.000 F 
ATOM      3  F   UNL     1      42.631   5.452  12.928  0.00  0.00    +0.000 F 
ENDROOT
BRANCH   1   4
ATOM      4  C   UNL     1      44.986   5.304  12.535  0.00  0.00    +0.000 A 
ATOM      5  C   UNL     1      46.032   6.242  12.620  0.00  0.00    +0.000 A 
ATOM      6  C   UNL     1      47.301   5.892  13.130  0.00  0.00    +0.000 A 
ATOM      7  C   UNL     1      47.487   4.570  13.569  0.00  0.00    +0.000 A 
ATOM      8  C   UNL     1      46.461   3.630  13.487  0.00  0.00    +0.000 A 
ATOM      9  C   UNL     1      45.231   4.002  12.962  0.00  0.00    +0.000 A 
ATOM     10  F   UNL     1      44.261   3.079  12.906  0.00  0.00    +0.000 F 
BRANCH   6  11
ATOM     11  C   UNL     1      48.385   6.892  13.221  0.00  0.00    +0.000 A 
ATOM     12  C   UNL     1      48.597   7.864  12.241  0.00  0.00    +0.000 A 
ATOM     13  C   UNL     1      49.672   8.741  12.372  0.00  0.00    +0.000 A 
ATOM     14  C   UNL     1      50.501   8.636  13.479  0.00  0.00    +0.000 A 
ATOM     15  C   UNL     1      50.216   7.661  14.417  0.00  0.00    +0.000 A 
ATOM     16  N   UNL     1      49.183   6.794  14.313  0.00  0.00    +0.000 NA
ENDBRANCH   6  11
ENDBRANCH   1   4
BRANCH   1  17
ATOM     17  C   UNL     1      43.277   4.902  10.720  0.00  0.00    +0.000 C 
BRANCH  17  22
ATOM     18  C   UNL     1      46.479   2.284   7.676  0.00  0.00    +0.000 A 
ATOM     19  C   UNL     1      45.643   1.866   8.704  0.00  0.00    +0.000 A 
ATOM     20  C   UNL     1      44.862   2.813   9.368  0.00  0.00    +0.000 A 
ATOM     21  C   UNL     1      44.940   4.157   9.012  0.00  0.00    +0.000 A 
ATOM     22  N   UNL     1      44.197   5.135   9.612  0.00  0.00    +0.000 N 
ATOM     23  N   UNL     1      45.755   4.570   8.023  0.00  0.00    +0.000 NA
ATOM     24  C   UNL     1      46.506   3.638   7.380  0.00  0.00    +0.000 A 
ATOM     25  H   UNL     1      44.433   6.083   9.336  0.00  0.00    +0.000 HD
BRANCH  18  27
ATOM     26  N   UNL     1      48.427   1.897   6.280  0.00  0.00    +0.000 N 
ATOM     27  C   UNL     1      47.352   1.358   6.930  0.00  0.00    +0.000 C 
ATOM     28  O   UNL     1      47.140   0.152   6.912  0.00  0.00    +0.000 OA
ATOM     29  H   UNL     1      49.066   1.241   5.848  0.00  0.00    +0.000 HD
ATOM     30  H   UNL     1      48.774   2.825   6.478  0.00  0.00    +0.000 HD
ENDBRANCH  18  27
ENDBRANCH  17  22
ENDBRANCH   1  17
TORSDOF 5
ENDMDL
MODEL 4
REMARK VINA RESULT:    -9.177      2.364      4.182
REMARK INTER + INTRA:         -12.710
REMARK INTER:                 -11.633
REMARK INTRA:                  -1.078
REMARK UNBOUND:                -0.851
REMARK  Name = 
REMARK  5 active torsions:
REMARK  status: ('A' for Active; 'I' for Inactive)
REMARK    1  A    between atoms: C_2  and  C_4
REMARK    2  A    between atoms: N_8  and  C_9
REMARK    3  A    between atoms: C_9  and  C_10
REMARK    4  A    between atoms: C_10  and  C_13
REMARK    5  A    between atoms: C_15  and  C_16
REMARK                            x       y       z     vdW  Elec       q    Type
REMARK                         _______ _______ _______ _____ _____    ______ ____
ROOT
ATOM      1  C   UNL     1      43.501   4.491  12.672  0.00  0.00    +0.000 C 
ATOM      2  F   UNL     1      42.494   5.211  13.249  0.00  0.00    +0.000 F 
ATOM      3  F   UNL     1      43.568   3.334  13.402  0.00  0.00    +0.000 F 
ENDROOT
BRANCH   1   4
ATOM      4  C   UNL     1      44.810   5.250  12.687  0.00  0.00    +0.000 A 
ATOM      5  C   UNL     1      44.862   6.632  12.428  0.00  0.00    +0.000 A 
ATOM      6  C   UNL     1      46.078   7.347  12.464  0.00  0.00    +0.000 A 
ATOM      7  C   UNL     1      47.246   6.634  12.785  0.00  0.00    +0.000 A 
ATOM      8  C   UNL     1      47.210   5.265  13.040  0.00  0.00    +0.000 A 
ATOM      9  C   UNL     1      46.000   4.588  12.977  0.00  0.00    +0.000 A 
ATOM     10  F   UNL     1      45.995   3.273  13.237  0.00  0.00    +0.000 F 
BRANCH   6  11
ATOM     11  C   UNL     1      46.113   8.800  12.198  0.00  0.00    +0.000 A 
ATOM     12  C   UNL     1      47.267   9.569  12.364  0.00  0.00    +0.000 A 
ATOM     13  C   UNL     1      47.208  10.943  12.142  0.00  0.00    +0.000 A 
ATOM     14  C   UNL     1      46.007  11.516  11.752  0.00  0.00    +0.000 A 
ATOM     15  C   UNL     1      44.911  10.687  11.589  0.00  0.00    +0.000 A 
ATOM     16  N   UNL     1      44.939   9.352  11.802  0.00  0.00    +0.000 NA
ENDBRANCH   6  11
ENDBRANCH   1   4
BRANCH   1  17
ATOM     17  C   UNL     1      43.088   4.123  11.225  0.00  0.00    +0.000 C 
BRANCH  17  22
ATOM     18  C   UNL     1      46.445   2.708   7.605  0.00  0.00    +0.000 A 
ATOM     19  C   UNL     1      45.962   3.959   7.971  0.00  0.00    +0.000 A 
ATOM     20  C   UNL     1      45.044   4.051   9.018  0.00  0.00    +0.000 A 
ATOM     21  C   UNL     1      44.609   2.898   9.668  0.00  0.00    +0.000 A 
ATOM     22  N   UNL     1      43.720   2.915  10.707  0.00  0.00    +0.000 N 
ATOM     23  N   UNL     1      45.066   1.683   9.312  0.00  0.00    +0.000 NA
ATOM     24  C   UNL     1      45.964   1.607   8.296  0.00  0.00    +0.000 A 
ATOM     25  H   UNL     1      43.403   2.001  11.014  0.00  0.00    +0.000 HD
BRANCH  18  27
ATOM     26  N   UNL     1      47.223   3.267   5.375  0.00  0.00    +0.000 N 
ATOM     27  C   UNL     1      47.404   2.514   6.501  0.00  0.00    +0.000 C 
ATOM     28  O   UNL     1      48.339   1.729   6.595  0.00  0.00    +0.000 OA
ATOM     29  H   UNL     1      47.939   3.189   4.662  0.00  0.00    +0.000 HD
ATOM     30  H   UNL     1      46.636   4.089   5.357  0.00  0.00    +0.000 HD
ENDBRANCH  18  27
ENDBRANCH  17  22
ENDBRANCH   1  17
TORSDOF 5
ENDMDL
MODEL 5
REMARK VINA RESULT:    -9.147      2.490      3.102
REMARK INTER + INTRA:         -12.672
REMARK INTER:                 -11.647
REMARK INTRA:                  -1.025
REMARK UNBOUND:                -0.851
REMARK  Name = 
REMARK  5 active torsions:
REMARK  status: ('A' for Active; 'I' for Inactive)
REMARK    1  A    between atoms: C_2  and  C_4
REMARK    2  A    between atoms: N_8  and  C_9
REMARK    3  A    between atoms: C_9  and  C_10
REMARK    4  A    between atoms: C_10  and  C_13
REMARK    5  A    between atoms: C_15  and  C_16
REMARK                            x       y       z     vdW  Elec       q    Type
REMARK                         _______ _______ _______ _____ _____    ______ ____
ROOT
ATOM      1  C   UNL     1      44.098   4.024  12.457  0.00  0.00    +0.000 C 
ATOM      2  F   UNL     1      43.214   4.022  13.497  0.00  0.00    +0.000 F 
ATOM      3  F   UNL     1      45.079   3.144  12.827  0.00  0.00    +0.000 F 
ENDROOT
BRANCH   1   4
ATOM      4  C   UNL     1      44.646   5.410  12.192  0.00  0.00    +0.000 A 
ATOM      5  C   UNL     1      45.981   5.741  12.488  0.00  0.00    +0.000 A 
ATOM      6  C   UNL     1      46.502   7.026  12.221  0.00  0.00    +0.000 A 
ATOM      7  C   UNL     1      45.644   7.969  11.630  0.00  0.00    +0.000 A 
ATOM      8  C   UNL     1      44.318   7.655  11.335  0.00  0.00    +0.000 A 
ATOM      9  C   UNL     1      43.832   6.388  11.628  0.00  0.00    +0.000 A 
ATOM     10  F   UNL     1      42.557   6.113  11.324  0.00  0.00    +0.000 F 
BRANCH   6  11
ATOM     11  C   UNL     1      47.909   7.355  12.529  0.00  0.00    +0.000 A 
ATOM     12  C   UNL     1      48.798   7.838  11.568  0.00  0.00    +0.000 A 
ATOM     13  C   UNL     1      50.124   8.077  11.924  0.00  0.00    +0.000 A 
ATOM     14  C   UNL     1      50.529   7.839  13.228  0.00  0.00    +0.000 A 
ATOM     15  C   UNL     1      49.586   7.380  14.130  0.00  0.00    +0.000 A 
ATOM     16  N   UNL     1      48.295   7.135  13.811  0.00  0.00    +0.000 NA
ENDBRANCH   6  11
ENDBRANCH   1   4
BRANCH   1  17
ATOM     17  C   UNL     1      43.392   3.456  11.199  0.00  0.00    +0.000 C 
BRANCH  17  22
ATOM     18  C   UNL     1      46.593   2.712   7.252  0.00  0.00    +0.000 A 
ATOM     19  C   UNL     1      46.003   3.867   7.751  0.00  0.00    +0.000 A 
ATOM     20  C   UNL     1      45.165   3.774   8.863  0.00  0.00    +0.000 A 
ATOM     21  C   UNL     1      44.915   2.535   9.447  0.00  0.00    +0.000 A 
ATOM     22  N   UNL     1      44.113   2.372  10.542  0.00  0.00    +0.000 N 
ATOM     23  N   UNL     1      45.475   1.410   8.963  0.00  0.00    +0.000 NA
ATOM     24  C   UNL     1      46.294   1.514   7.883  0.00  0.00    +0.000 A 
ATOM     25  H   UNL     1      43.925   1.407  10.796  0.00  0.00    +0.000 HD
BRANCH  18  27
ATOM     26  N   UNL     1      48.803   2.451   6.284  0.00  0.00    +0.000 N 
ATOM     27  C   UNL     1      47.478   2.712   6.072  0.00  0.00    +0.000 C 
ATOM     28  O   UNL     1      47.043   2.912   4.946  0.00  0.00    +0.000 OA
ATOM     29  H   UNL     1      49.381   2.366   5.456  0.00  0.00    +0.000 HD
ATOM     30  H   UNL     1      49.147   2.037   7.138  0.00  0.00    +0.000 HD
ENDBRANCH  18  27
ENDBRANCH  17  22
ENDBRANCH   1  17
TORSDOF 5
ENDMDL
MODEL 6
REMARK VINA RESULT:    -8.682      3.057      8.171
REMARK INTER + INTRA:         -12.070
REMARK INTER:                 -11.486
REMARK INTRA:                  -0.584
REMARK UNBOUND:                -0.851
REMARK  Name = 
REMARK  5 active torsions:
REMARK  status: ('A' for Active; 'I' for Inactive)
REMARK    1  A    between atoms: C_2  and  C_4
REMARK    2  A    between atoms: N_8  and  C_9
REMARK    3  A    between atoms: C_9  and  C_10
REMARK    4  A    between atoms: C_10  and  C_13
REMARK    5  A    between atoms: C_15  and  C_16
REMARK                            x       y       z     vdW  Elec       q    Type
REMARK                         _______ _______ _______ _____ _____    ______ ____
ROOT
ATOM      1  C   UNL     1      45.292   5.822  12.421  0.00  0.00    +0.000 C 
ATOM      2  F   UNL     1      44.312   6.264  13.262  0.00  0.00    +0.000 F 
ATOM      3  F   UNL     1      45.579   6.895  11.621  0.00  0.00    +0.000 F 
ENDROOT
BRANCH   1   4
ATOM      4  C   UNL     1      44.841   4.619  11.621  0.00  0.00    +0.000 A 
ATOM      5  C   UNL     1      45.506   4.228  10.443  0.00  0.00    +0.000 A 
ATOM      6  C   UNL     1      45.102   3.093   9.707  0.00  0.00    +0.000 A 
ATOM      7  C   UNL     1      44.016   2.348  10.198  0.00  0.00    +0.000 A 
ATOM      8  C   UNL     1      43.347   2.726  11.361  0.00  0.00    +0.000 A 
ATOM      9  C   UNL     1      43.757   3.859  12.050  0.00  0.00    +0.000 A 
ATOM     10  F   UNL     1      43.101   4.192  13.170  0.00  0.00    +0.000 F 
BRANCH   6  11
ATOM     11  C   UNL     1      45.817   2.691   8.478  0.00  0.00    +0.000 A 
ATOM     12  C   UNL     1      46.046   3.570   7.418  0.00  0.00    +0.000 A 
ATOM     13  C   UNL     1      46.683   3.104   6.270  0.00  0.00    +0.000 A 
ATOM     14  C   UNL     1      47.086   1.778   6.210  0.00  0.00    +0.000 A 
ATOM     15  C   UNL     1      46.842   0.972   7.308  0.00  0.00    +0.000 A 
ATOM     16  N   UNL     1      46.222   1.398   8.431  0.00  0.00    +0.000 NA
ENDBRANCH   6  11
ENDBRANCH   1   4
BRANCH   1  17
ATOM     17  C   UNL     1      46.556   5.492  13.255  0.00  0.00    +0.000 C 
BRANCH  17  22
ATOM     18  C   UNL     1      48.425   4.443  17.922  0.00  0.00    +0.000 A 
ATOM     19  C   UNL     1      48.785   5.402  16.984  0.00  0.00    +0.000 A 
ATOM     20  C   UNL     1      48.085   5.466  15.778  0.00  0.00    +0.000 A 
ATOM     21  C   UNL     1      47.054   4.565  15.520  0.00  0.00    +0.000 A 
ATOM     22  N   UNL     1      46.321   4.577  14.367  0.00  0.00    +0.000 N 
ATOM     23  N   UNL     1      46.707   3.627  16.422  0.00  0.00    +0.000 NA
ATOM     24  C   UNL     1      47.392   3.579  17.594  0.00  0.00    +0.000 A 
ATOM     25  H   UNL     1      45.679   3.798  14.259  0.00  0.00    +0.000 HD
BRANCH  18  27
ATOM     26  N   UNL     1      48.448   3.639  20.213  0.00  0.00    +0.000 N 
ATOM     27  C   UNL     1      49.118   4.291  19.215  0.00  0.00    +0.000 C 
ATOM     28  O   UNL     1      50.257   4.707  19.384  0.00  0.00    +0.000 OA
ATOM     29  H   UNL     1      48.969   3.463  21.064  0.00  0.00    +0.000 HD
ATOM     30  H   UNL     1      47.633   3.068  20.039  0.00  0.00    +0.000 HD
ENDBRANCH  18  27
ENDBRANCH  17  22
ENDBRANCH   1  17
TORSDOF 5
ENDMDL
MODEL 7
REMARK VINA RESULT:    -8.639      2.498      7.235
REMARK INTER + INTRA:         -12.015
REMARK INTER:                 -11.265
REMARK INTRA:                  -0.750
REMARK UNBOUND:                -0.851
REMARK  Name = 
REMARK  5 active torsions:
REMARK  status: ('A' for Active; 'I' for Inactive)
REMARK    1  A    between atoms: C_2  and  C_4
REMARK    2  A    between atoms: N_8  and  C_9
REMARK    3  A    between atoms: C_9  and  C_10
REMARK    4  A    between atoms: C_10  and  C_13
REMARK    5  A    between atoms: C_15  and  C_16
REMARK                            x       y       z     vdW  Elec       q    Type
REMARK                         _______ _______ _______ _____ _____    ______ ____
ROOT
ATOM      1  C   UNL     1      44.796   6.526  11.775  0.00  0.00    +0.000 C 
ATOM      2  F   UNL     1      44.372   6.652  13.067  0.00  0.00    +0.000 F 
ATOM      3  F   UNL     1      44.119   7.497  11.087  0.00  0.00    +0.000 F 
ENDROOT
BRANCH   1   4
ATOM      4  C   UNL     1      44.519   5.142  11.228  0.00  0.00    +0.000 A 
ATOM      5  C   UNL     1      45.237   4.627  10.133  0.00  0.00    +0.000 A 
ATOM      6  C   UNL     1      44.997   3.327   9.636  0.00  0.00    +0.000 A 
ATOM      7  C   UNL     1      44.021   2.550  10.283  0.00  0.00    +0.000 A 
ATOM      8  C   UNL     1      43.300   3.050  11.366  0.00  0.00    +0.000 A 
ATOM      9  C   UNL     1      43.547   4.339  11.818  0.00  0.00    +0.000 A 
ATOM     10  F   UNL     1      42.844   4.788  12.867  0.00  0.00    +0.000 F 
BRANCH   6  11
ATOM     11  C   UNL     1      45.767   2.798   8.492  0.00  0.00    +0.000 A 
ATOM     12  C   UNL     1      46.112   3.582   7.389  0.00  0.00    +0.000 A 
ATOM     13  C   UNL     1      46.796   2.999   6.324  0.00  0.00    +0.000 A 
ATOM     14  C   UNL     1      47.128   1.654   6.389  0.00  0.00    +0.000 A 
ATOM     15  C   UNL     1      46.771   0.947   7.522  0.00  0.00    +0.000 A 
ATOM     16  N   UNL     1      46.103   1.487   8.567  0.00  0.00    +0.000 NA
ENDBRANCH   6  11
ENDBRANCH   1   4
BRANCH   1  17
ATOM     17  C   UNL     1      46.309   6.856  11.711  0.00  0.00    +0.000 C 
BRANCH  17  22
ATOM     18  C   UNL     1      47.805   3.806  15.562  0.00  0.00    +0.000 A 
ATOM     19  C   UNL     1      47.192   3.519  14.349  0.00  0.00    +0.000 A 
ATOM     20  C   UNL     1      46.901   4.565  13.472  0.00  0.00    +0.000 A 
ATOM     21  C   UNL     1      47.208   5.878  13.825  0.00  0.00    +0.000 A 
ATOM     22  N   UNL     1      46.960   6.948  13.013  0.00  0.00    +0.000 N 
ATOM     23  N   UNL     1      47.793   6.163  15.004  0.00  0.00    +0.000 NA
ATOM     24  C   UNL     1      48.076   5.135  15.846  0.00  0.00    +0.000 A 
ATOM     25  H   UNL     1      47.127   7.855  13.437  0.00  0.00    +0.000 HD
BRANCH  18  27
ATOM     26  N   UNL     1      47.426   2.774  17.727  0.00  0.00    +0.000 N 
ATOM     27  C   UNL     1      48.134   2.767  16.557  0.00  0.00    +0.000 C 
ATOM     28  O   UNL     1      48.987   1.918  16.337  0.00  0.00    +0.000 OA
ATOM     29  H   UNL     1      47.600   2.004  18.361  0.00  0.00    +0.000 HD
ATOM     30  H   UNL     1      46.561   3.284  17.837  0.00  0.00    +0.000 HD
ENDBRANCH  18  27
ENDBRANCH  17  22
ENDBRANCH   1  17
TORSDOF 5
ENDMDL
MODEL 8
REMARK VINA RESULT:    -8.129      3.565      7.382
REMARK INTER + INTRA:         -11.356
REMARK INTER:                 -10.484
REMARK INTRA:                  -0.872
REMARK UNBOUND:                -0.851
REMARK  Name = 
REMARK  5 active torsions:
REMARK  status: ('A' for Active; 'I' for Inactive)
REMARK    1  A    between atoms: C_2  and  C_4
REMARK    2  A    between atoms: N_8  and  C_9
REMARK    3  A    between atoms: C_9  and  C_10
REMARK    4  A    between atoms: C_10  and  C_13
REMARK    5  A    between atoms: C_15  and  C_16
REMARK                            x       y       z     vdW  Elec       q    Type
REMARK                         _______ _______ _______ _____ _____    ______ ____
ROOT
ATOM      1  C   UNL     1      44.434   6.523  11.410  0.00  0.00    +0.000 C 
ATOM      2  F   UNL     1      43.218   7.144  11.385  0.00  0.00    +0.000 F 
ATOM      3  F   UNL     1      45.239   7.295  10.617  0.00  0.00    +0.000 F 
ENDROOT
BRANCH   1   4
ATOM      4  C   UNL     1      44.342   5.096  10.912  0.00  0.00    +0.000 A 
ATOM      5  C   UNL     1      45.087   4.656   9.802  0.00  0.00    +0.000 A 
ATOM      6  C   UNL     1      45.022   3.320   9.349  0.00  0.00    +0.000 A 
ATOM      7  C   UNL     1      44.195   2.430  10.056  0.00  0.00    +0.000 A 
ATOM      8  C   UNL     1      43.450   2.854  11.154  0.00  0.00    +0.000 A 
ATOM      9  C   UNL     1      43.522   4.179  11.562  0.00  0.00    +0.000 A 
ATOM     10  F   UNL     1      42.801   4.554  12.627  0.00  0.00    +0.000 F 
BRANCH   6  11
ATOM     11  C   UNL     1      45.818   2.873   8.188  0.00  0.00    +0.000 A 
ATOM     12  C   UNL     1      46.343   1.583   8.086  0.00  0.00    +0.000 A 
ATOM     13  C   UNL     1      47.126   1.250   6.983  0.00  0.00    +0.000 A 
ATOM     14  C   UNL     1      47.360   2.205   6.005  0.00  0.00    +0.000 A 
ATOM     15  C   UNL     1      46.790   3.456   6.165  0.00  0.00    +0.000 A 
ATOM     16  N   UNL     1      46.030   3.806   7.227  0.00  0.00    +0.000 NA
ENDBRANCH   6  11
ENDBRANCH   1   4
BRANCH   1  17
ATOM     17  C   UNL     1      44.991   6.572  12.855  0.00  0.00    +0.000 C 
BRANCH  17  22
ATOM     18  C   UNL     1      49.832   8.286  12.878  0.00  0.00    +0.000 A 
ATOM     19  C   UNL     1      49.295   7.057  12.514  0.00  0.00    +0.000 A 
ATOM     20  C   UNL     1      47.916   6.868  12.603  0.00  0.00    +0.000 A 
ATOM     21  C   UNL     1      47.098   7.896  13.067  0.00  0.00    +0.000 A 
ATOM     22  N   UNL     1      45.740   7.783  13.170  0.00  0.00    +0.000 N 
ATOM     23  N   UNL     1      47.613   9.086  13.431  0.00  0.00    +0.000 NA
ATOM     24  C   UNL     1      48.957   9.260  13.334  0.00  0.00    +0.000 A 
ATOM     25  H   UNL     1      45.279   8.563  13.629  0.00  0.00    +0.000 HD
BRANCH  18  27
ATOM     26  N   UNL     1      52.069   7.945  13.756  0.00  0.00    +0.000 N 
ATOM     27  C   UNL     1      51.279   8.571  12.833  0.00  0.00    +0.000 C 
ATOM     28  O   UNL     1      51.759   9.317  11.989  0.00  0.00    +0.000 OA
ATOM     29  H   UNL     1      53.068   8.079  13.657  0.00  0.00    +0.000 HD
ATOM     30  H   UNL     1      51.756   7.145  14.288  0.00  0.00    +0.000 HD
ENDBRANCH  18  27
ENDBRANCH  17  22
ENDBRANCH   1  17
TORSDOF 5
ENDMDL
MODEL 9
REMARK VINA RESULT:    -7.658      3.655      7.993
REMARK INTER + INTRA:         -10.747
REMARK INTER:                  -9.927
REMARK INTRA:                  -0.820
REMARK UNBOUND:                -0.851
REMARK  Name = 
REMARK  5 active torsions:
REMARK  status: ('A' for Active; 'I' for Inactive)
REMARK    1  A    between atoms: C_2  and  C_4
REMARK    2  A    between atoms: N_8  and  C_9
REMARK    3  A    between atoms: C_9  and  C_10
REMARK    4  A    between atoms: C_10  and  C_13
REMARK    5  A    between atoms: C_15  and  C_16
REMARK                            x       y       z     vdW  Elec       q    Type
REMARK                         _______ _______ _______ _____ _____    ______ ____
ROOT
ATOM      1  C   UNL     1      44.742   6.396  11.798  0.00  0.00    +0.000 C 
ATOM      2  F   UNL     1      44.577   6.384  13.154  0.00  0.00    +0.000 F 
ATOM      3  F   UNL     1      43.845   7.324  11.343  0.00  0.00    +0.000 F 
ENDROOT
BRANCH   1   4
ATOM      4  C   UNL     1      44.503   5.028  11.195  0.00  0.00    +0.000 A 
ATOM      5  C   UNL     1      45.210   4.592  10.059  0.00  0.00    +0.000 A 
ATOM      6  C   UNL     1      45.006   3.308   9.508  0.00  0.00    +0.000 A 
ATOM      7  C   UNL     1      44.079   2.464  10.143  0.00  0.00    +0.000 A 
ATOM      8  C   UNL     1      43.370   2.885  11.267  0.00  0.00    +0.000 A 
ATOM      9  C   UNL     1      43.580   4.161  11.772  0.00  0.00    +0.000 A 
ATOM     10  F   UNL     1      42.891   4.533  12.859  0.00  0.00    +0.000 F 
BRANCH   6  11
ATOM     11  C   UNL     1      45.763   2.863   8.320  0.00  0.00    +0.000 A 
ATOM     12  C   UNL     1      46.274   1.570   8.193  0.00  0.00    +0.000 A 
ATOM     13  C   UNL     1      47.021   1.239   7.065  0.00  0.00    +0.000 A 
ATOM     14  C   UNL     1      47.233   2.199   6.087  0.00  0.00    +0.000 A 
ATOM     15  C   UNL     1      46.678   3.453   6.273  0.00  0.00    +0.000 A 
ATOM     16  N   UNL     1      45.953   3.801   7.360  0.00  0.00    +0.000 NA
ENDBRANCH   6  11
ENDBRANCH   1   4
BRANCH   1  17
ATOM     17  C   UNL     1      46.169   6.905  11.472  0.00  0.00    +0.000 C 
BRANCH  17  22
ATOM     18  C   UNL     1      48.924   7.717  15.730  0.00  0.00    +0.000 A 
ATOM     19  C   UNL     1      48.607   6.546  15.051  0.00  0.00    +0.000 A 
ATOM     20  C   UNL     1      47.833   6.624  13.893  0.00  0.00    +0.000 A 
ATOM     21  C   UNL     1      47.373   7.860  13.442  0.00  0.00    +0.000 A 
ATOM     22  N   UNL     1      46.620   8.010  12.311  0.00  0.00    +0.000 N 
ATOM     23  N   UNL     1      47.668   8.996  14.101  0.00  0.00    +0.000 NA
ATOM     24  C   UNL     1      48.428   8.908  15.224  0.00  0.00    +0.000 A 
ATOM     25  H   UNL     1      46.257   8.946  12.160  0.00  0.00    +0.000 HD
BRANCH  18  27
ATOM     26  N   UNL     1      50.478   6.622  17.240  0.00  0.00    +0.000 N 
ATOM     27  C   UNL     1      49.722   7.729  16.971  0.00  0.00    +0.000 C 
ATOM     28  O   UNL     1      49.728   8.698  17.719  0.00  0.00    +0.000 OA
ATOM     29  H   UNL     1      51.088   6.681  18.047  0.00  0.00    +0.000 HD
ATOM     30  H   UNL     1      50.695   5.928  16.540  0.00  0.00    +0.000 HD
ENDBRANCH  18  27
ENDBRANCH  17  22
ENDBRANCH   1  17
TORSDOF 5
ENDMDL
