MODEL 1
REMARK VINA RESULT:    -9.284      0.000      0.000
REMARK INTER + INTRA:         -13.509
REMARK INTER:                 -12.540
REMARK INTRA:                  -0.969
REMARK UNBOUND:                -0.969
REMARK  Name = 
REMARK  6 active torsions:
REMARK  status: ('A' for Active; 'I' for Inactive)
REMARK    1  A    between atoms: C_2  and  C_4
REMARK    2  A    between atoms: N_8  and  C_9
REMARK    3  A    between atoms: C_9  and  C_10
REMARK    4  A    between atoms: C_10  and  C_13
REMARK    5  A    between atoms: C_18  and  O_19
REMARK    6  A    between atoms: O_19  and  C_20
REMARK                            x       y       z     vdW  Elec       q    Type
REMARK                         _______ _______ _______ _____ _____    ______ ____
ROOT
ATOM      1  C   UNL     1      43.626   4.671  12.582  0.00  0.00    +0.000 C 
ATOM      2  F   UNL     1      42.724   5.552  13.103  0.00  0.00    +0.000 F 
ATOM      3  F   UNL     1      43.385   3.486  13.222  0.00  0.00    +0.000 F 
ENDROOT
BRANCH   1   4
ATOM      4  C   UNL     1      45.056   5.138  12.789  0.00  0.00    +0.000 A 
ATOM      5  C   UNL     1      45.644   6.042  11.893  0.00  0.00    +0.000 A 
ATOM      6  C   UNL     1      46.959   6.454  12.087  0.00  0.00    +0.000 A 
ATOM      7  F   UNL     1      47.512   7.314  11.222  0.00  0.00    +0.000 F 
ATOM      8  C   UNL     1      47.703   5.992  13.164  0.00  0.00    +0.000 A 
ATOM      9  C   UNL     1      47.127   5.103  14.068  0.00  0.00    +0.000 A 
ATOM     10  C   UNL     1      45.815   4.662  13.875  0.00  0.00    +0.000 A 
BRANCH   9  11
ATOM     11  O   UNL     1      47.935   4.703  15.104  0.00  0.00    +0.000 OA
BRANCH  11  12
ATOM     12  C   UNL     1      47.346   3.948  16.187  0.00  0.00    +0.000 C 
ATOM     13  C   UNL     1      47.466   4.506  17.612  0.00  0.00    +0.000 C 
ATOM     14  O   UNL     1      48.098   3.296  18.089  0.00  0.00    +0.000 OA
ATOM     15  C   UNL     1      48.204   2.799  16.735  0.00  0.00    +0.000 C 
ENDBRANCH  11  12
ENDBRANCH   9  11
ENDBRANCH   1   4
BRANCH   1  16
ATOM     16  C   UNL     1      43.330   4.484  11.074  0.00  0.00    +0.000 C 
BRANCH  16  21
ATOM     17  C   UNL     1      46.488   2.617   7.476  0.00  0.00    +0.000 A 
ATOM     18  C   UNL     1      46.057   3.913   7.734  0.00  0.00    +0.000 A 
ATOM     19  C   UNL     1      45.138   4.131   8.760  0.00  0.00    +0.000 A 
ATOM     20  C   UNL     1      44.671   3.059   9.518  0.00  0.00    +0.000 A 
ATOM     21  N   UNL     1      43.772   3.201  10.539  0.00  0.00    +0.000 N 
ATOM     22  N   UNL     1      45.071   1.800   9.263  0.00  0.00    +0.000 NA
ATOM     23  C   UNL     1      45.953   1.598   8.246  0.00  0.00    +0.000 A 
ATOM     24  H   UNL     1      43.580   2.343  11.049  0.00  0.00    +0.000 HD
BRANCH  17  26
ATOM     25  N   UNL     1      47.487   3.117   5.325  0.00  0.00    +0.000 N 
ATOM     26  C   UNL     1      47.468   2.300   6.422  0.00  0.00    +0.000 C 
ATOM     27  O   UNL     1      48.257   1.372   6.536  0.00  0.00    +0.000 OA
ATOM     28  H   UNL     1      48.232   2.957   4.657  0.00  0.00    +0.000 HD
ATOM     29  H   UNL     1      47.036   4.021   5.310  0.00  0.00    +0.000 HD
ENDBRANCH  17  26
ENDBRANCH  16  21
ENDBRANCH   1  16
TORSDOF 6
ENDMDL
MODEL 2
REMARK VINA RESULT:    -8.597      1.782      2.122
REMARK INTER + INTRA:         -12.582
REMARK INTER:                 -12.109
REMARK INTRA:                  -0.473
REMARK UNBOUND:                -0.969
REMARK  Name = 
REMARK  6 active torsions:
REMARK  status: ('A' for Active; 'I' for Inactive)
REMARK    1  A    between atoms: C_2  and  C_4
REMARK    2  A    between atoms: N_8  and  C_9
REMARK    3  A    between atoms: C_9  and  C_10
REMARK    4  A    between atoms: C_10  and  C_13
REMARK    5  A    between atoms: C_18  and  O_19
REMARK    6  A    between atoms: O_19  and  C_20
REMARK                            x       y       z     vdW  Elec       q    Type
REMARK                         _______ _______ _______ _____ _____    ______ ____
ROOT
ATOM      1  C   UNL     1      43.691   4.629  12.432  0.00  0.00    +0.000 C 
ATOM      2  F   UNL     1      42.640   4.856  13.274  0.00  0.00    +0.000 F 
ATOM      3  F   UNL     1      44.088   3.345  12.689  0.00  0.00    +0.000 F 
ENDROOT
BRANCH   1   4
ATOM      4  C   UNL     1      44.819   5.620  12.658  0.00  0.00    +0.000 A 
ATOM      5  C   UNL     1      44.699   6.945  12.217  0.00  0.00    +0.000 A 
ATOM      6  C   UNL     1      45.744   7.841  12.419  0.00  0.00    +0.000 A 
ATOM      7  F   UNL     1      45.620   9.102  11.989  0.00  0.00    +0.000 F 
ATOM      8  C   UNL     1      46.910   7.448  13.062  0.00  0.00    +0.000 A 
ATOM      9  C   UNL     1      47.038   6.137  13.516  0.00  0.00    +0.000 A 
ATOM     10  C   UNL     1      46.006   5.219  13.300  0.00  0.00    +0.000 A 
BRANCH   9  11
ATOM     11  O   UNL     1      48.221   5.840  14.144  0.00  0.00    +0.000 OA
BRANCH  11  12
ATOM     12  C   UNL     1      48.671   6.705  15.213  0.00  0.00    +0.000 C 
ATOM     13  C   UNL     1      50.108   7.243  15.156  0.00  0.00    +0.000 C 
ATOM     14  O   UNL     1      50.421   6.696  16.457  0.00  0.00    +0.000 OA
ATOM     15  C   UNL     1      49.159   5.990  16.481  0.00  0.00    +0.000 C 
ENDBRANCH  11  12
ENDBRANCH   9  11
ENDBRANCH   1   4
BRANCH   1  16
ATOM     16  C   UNL     1      43.187   4.705  10.970  0.00  0.00    +0.000 C 
BRANCH  16  21
ATOM     17  C   UNL     1      46.446   2.402   7.733  0.00  0.00    +0.000 A 
ATOM     18  C   UNL     1      45.623   1.886   8.728  0.00  0.00    +0.000 A 
ATOM     19  C   UNL     1      44.870   2.762   9.508  0.00  0.00    +0.000 A 
ATOM     20  C   UNL     1      44.938   4.135   9.279  0.00  0.00    +0.000 A 
ATOM     21  N   UNL     1      44.225   5.050  10.004  0.00  0.00    +0.000 N 
ATOM     22  N   UNL     1      45.743   4.643   8.329  0.00  0.00    +0.000 NA
ATOM     23  C   UNL     1      46.489   3.778   7.587  0.00  0.00    +0.000 A 
ATOM     24  H   UNL     1      44.318   6.007   9.676  0.00  0.00    +0.000 HD
BRANCH  17  26
ATOM     25  N   UNL     1      48.338   2.133   6.242  0.00  0.00    +0.000 N 
ATOM     26  C   UNL     1      47.263   1.547   6.854  0.00  0.00    +0.000 C 
ATOM     27  O   UNL     1      47.018   0.358   6.704  0.00  0.00    +0.000 OA
ATOM     28  H   UNL     1      48.954   1.517   5.727  0.00  0.00    +0.000 HD
ATOM     29  H   UNL     1      48.712   3.026   6.534  0.00  0.00    +0.000 HD
ENDBRANCH  17  26
ENDBRANCH  16  21
ENDBRANCH   1  16
TORSDOF 6
ENDMDL
MODEL 3
REMARK VINA RESULT:    -8.515      2.872      4.349
REMARK INTER + INTRA:         -12.471
REMARK INTER:                 -11.689
REMARK INTRA:                  -0.782
REMARK UNBOUND:                -0.969
REMARK  Name = 
REMARK  6 active torsions:
REMARK  status: ('A' for Active; 'I' for Inactive)
REMARK    1  A    between atoms: C_2  and  C_4
REMARK    2  A    between atoms: N_8  and  C_9
REMARK    3  A    between atoms: C_9  and  C_10
REMARK    4  A    between atoms: C_10  and  C_13
REMARK    5  A    between atoms: C_18  and  O_19
REMARK    6  A    between atoms: O_19  and  C_20
REMARK                            x       y       z     vdW  Elec       q    Type
REMARK                         _______ _______ _______ _____ _____    ______ ____
ROOT
ATOM      1  C   UNL     1      43.722   4.545  12.352  0.00  0.00    +0.000 C 
ATOM      2  F   UNL     1      42.710   4.714  13.253  0.00  0.00    +0.000 F 
ATOM      3  F   UNL     1      44.187   3.276  12.566  0.00  0.00    +0.000 F 
ENDROOT
BRANCH   1   4
ATOM      4  C   UNL     1      44.816   5.581  12.531  0.00  0.00    +0.000 A 
ATOM      5  C   UNL     1      46.160   5.188  12.619  0.00  0.00    +0.000 A 
ATOM      6  C   UNL     1      47.153   6.146  12.794  0.00  0.00    +0.000 A 
ATOM      7  F   UNL     1      48.431   5.758  12.881  0.00  0.00    +0.000 F 
ATOM      8  C   UNL     1      46.840   7.496  12.876  0.00  0.00    +0.000 A 
ATOM      9  C   UNL     1      45.510   7.901  12.778  0.00  0.00    +0.000 A 
ATOM     10  C   UNL     1      44.499   6.949  12.625  0.00  0.00    +0.000 A 
BRANCH   9  11
ATOM     11  O   UNL     1      45.296   9.254  12.865  0.00  0.00    +0.000 OA
BRANCH  11  12
ATOM     12  C   UNL     1      45.354  10.041  11.653  0.00  0.00    +0.000 C 
ATOM     13  C   UNL     1      44.934  11.516  11.723  0.00  0.00    +0.000 C 
ATOM     14  O   UNL     1      43.941  11.337  10.687  0.00  0.00    +0.000 OA
ATOM     15  C   UNL     1      44.143   9.905  10.718  0.00  0.00    +0.000 C 
ENDBRANCH  11  12
ENDBRANCH   9  11
ENDBRANCH   1   4
BRANCH   1  16
ATOM     16  C   UNL     1      43.135   4.619  10.921  0.00  0.00    +0.000 C 
BRANCH  16  21
ATOM     17  C   UNL     1      46.412   2.336   7.688  0.00  0.00    +0.000 A 
ATOM     18  C   UNL     1      45.660   1.829   8.742  0.00  0.00    +0.000 A 
ATOM     19  C   UNL     1      44.882   2.700   9.502  0.00  0.00    +0.000 A 
ATOM     20  C   UNL     1      44.856   4.060   9.196  0.00  0.00    +0.000 A 
ATOM     21  N   UNL     1      44.113   4.970   9.898  0.00  0.00    +0.000 N 
ATOM     22  N   UNL     1      45.593   4.561   8.189  0.00  0.00    +0.000 NA
ATOM     23  C   UNL     1      46.365   3.702   7.467  0.00  0.00    +0.000 A 
ATOM     24  H   UNL     1      44.135   5.910   9.515  0.00  0.00    +0.000 HD
BRANCH  17  26
ATOM     25  N   UNL     1      48.246   2.103   6.120  0.00  0.00    +0.000 N 
ATOM     26  C   UNL     1      47.249   1.484   6.825  0.00  0.00    +0.000 C 
ATOM     27  O   UNL     1      47.090   0.273   6.768  0.00  0.00    +0.000 OA
ATOM     28  H   UNL     1      48.881   1.498   5.614  0.00  0.00    +0.000 HD
ATOM     29  H   UNL     1      48.563   3.039   6.331  0.00  0.00    +0.000 HD
ENDBRANCH  17  26
ENDBRANCH  16  21
ENDBRANCH   1  16
TORSDOF 6
ENDMDL
MODEL 4
REMARK VINA RESULT:    -8.487      2.407      3.034
REMARK INTER + INTRA:         -12.433
REMARK INTER:                 -11.526
REMARK INTRA:                  -0.907
REMARK UNBOUND:                -0.969
REMARK  Name = 
REMARK  6 active torsions:
REMARK  status: ('A' for Active; 'I' for Inactive)
REMARK    1  A    between atoms: C_2  and  C_4
REMARK    2  A    between atoms: N_8  and  C_9
REMARK    3  A    between atoms: C_9  and  C_10
REMARK    4  A    between atoms: C_10  and  C_13
REMARK    5  A    between atoms: C_18  and  O_19
REMARK    6  A    between atoms: O_19  and  C_20
REMARK                            x       y       z     vdW  Elec       q    Type
REMARK                         _______ _______ _______ _____ _____    ______ ____
ROOT
ATOM      1  C   UNL     1      43.385   5.700  12.009  0.00  0.00    +0.000 C 
ATOM      2  F   UNL     1      43.019   6.975  11.683  0.00  0.00    +0.000 F 
ATOM      3  F   UNL     1      42.465   5.286  12.932  0.00  0.00    +0.000 F 
ENDROOT
BRANCH   1   4
ATOM      4  C   UNL     1      44.798   5.642  12.561  0.00  0.00    +0.000 A 
ATOM      5  C   UNL     1      45.331   4.431  13.024  0.00  0.00    +0.000 A 
ATOM      6  C   UNL     1      46.623   4.393  13.538  0.00  0.00    +0.000 A 
ATOM      7  F   UNL     1      47.119   3.232  13.981  0.00  0.00    +0.000 F 
ATOM      8  C   UNL     1      47.406   5.538  13.594  0.00  0.00    +0.000 A 
ATOM      9  C   UNL     1      46.893   6.746  13.126  0.00  0.00    +0.000 A 
ATOM     10  C   UNL     1      45.589   6.805  12.628  0.00  0.00    +0.000 A 
BRANCH   9  11
ATOM     11  O   UNL     1      47.739   7.824  13.217  0.00  0.00    +0.000 OA
BRANCH  11  12
ATOM     12  C   UNL     1      48.737   7.831  14.263  0.00  0.00    +0.000 C 
ATOM     13  C   UNL     1      48.415   8.567  15.570  0.00  0.00    +0.000 C 
ATOM     14  O   UNL     1      49.592   9.400  15.453  0.00  0.00    +0.000 OA
ATOM     15  C   UNL     1      49.836   8.894  14.121  0.00  0.00    +0.000 C 
ENDBRANCH  11  12
ENDBRANCH   9  11
ENDBRANCH   1   4
BRANCH   1  16
ATOM     16  C   UNL     1      43.258   4.806  10.752  0.00  0.00    +0.000 C 
BRANCH  16  21
ATOM     17  C   UNL     1      46.488   2.298   7.640  0.00  0.00    +0.000 A 
ATOM     18  C   UNL     1      45.713   1.856   8.707  0.00  0.00    +0.000 A 
ATOM     19  C   UNL     1      44.956   2.781   9.424  0.00  0.00    +0.000 A 
ATOM     20  C   UNL     1      44.974   4.127   9.065  0.00  0.00    +0.000 A 
ATOM     21  N   UNL     1      44.254   5.087   9.724  0.00  0.00    +0.000 N 
ATOM     22  N   UNL     1      45.733   4.565   8.045  0.00  0.00    +0.000 NA
ATOM     23  C   UNL     1      46.484   3.655   7.364  0.00  0.00    +0.000 A 
ATOM     24  H   UNL     1      44.307   6.010   9.304  0.00  0.00    +0.000 HD
BRANCH  17  26
ATOM     25  N   UNL     1      48.348   1.942   6.127  0.00  0.00    +0.000 N 
ATOM     26  C   UNL     1      47.305   1.387   6.819  0.00  0.00    +0.000 C 
ATOM     27  O   UNL     1      47.088   0.184   6.784  0.00  0.00    +0.000 OA
ATOM     28  H   UNL     1      48.966   1.296   5.652  0.00  0.00    +0.000 HD
ATOM     29  H   UNL     1      48.704   2.866   6.326  0.00  0.00    +0.000 HD
ENDBRANCH  17  26
ENDBRANCH  16  21
ENDBRANCH   1  16
TORSDOF 6
ENDMDL
MODEL 5
REMARK VINA RESULT:    -8.327      2.522      3.377
REMARK INTER + INTRA:         -12.217
REMARK INTER:                 -11.112
REMARK INTRA:                  -1.105
REMARK UNBOUND:                -0.969
REMARK  Name = 
REMARK  6 active torsions:
REMARK  status: ('A' for Active; 'I' for Inactive)
REMARK    1  A    between atoms: C_2  and  C_4
REMARK    2  A    between atoms: N_8  and  C_9
REMARK    3  A    between atoms: C_9  and  C_10
REMARK    4  A    between atoms: C_10  and  C_13
REMARK    5  A    between atoms: C_18  and  O_19
REMARK    6  A    between atoms: O_19  and  C_20
REMARK                            x       y       z     vdW  Elec       q    Type
REMARK                         _______ _______ _______ _____ _____    ______ ____
ROOT
ATOM      1  C   UNL     1      44.252   3.957  12.549  0.00  0.00    +0.000 C 
ATOM      2  F   UNL     1      43.432   4.017  13.639  0.00  0.00    +0.000 F 
ATOM      3  F   UNL     1      45.150   2.963  12.826  0.00  0.00    +0.000 F 
ENDROOT
BRANCH   1   4
ATOM      4  C   UNL     1      44.945   5.283  12.292  0.00  0.00    +0.000 A 
ATOM      5  C   UNL     1      44.229   6.370  11.771  0.00  0.00    +0.000 A 
ATOM      6  C   UNL     1      44.878   7.577  11.530  0.00  0.00    +0.000 A 
ATOM      7  F   UNL     1      44.184   8.606  11.027  0.00  0.00    +0.000 F 
ATOM      8  C   UNL     1      46.230   7.731  11.803  0.00  0.00    +0.000 A 
ATOM      9  C   UNL     1      46.951   6.662  12.332  0.00  0.00    +0.000 A 
ATOM     10  C   UNL     1      46.318   5.437  12.560  0.00  0.00    +0.000 A 
BRANCH   9  11
ATOM     11  O   UNL     1      48.279   6.907  12.576  0.00  0.00    +0.000 OA
BRANCH  11  12
ATOM     12  C   UNL     1      48.938   7.952  11.823  0.00  0.00    +0.000 C 
ATOM     13  C   UNL     1      50.393   7.728  11.389  0.00  0.00    +0.000 C 
ATOM     14  O   UNL     1      50.831   8.939  12.047  0.00  0.00    +0.000 OA
ATOM     15  C   UNL     1      49.530   9.096  12.659  0.00  0.00    +0.000 C 
ENDBRANCH  11  12
ENDBRANCH   9  11
ENDBRANCH   1   4
BRANCH   1  16
ATOM     16  C   UNL     1      43.416   3.535  11.316  0.00  0.00    +0.000 C 
BRANCH  16  21
ATOM     17  C   UNL     1      46.507   2.749   7.288  0.00  0.00    +0.000 A 
ATOM     18  C   UNL     1      45.912   3.907   7.775  0.00  0.00    +0.000 A 
ATOM     19  C   UNL     1      45.059   3.821   8.874  0.00  0.00    +0.000 A 
ATOM     20  C   UNL     1      44.819   2.588   9.477  0.00  0.00    +0.000 A 
ATOM     21  N   UNL     1      43.996   2.432  10.558  0.00  0.00    +0.000 N 
ATOM     22  N   UNL     1      45.378   1.461   9.001  0.00  0.00    +0.000 NA
ATOM     23  C   UNL     1      46.194   1.554   7.915  0.00  0.00    +0.000 A 
ATOM     24  H   UNL     1      43.975   1.489  10.935  0.00  0.00    +0.000 HD
BRANCH  17  26
ATOM     25  N   UNL     1      48.750   2.488   6.406  0.00  0.00    +0.000 N 
ATOM     26  C   UNL     1      47.434   2.751   6.141  0.00  0.00    +0.000 C 
ATOM     27  O   UNL     1      47.042   2.941   4.998  0.00  0.00    +0.000 OA
ATOM     28  H   UNL     1      49.359   2.387   5.603  0.00  0.00    +0.000 HD
ATOM     29  H   UNL     1      49.062   2.086   7.279  0.00  0.00    +0.000 HD
ENDBRANCH  17  26
ENDBRANCH  16  21
ENDBRANCH   1  16
TORSDOF 6
ENDMDL
MODEL 6
REMARK VINA RESULT:    -8.151      2.325      3.578
REMARK INTER + INTRA:         -11.979
REMARK INTER:                 -10.998
REMARK INTRA:                  -0.982
REMARK UNBOUND:                -0.969
REMARK  Name = 
REMARK  6 active torsions:
REMARK  status: ('A' for Active; 'I' for Inactive)
REMARK    1  A    between atoms: C_2  and  C_4
REMARK    2  A    between atoms: N_8  and  C_9
REMARK    3  A    between atoms: C_9  and  C_10
REMARK    4  A    between atoms: C_10  and  C_13
REMARK    5  A    between atoms: C_18  and  O_19
REMARK    6  A    between atoms: O_19  and  C_20
REMARK                            x       y       z     vdW  Elec       q    Type
REMARK                         _______ _______ _______ _____ _____    ______ ____
ROOT
ATOM      1  C   UNL     1      43.607   4.363  12.644  0.00  0.00    +0.000 C 
ATOM      2  F   UNL     1      42.646   5.161  13.196  0.00  0.00    +0.000 F 
ATOM      3  F   UNL     1      43.402   3.124  13.184  0.00  0.00    +0.000 F 
ENDROOT
BRANCH   1   4
ATOM      4  C   UNL     1      45.005   4.878  12.940  0.00  0.00    +0.000 A 
ATOM      5  C   UNL     1      45.722   4.395  14.044  0.00  0.00    +0.000 A 
ATOM      6  C   UNL     1      46.997   4.883  14.310  0.00  0.00    +0.000 A 
ATOM      7  F   UNL     1      47.669   4.418  15.371  0.00  0.00    +0.000 F 
ATOM      8  C   UNL     1      47.583   5.840  13.493  0.00  0.00    +0.000 A 
ATOM      9  C   UNL     1      46.887   6.319  12.386  0.00  0.00    +0.000 A 
ATOM     10  C   UNL     1      45.596   5.856  12.118  0.00  0.00    +0.000 A 
BRANCH   9  11
ATOM     11  O   UNL     1      47.546   7.259  11.633  0.00  0.00    +0.000 OA
BRANCH  11  12
ATOM     12  C   UNL     1      48.059   8.438  12.295  0.00  0.00    +0.000 C 
ATOM     13  C   UNL     1      47.166   9.685  12.355  0.00  0.00    +0.000 C 
ATOM     14  O   UNL     1      48.175  10.502  11.717  0.00  0.00    +0.000 OA
ATOM     15  C   UNL     1      48.976   9.329  11.445  0.00  0.00    +0.000 C 
ENDBRANCH  11  12
ENDBRANCH   9  11
ENDBRANCH   1   4
BRANCH   1  16
ATOM     16  C   UNL     1      43.373   4.280  11.117  0.00  0.00    +0.000 C 
BRANCH  16  21
ATOM     17  C   UNL     1      46.487   2.809   7.303  0.00  0.00    +0.000 A 
ATOM     18  C   UNL     1      45.973   4.057   7.638  0.00  0.00    +0.000 A 
ATOM     19  C   UNL     1      45.090   4.161   8.712  0.00  0.00    +0.000 A 
ATOM     20  C   UNL     1      44.740   3.027   9.440  0.00  0.00    +0.000 A 
ATOM     21  N   UNL     1      43.882   3.057  10.506  0.00  0.00    +0.000 N 
ATOM     22  N   UNL     1      45.220   1.814   9.113  0.00  0.00    +0.000 NA
ATOM     23  C   UNL     1      46.066   1.721   8.050  0.00  0.00    +0.000 A 
ATOM     24  H   UNL     1      43.779   2.167  10.985  0.00  0.00    +0.000 HD
BRANCH  17  26
ATOM     25  N   UNL     1      48.671   2.115   6.514  0.00  0.00    +0.000 N 
ATOM     26  C   UNL     1      47.437   2.611   6.194  0.00  0.00    +0.000 C 
ATOM     27  O   UNL     1      47.128   2.842   5.033  0.00  0.00    +0.000 OA
ATOM     28  H   UNL     1      49.278   1.883   5.738  0.00  0.00    +0.000 HD
ATOM     29  H   UNL     1      48.871   1.684   7.406  0.00  0.00    +0.000 HD
ENDBRANCH  17  26
ENDBRANCH  16  21
ENDBRANCH   1  16
TORSDOF 6
ENDMDL
MODEL 7
REMARK VINA RESULT:    -7.715      2.767      7.609
REMARK INTER + INTRA:         -11.390
REMARK INTER:                 -10.693
REMARK INTRA:                  -0.697
REMARK UNBOUND:                -0.969
REMARK  Name = 
REMARK  6 active torsions:
REMARK  status: ('A' for Active; 'I' for Inactive)
REMARK    1  A    between atoms: C_2  and  C_4
REMARK    2  A    between atoms: N_8  and  C_9
REMARK    3  A    between atoms: C_9  and  C_10
REMARK    4  A    between atoms: C_10  and  C_13
REMARK    5  A    between atoms: C_18  and  O_19
REMARK    6  A    between atoms: O_19  and  C_20
REMARK                            x       y       z     vdW  Elec       q    Type
REMARK                         _______ _______ _______ _____ _____    ______ ____
ROOT
ATOM      1  C   UNL     1      45.427   6.547  11.645  0.00  0.00    +0.000 C 
ATOM      2  F   UNL     1      44.890   6.673  12.894  0.00  0.00    +0.000 F 
ATOM      3  F   UNL     1      45.010   7.655  10.960  0.00  0.00    +0.000 F 
ENDROOT
BRANCH   1   4
ATOM      4  C   UNL     1      44.980   5.266  10.965  0.00  0.00    +0.000 A 
ATOM      5  C   UNL     1      44.178   4.341  11.649  0.00  0.00    +0.000 A 
ATOM      6  C   UNL     1      43.784   3.165  11.019  0.00  0.00    +0.000 A 
ATOM      7  F   UNL     1      43.022   2.288  11.684  0.00  0.00    +0.000 F 
ATOM      8  C   UNL     1      44.164   2.890   9.712  0.00  0.00    +0.000 A 
ATOM      9  C   UNL     1      44.950   3.806   9.017  0.00  0.00    +0.000 A 
ATOM     10  C   UNL     1      45.373   4.982   9.644  0.00  0.00    +0.000 A 
BRANCH   9  11
ATOM     11  O   UNL     1      45.273   3.453   7.730  0.00  0.00    +0.000 OA
BRANCH  11  12
ATOM     12  C   UNL     1      46.608   2.965   7.463  0.00  0.00    +0.000 C 
ATOM     13  C   UNL     1      47.007   2.701   6.005  0.00  0.00    +0.000 C 
ATOM     14  O   UNL     1      47.355   1.327   6.293  0.00  0.00    +0.000 OA
ATOM     15  C   UNL     1      46.802   1.450   7.624  0.00  0.00    +0.000 C 
ENDBRANCH  11  12
ENDBRANCH   9  11
ENDBRANCH   1   4
BRANCH   1  16
ATOM     16  C   UNL     1      46.970   6.590  11.758  0.00  0.00    +0.000 C 
BRANCH  16  21
ATOM     17  C   UNL     1      47.829   3.997  16.111  0.00  0.00    +0.000 A 
ATOM     18  C   UNL     1      47.182   3.630  14.937  0.00  0.00    +0.000 A 
ATOM     19  C   UNL     1      47.043   4.568  13.916  0.00  0.00    +0.000 A 
ATOM     20  C   UNL     1      47.557   5.853  14.075  0.00  0.00    +0.000 A 
ATOM     21  N   UNL     1      47.458   6.823  13.114  0.00  0.00    +0.000 N 
ATOM     22  N   UNL     1      48.171   6.222  15.213  0.00  0.00    +0.000 NA
ATOM     23  C   UNL     1      48.283   5.302  16.211  0.00  0.00    +0.000 A 
ATOM     24  H   UNL     1      47.944   7.685  13.339  0.00  0.00    +0.000 HD
BRANCH  17  26
ATOM     25  N   UNL     1      46.913   2.555  17.830  0.00  0.00    +0.000 N 
ATOM     26  C   UNL     1      48.034   3.064  17.233  0.00  0.00    +0.000 C 
ATOM     27  O   UNL     1      49.153   2.727  17.593  0.00  0.00    +0.000 OA
ATOM     28  H   UNL     1      47.061   1.836  18.527  0.00  0.00    +0.000 HD
ATOM     29  H   UNL     1      45.996   2.611  17.408  0.00  0.00    +0.000 HD
ENDBRANCH  17  26
ENDBRANCH  16  21
ENDBRANCH   1  16
TORSDOF 6
ENDMDL
MODEL 8
REMARK VINA RESULT:    -7.648      2.810      8.054
REMARK INTER + INTRA:         -11.299
REMARK INTER:                 -10.887
REMARK INTRA:                  -0.412
REMARK UNBOUND:                -0.969
REMARK  Name = 
REMARK  6 active torsions:
REMARK  status: ('A' for Active; 'I' for Inactive)
REMARK    1  A    between atoms: C_2  and  C_4
REMARK    2  A    between atoms: N_8  and  C_9
REMARK    3  A    between atoms: C_9  and  C_10
REMARK    4  A    between atoms: C_10  and  C_13
REMARK    5  A    between atoms: C_18  and  O_19
REMARK    6  A    between atoms: O_19  and  C_20
REMARK                            x       y       z     vdW  Elec       q    Type
REMARK                         _______ _______ _______ _____ _____    ______ ____
ROOT
ATOM      1  C   UNL     1      45.232   6.194  11.727  0.00  0.00    +0.000 C 
ATOM      2  F   UNL     1      44.194   6.233  12.612  0.00  0.00    +0.000 F 
ATOM      3  F   UNL     1      45.224   7.414  11.108  0.00  0.00    +0.000 F 
ENDROOT
BRANCH   1   4
ATOM      4  C   UNL     1      45.081   5.059  10.730  0.00  0.00    +0.000 A 
ATOM      5  C   UNL     1      44.333   3.920  11.059  0.00  0.00    +0.000 A 
ATOM      6  C   UNL     1      44.211   2.881  10.142  0.00  0.00    +0.000 A 
ATOM      7  F   UNL     1      43.498   1.796  10.469  0.00  0.00    +0.000 F 
ATOM      8  C   UNL     1      44.814   2.954   8.893  0.00  0.00    +0.000 A 
ATOM      9  C   UNL     1      45.550   4.085   8.549  0.00  0.00    +0.000 A 
ATOM     10  C   UNL     1      45.701   5.127   9.468  0.00  0.00    +0.000 A 
BRANCH   9  11
ATOM     11  O   UNL     1      46.105   4.071   7.294  0.00  0.00    +0.000 OA
BRANCH  11  12
ATOM     12  C   UNL     1      46.364   2.794   6.667  0.00  0.00    +0.000 C 
ATOM     13  C   UNL     1      47.561   1.970   7.162  0.00  0.00    +0.000 C 
ATOM     14  O   UNL     1      48.133   1.908   5.835  0.00  0.00    +0.000 OA
ATOM     15  C   UNL     1      47.149   2.850   5.349  0.00  0.00    +0.000 C 
ENDBRANCH  11  12
ENDBRANCH   9  11
ENDBRANCH   1   4
BRANCH   1  16
ATOM     16  C   UNL     1      46.557   6.051  12.515  0.00  0.00    +0.000 C 
BRANCH  16  21
ATOM     17  C   UNL     1      48.320   4.470  17.076  0.00  0.00    +0.000 A 
ATOM     18  C   UNL     1      48.487   5.671  16.393  0.00  0.00    +0.000 A 
ATOM     19  C   UNL     1      47.932   5.811  15.122  0.00  0.00    +0.000 A 
ATOM     20  C   UNL     1      47.213   4.762  14.554  0.00  0.00    +0.000 A 
ATOM     21  N   UNL     1      46.641   4.833  13.313  0.00  0.00    +0.000 N 
ATOM     22  N   UNL     1      47.061   3.592  15.200  0.00  0.00    +0.000 NA
ATOM     23  C   UNL     1      47.624   3.460  16.433  0.00  0.00    +0.000 A 
ATOM     24  H   UNL     1      46.086   4.020  13.062  0.00  0.00    +0.000 HD
BRANCH  17  26
ATOM     25  N   UNL     1      48.391   3.150  19.107  0.00  0.00    +0.000 N 
ATOM     26  C   UNL     1      48.859   4.242  18.428  0.00  0.00    +0.000 C 
ATOM     27  O   UNL     1      49.714   4.971  18.911  0.00  0.00    +0.000 OA
ATOM     28  H   UNL     1      48.843   2.941  19.988  0.00  0.00    +0.000 HD
ATOM     29  H   UNL     1      47.887   2.400  18.654  0.00  0.00    +0.000 HD
ENDBRANCH  17  26
ENDBRANCH  16  21
ENDBRANCH   1  16
TORSDOF 6
ENDMDL
MODEL 9
REMARK VINA RESULT:    -7.031      3.999      7.562
REMARK INTER + INTRA:         -10.467
REMARK INTER:                  -9.810
REMARK INTRA:                  -0.657
REMARK UNBOUND:                -0.969
REMARK  Name = 
REMARK  6 active torsions:
REMARK  status: ('A' for Active; 'I' for Inactive)
REMARK    1  A    between atoms: C_2  and  C_4
REMARK    2  A    between atoms: N_8  and  C_9
REMARK    3  A    between atoms: C_9  and  C_10
REMARK    4  A    between atoms: C_10  and  C_13
REMARK    5  A    between atoms: C_18  and  O_19
REMARK    6  A    between atoms: O_19  and  C_20
REMARK                            x       y       z     vdW  Elec       q    Type
REMARK                         _______ _______ _______ _____ _____    ______ ____
ROOT
ATOM      1  C   UNL     1      44.553   6.325  11.305  0.00  0.00    +0.000 C 
ATOM      2  F   UNL     1      43.242   6.697  11.387  0.00  0.00    +0.000 F 
ATOM      3  F   UNL     1      45.205   7.411  10.790  0.00  0.00    +0.000 F 
ENDROOT
BRANCH   1   4
ATOM      4  C   UNL     1      44.736   5.096  10.432  0.00  0.00    +0.000 A 
ATOM      5  C   UNL     1      44.110   3.887  10.767  0.00  0.00    +0.000 A 
ATOM      6  C   UNL     1      44.294   2.765   9.965  0.00  0.00    +0.000 A 
ATOM      7  F   UNL     1      43.696   1.615  10.298  0.00  0.00    +0.000 F 
ATOM      8  C   UNL     1      45.086   2.820   8.826  0.00  0.00    +0.000 A 
ATOM      9  C   UNL     1      45.704   4.019   8.475  0.00  0.00    +0.000 A 
ATOM     10  C   UNL     1      45.546   5.149   9.282  0.00  0.00    +0.000 A 
BRANCH   9  11
ATOM     11  O   UNL     1      46.462   3.982   7.331  0.00  0.00    +0.000 OA
BRANCH  11  12
ATOM     12  C   UNL     1      46.633   2.713   6.657  0.00  0.00    +0.000 C 
ATOM     13  C   UNL     1      47.888   1.887   6.972  0.00  0.00    +0.000 C 
ATOM     14  O   UNL     1      48.273   1.844   5.579  0.00  0.00    +0.000 OA
ATOM     15  C   UNL     1      47.230   2.790   5.245  0.00  0.00    +0.000 C 
ENDBRANCH  11  12
ENDBRANCH   9  11
ENDBRANCH   1   4
BRANCH   1  16
ATOM     16  C   UNL     1      45.088   6.059  12.733  0.00  0.00    +0.000 C 
BRANCH  16  21
ATOM     17  C   UNL     1      49.751   8.201  13.019  0.00  0.00    +0.000 A 
ATOM     18  C   UNL     1      49.335   6.973  12.517  0.00  0.00    +0.000 A 
ATOM     19  C   UNL     1      47.991   6.618  12.619  0.00  0.00    +0.000 A 
ATOM     20  C   UNL     1      47.080   7.493  13.209  0.00  0.00    +0.000 A 
ATOM     21  N   UNL     1      45.748   7.210  13.340  0.00  0.00    +0.000 N 
ATOM     22  N   UNL     1      47.477   8.676  13.712  0.00  0.00    +0.000 NA
ATOM     23  C   UNL     1      48.796   9.003  13.624  0.00  0.00    +0.000 A 
ATOM     24  H   UNL     1      45.195   7.971  13.722  0.00  0.00    +0.000 HD
BRANCH  17  26
ATOM     25  N   UNL     1      52.053   8.048  13.761  0.00  0.00    +0.000 N 
ATOM     26  C   UNL     1      51.148   8.662  12.939  0.00  0.00    +0.000 C 
ATOM     27  O   UNL     1      51.495   9.528  12.148  0.00  0.00    +0.000 OA
ATOM     28  H   UNL     1      53.025   8.295  13.625  0.00  0.00    +0.000 HD
ATOM     29  H   UNL     1      51.857   7.177  14.234  0.00  0.00    +0.000 HD
ENDBRANCH  17  26
ENDBRANCH  16  21
ENDBRANCH   1  16
TORSDOF 6
ENDMDL
