MODEL 1
REMARK VINA RESULT:    -9.435      0.000      0.000
REMARK INTER + INTRA:         -12.659
REMARK INTER:                 -11.642
REMARK INTRA:                  -1.017
REMARK UNBOUND:                -1.017
REMARK  Name = 
REMARK  4 active torsions:
REMARK  status: ('A' for Active; 'I' for Inactive)
REMARK    1  A    between atoms: C_2  and  C_4
REMARK    2  A    between atoms: N_8  and  C_9
REMARK    3  A    between atoms: C_9  and  C_10
REMARK    4  A    between atoms: C_15  and  C_16
REMARK                            x       y       z     vdW  Elec       q    Type
REMARK                         _______ _______ _______ _____ _____    ______ ____
ROOT
ATOM      1  C   UNL     1      43.397   4.936  10.973  0.00  0.00    +0.000 C 
ENDROOT
BRANCH   1   6
ATOM      2  C   UNL     1      46.378   2.289   7.720  0.00  0.00    +0.000 A 
ATOM      3  C   UNL     1      45.601   1.810   8.772  0.00  0.00    +0.000 A 
ATOM      4  C   UNL     1      44.745   2.687   9.439  0.00  0.00    +0.000 A 
ATOM      5  C   UNL     1      44.683   4.022   9.054  0.00  0.00    +0.000 A 
ATOM      6  N   UNL     1      43.793   4.928   9.580  0.00  0.00    +0.000 N 
ATOM      7  N   UNL     1      45.446   4.500   8.049  0.00  0.00    +0.000 NA
ATOM      8  C   UNL     1      46.280   3.636   7.413  0.00  0.00    +0.000 A 
ATOM      9  H   UNL     1      43.974   5.836   9.164  0.00  0.00    +0.000 HD
BRANCH   2  11
ATOM     10  N   UNL     1      48.381   2.022   6.372  0.00  0.00    +0.000 N 
ATOM     11  C   UNL     1      47.282   1.429   6.931  0.00  0.00    +0.000 C 
ATOM     12  O   UNL     1      47.082   0.227   6.816  0.00  0.00    +0.000 OA
ATOM     13  H   UNL     1      49.047   1.401   5.928  0.00  0.00    +0.000 HD
ATOM     14  H   UNL     1      48.713   2.931   6.655  0.00  0.00    +0.000 HD
ENDBRANCH   2  11
ENDBRANCH   1   6
BRANCH   1  15
ATOM     15  C   UNL     1      44.519   5.218  11.952  0.00  0.00    +0.000 A 
ATOM     16  C   UNL     1      44.890   4.332  12.969  0.00  0.00    +0.000 A 
ATOM     17  C   UNL     1      45.991   4.613  13.776  0.00  0.00    +0.000 A 
ATOM     18  C   UNL     1      46.740   5.772  13.569  0.00  0.00    +0.000 A 
ATOM     19  F   UNL     1      47.783   5.984  14.389  0.00  0.00    +0.000 F 
ATOM     20  C   UNL     1      46.435   6.681  12.545  0.00  0.00    +0.000 A 
ATOM     21  C   UNL     1      45.309   6.371  11.751  0.00  0.00    +0.000 A 
BRANCH  20  22
ATOM     22  C   UNL     1      47.257   7.884  12.254  0.00  0.00    +0.000 A 
ATOM     23  C   UNL     1      48.586   7.781  11.803  0.00  0.00    +0.000 A 
ATOM     24  C   UNL     1      49.337   8.913  11.463  0.00  0.00    +0.000 A 
ATOM     25  C   UNL     1      48.772  10.180  11.558  0.00  0.00    +0.000 A 
ATOM     26  C   UNL     1      47.466  10.317  12.013  0.00  0.00    +0.000 A 
ATOM     27  C   UNL     1      46.725   9.184  12.368  0.00  0.00    +0.000 A 
ENDBRANCH  20  22
ENDBRANCH   1  15
TORSDOF 4
ENDMDL
MODEL 2
REMARK VINA RESULT:    -8.134      2.048      3.938
REMARK INTER + INTRA:         -11.053
REMARK INTER:                 -10.157
REMARK INTRA:                  -0.896
REMARK UNBOUND:                -1.017
REMARK  Name = 
REMARK  4 active torsions:
REMARK  status: ('A' for Active; 'I' for Inactive)
REMARK    1  A    between atoms: C_2  and  C_4
REMARK    2  A    between atoms: N_8  and  C_9
REMARK    3  A    between atoms: C_9  and  C_10
REMARK    4  A    between atoms: C_15  and  C_16
REMARK                            x       y       z     vdW  Elec       q    Type
REMARK                         _______ _______ _______ _____ _____    ______ ____
ROOT
ATOM      1  C   UNL     1      44.430   4.999  11.563  0.00  0.00    +0.000 C 
ENDROOT
BRANCH   1   6
ATOM      2  C   UNL     1      46.506   2.597   7.514  0.00  0.00    +0.000 A 
ATOM      3  C   UNL     1      45.952   2.041   8.664  0.00  0.00    +0.000 A 
ATOM      4  C   UNL     1      45.304   2.872   9.578  0.00  0.00    +0.000 A 
ATOM      5  C   UNL     1      45.226   4.239   9.335  0.00  0.00    +0.000 A 
ATOM      6  N   UNL     1      44.515   5.115  10.122  0.00  0.00    +0.000 N 
ATOM      7  N   UNL     1      45.776   4.791   8.234  0.00  0.00    +0.000 NA
ATOM      8  C   UNL     1      46.411   3.970   7.357  0.00  0.00    +0.000 A 
ATOM      9  H   UNL     1      44.647   6.054   9.759  0.00  0.00    +0.000 HD
BRANCH   2  11
ATOM     10  N   UNL     1      47.915   2.466   5.539  0.00  0.00    +0.000 N 
ATOM     11  C   UNL     1      47.176   1.793   6.473  0.00  0.00    +0.000 C 
ATOM     12  O   UNL     1      47.109   0.571   6.468  0.00  0.00    +0.000 OA
ATOM     13  H   UNL     1      48.455   1.896   4.900  0.00  0.00    +0.000 HD
ATOM     14  H   UNL     1      48.202   3.426   5.660  0.00  0.00    +0.000 HD
ENDBRANCH   2  11
ENDBRANCH   1   6
BRANCH   1  15
ATOM     15  C   UNL     1      45.669   5.446  12.313  0.00  0.00    +0.000 A 
ATOM     16  C   UNL     1      46.404   6.584  11.968  0.00  0.00    +0.000 A 
ATOM     17  C   UNL     1      47.481   6.989  12.757  0.00  0.00    +0.000 A 
ATOM     18  C   UNL     1      47.824   6.271  13.903  0.00  0.00    +0.000 A 
ATOM     19  F   UNL     1      48.877   6.712  14.611  0.00  0.00    +0.000 F 
ATOM     20  C   UNL     1      47.104   5.140  14.315  0.00  0.00    +0.000 A 
ATOM     21  C   UNL     1      46.025   4.752  13.490  0.00  0.00    +0.000 A 
BRANCH  20  22
ATOM     22  C   UNL     1      47.401   4.400  15.569  0.00  0.00    +0.000 A 
ATOM     23  C   UNL     1      47.928   3.096  15.553  0.00  0.00    +0.000 A 
ATOM     24  C   UNL     1      48.270   2.426  16.735  0.00  0.00    +0.000 A 
ATOM     25  C   UNL     1      48.101   3.051  17.965  0.00  0.00    +0.000 A 
ATOM     26  C   UNL     1      47.570   4.335  18.016  0.00  0.00    +0.000 A 
ATOM     27  C   UNL     1      47.213   4.993  16.834  0.00  0.00    +0.000 A 
ENDBRANCH  20  22
ENDBRANCH   1  15
TORSDOF 4
ENDMDL
MODEL 3
REMARK VINA RESULT:    -7.763      3.893      7.301
REMARK INTER + INTRA:         -10.596
REMARK INTER:                 -10.146
REMARK INTRA:                  -0.450
REMARK UNBOUND:                -1.017
REMARK  Name = 
REMARK  4 active torsions:
REMARK  status: ('A' for Active; 'I' for Inactive)
REMARK    1  A    between atoms: C_2  and  C_4
REMARK    2  A    between atoms: N_8  and  C_9
REMARK    3  A    between atoms: C_9  and  C_10
REMARK    4  A    between atoms: C_15  and  C_16
REMARK                            x       y       z     vdW  Elec       q    Type
REMARK                         _______ _______ _______ _____ _____    ______ ____
ROOT
ATOM      1  C   UNL     1      45.142   6.656  11.243  0.00  0.00    +0.000 C 
ENDROOT
BRANCH   1   6
ATOM      2  C   UNL     1      47.962   5.620  15.420  0.00  0.00    +0.000 A 
ATOM      3  C   UNL     1      47.012   4.818  14.793  0.00  0.00    +0.000 A 
ATOM      4  C   UNL     1      46.468   5.233  13.576  0.00  0.00    +0.000 A 
ATOM      5  C   UNL     1      46.874   6.438  13.012  0.00  0.00    +0.000 A 
ATOM      6  N   UNL     1      46.474   6.871  11.770  0.00  0.00    +0.000 N 
ATOM      7  N   UNL     1      47.779   7.231  13.621  0.00  0.00    +0.000 NA
ATOM      8  C   UNL     1      48.294   6.817  14.809  0.00  0.00    +0.000 A 
ATOM      9  H   UNL     1      46.874   7.790  11.605  0.00  0.00    +0.000 HD
BRANCH   2  11
ATOM     10  N   UNL     1      47.978   5.575  17.849  0.00  0.00    +0.000 N 
ATOM     11  C   UNL     1      48.621   5.245  16.687  0.00  0.00    +0.000 C 
ATOM     12  O   UNL     1      49.677   4.627  16.700  0.00  0.00    +0.000 OA
ATOM     13  H   UNL     1      48.385   5.216  18.704  0.00  0.00    +0.000 HD
ATOM     14  H   UNL     1      47.006   5.843  17.876  0.00  0.00    +0.000 HD
ENDBRANCH   2  11
ENDBRANCH   1   6
BRANCH   1  15
ATOM     15  C   UNL     1      44.831   5.222  10.863  0.00  0.00    +0.000 A 
ATOM     16  C   UNL     1      43.815   4.474  11.464  0.00  0.00    +0.000 A 
ATOM     17  C   UNL     1      43.523   3.191  11.003  0.00  0.00    +0.000 A 
ATOM     18  C   UNL     1      44.232   2.649   9.930  0.00  0.00    +0.000 A 
ATOM     19  F   UNL     1      43.904   1.405   9.543  0.00  0.00    +0.000 F 
ATOM     20  C   UNL     1      45.241   3.365   9.268  0.00  0.00    +0.000 A 
ATOM     21  C   UNL     1      45.517   4.658   9.766  0.00  0.00    +0.000 A 
BRANCH  20  22
ATOM     22  C   UNL     1      45.961   2.843   8.078  0.00  0.00    +0.000 A 
ATOM     23  C   UNL     1      46.225   3.653   6.958  0.00  0.00    +0.000 A 
ATOM     24  C   UNL     1      46.963   3.180   5.866  0.00  0.00    +0.000 A 
ATOM     25  C   UNL     1      47.465   1.883   5.871  0.00  0.00    +0.000 A 
ATOM     26  C   UNL     1      47.209   1.053   6.957  0.00  0.00    +0.000 A 
ATOM     27  C   UNL     1      46.457   1.524   8.038  0.00  0.00    +0.000 A 
ENDBRANCH  20  22
ENDBRANCH   1  15
TORSDOF 4
ENDMDL
MODEL 4
REMARK VINA RESULT:    -7.723      1.914      2.565
REMARK INTER + INTRA:         -10.546
REMARK INTER:                 -10.197
REMARK INTRA:                  -0.350
REMARK UNBOUND:                -1.017
REMARK  Name = 
REMARK  4 active torsions:
REMARK  status: ('A' for Active; 'I' for Inactive)
REMARK    1  A    between atoms: C_2  and  C_4
REMARK    2  A    between atoms: N_8  and  C_9
REMARK    3  A    between atoms: C_9  and  C_10
REMARK    4  A    between atoms: C_15  and  C_16
REMARK                            x       y       z     vdW  Elec       q    Type
REMARK                         _______ _______ _______ _____ _____    ______ ____
ROOT
ATOM      1  C   UNL     1      43.535   3.457  11.089  0.00  0.00    +0.000 C 
ENDROOT
BRANCH   1   6
ATOM      2  C   UNL     1      46.679   2.530   7.123  0.00  0.00    +0.000 A 
ATOM      3  C   UNL     1      46.211   3.755   7.593  0.00  0.00    +0.000 A 
ATOM      4  C   UNL     1      45.483   3.794   8.782  0.00  0.00    +0.000 A 
ATOM      5  C   UNL     1      45.229   2.616   9.477  0.00  0.00    +0.000 A 
ATOM      6  N   UNL     1      44.616   2.572  10.707  0.00  0.00    +0.000 N 
ATOM      7  N   UNL     1      45.661   1.422   9.020  0.00  0.00    +0.000 NA
ATOM      8  C   UNL     1      46.362   1.399   7.856  0.00  0.00    +0.000 A 
ATOM      9  H   UNL     1      44.513   1.600  10.981  0.00  0.00    +0.000 HD
BRANCH   2  11
ATOM     10  N   UNL     1      47.315   3.341   4.923  0.00  0.00    +0.000 N 
ATOM     11  C   UNL     1      47.491   2.396   5.897  0.00  0.00    +0.000 C 
ATOM     12  O   UNL     1      48.317   1.502   5.772  0.00  0.00    +0.000 OA
ATOM     13  H   UNL     1      47.954   3.299   4.138  0.00  0.00    +0.000 HD
ATOM     14  H   UNL     1      46.847   4.218   5.093  0.00  0.00    +0.000 HD
ENDBRANCH   2  11
ENDBRANCH   1   6
BRANCH   1  15
ATOM     15  C   UNL     1      43.924   4.915  11.228  0.00  0.00    +0.000 A 
ATOM     16  C   UNL     1      43.023   5.969  11.051  0.00  0.00    +0.000 A 
ATOM     17  C   UNL     1      43.426   7.284  11.284  0.00  0.00    +0.000 A 
ATOM     18  C   UNL     1      44.726   7.557  11.709  0.00  0.00    +0.000 A 
ATOM     19  F   UNL     1      45.049   8.846  11.907  0.00  0.00    +0.000 F 
ATOM     20  C   UNL     1      45.665   6.539  11.933  0.00  0.00    +0.000 A 
ATOM     21  C   UNL     1      45.226   5.220  11.680  0.00  0.00    +0.000 A 
BRANCH  20  22
ATOM     22  C   UNL     1      47.032   6.793  12.456  0.00  0.00    +0.000 A 
ATOM     23  C   UNL     1      48.016   7.431  11.679  0.00  0.00    +0.000 A 
ATOM     24  C   UNL     1      49.282   7.732  12.197  0.00  0.00    +0.000 A 
ATOM     25  C   UNL     1      49.593   7.409  13.513  0.00  0.00    +0.000 A 
ATOM     26  C   UNL     1      48.647   6.767  14.304  0.00  0.00    +0.000 A 
ATOM     27  C   UNL     1      47.389   6.453  13.777  0.00  0.00    +0.000 A 
ENDBRANCH  20  22
ENDBRANCH   1  15
TORSDOF 4
ENDMDL
MODEL 5
REMARK VINA RESULT:    -7.598      3.831      7.145
REMARK INTER + INTRA:         -10.392
REMARK INTER:                  -9.735
REMARK INTRA:                  -0.657
REMARK UNBOUND:                -1.017
REMARK  Name = 
REMARK  4 active torsions:
REMARK  status: ('A' for Active; 'I' for Inactive)
REMARK    1  A    between atoms: C_2  and  C_4
REMARK    2  A    between atoms: N_8  and  C_9
REMARK    3  A    between atoms: C_9  and  C_10
REMARK    4  A    between atoms: C_15  and  C_16
REMARK                            x       y       z     vdW  Elec       q    Type
REMARK                         _______ _______ _______ _____ _____    ______ ____
ROOT
ATOM      1  C   UNL     1      44.790   6.678  11.477  0.00  0.00    +0.000 C 
ENDROOT
BRANCH   1   6
ATOM      2  C   UNL     1      49.564   7.814  13.024  0.00  0.00    +0.000 A 
ATOM      3  C   UNL     1      48.872   8.297  11.916  0.00  0.00    +0.000 A 
ATOM      4  C   UNL     1      47.524   7.973  11.763  0.00  0.00    +0.000 A 
ATOM      5  C   UNL     1      46.893   7.170  12.707  0.00  0.00    +0.000 A 
ATOM      6  N   UNL     1      45.546   6.890  12.694  0.00  0.00    +0.000 N 
ATOM      7  N   UNL     1      47.559   6.681  13.773  0.00  0.00    +0.000 NA
ATOM      8  C   UNL     1      48.874   6.999  13.906  0.00  0.00    +0.000 A 
ATOM      9  H   UNL     1      45.342   6.257  13.460  0.00  0.00    +0.000 HD
BRANCH   2  11
ATOM     10  N   UNL     1      51.513   7.688  14.469  0.00  0.00    +0.000 N 
ATOM     11  C   UNL     1      50.980   8.137  13.292  0.00  0.00    +0.000 C 
ATOM     12  O   UNL     1      51.662   8.743  12.477  0.00  0.00    +0.000 OA
ATOM     13  H   UNL     1      52.510   7.821  14.589  0.00  0.00    +0.000 HD
ATOM     14  H   UNL     1      51.070   6.978  15.032  0.00  0.00    +0.000 HD
ENDBRANCH   2  11
ENDBRANCH   1   6
BRANCH   1  15
ATOM     15  C   UNL     1      44.557   5.225  11.117  0.00  0.00    +0.000 A 
ATOM     16  C   UNL     1      43.601   4.423  11.747  0.00  0.00    +0.000 A 
ATOM     17  C   UNL     1      43.376   3.120  11.304  0.00  0.00    +0.000 A 
ATOM     18  C   UNL     1      44.092   2.610  10.220  0.00  0.00    +0.000 A 
ATOM     19  F   UNL     1      43.830   1.346   9.852  0.00  0.00    +0.000 F 
ATOM     20  C   UNL     1      45.041   3.378   9.529  0.00  0.00    +0.000 A 
ATOM     21  C   UNL     1      45.250   4.691  10.009  0.00  0.00    +0.000 A 
BRANCH  20  22
ATOM     22  C   UNL     1      45.764   2.889   8.327  0.00  0.00    +0.000 A 
ATOM     23  C   UNL     1      46.012   3.722   7.221  0.00  0.00    +0.000 A 
ATOM     24  C   UNL     1      46.753   3.279   6.118  0.00  0.00    +0.000 A 
ATOM     25  C   UNL     1      47.273   1.990   6.098  0.00  0.00    +0.000 A 
ATOM     26  C   UNL     1      47.034   1.137   7.170  0.00  0.00    +0.000 A 
ATOM     27  C   UNL     1      46.279   1.578   8.262  0.00  0.00    +0.000 A 
ENDBRANCH  20  22
ENDBRANCH   1  15
TORSDOF 4
ENDMDL
MODEL 6
REMARK VINA RESULT:    -7.389      2.342      2.911
REMARK INTER + INTRA:         -10.134
REMARK INTER:                  -9.529
REMARK INTRA:                  -0.605
REMARK UNBOUND:                -1.017
REMARK  Name = 
REMARK  4 active torsions:
REMARK  status: ('A' for Active; 'I' for Inactive)
REMARK    1  A    between atoms: C_2  and  C_4
REMARK    2  A    between atoms: N_8  and  C_9
REMARK    3  A    between atoms: C_9  and  C_10
REMARK    4  A    between atoms: C_15  and  C_16
REMARK                            x       y       z     vdW  Elec       q    Type
REMARK                         _______ _______ _______ _____ _____    ______ ____
ROOT
ATOM      1  C   UNL     1      43.530   4.008  11.189  0.00  0.00    +0.000 C 
ENDROOT
BRANCH   1   6
ATOM      2  C   UNL     1      46.608   2.579   7.322  0.00  0.00    +0.000 A 
ATOM      3  C   UNL     1      46.368   3.860   7.813  0.00  0.00    +0.000 A 
ATOM      4  C   UNL     1      45.609   4.011   8.974  0.00  0.00    +0.000 A 
ATOM      5  C   UNL     1      45.098   2.890   9.618  0.00  0.00    +0.000 A 
ATOM      6  N   UNL     1      44.434   2.937  10.822  0.00  0.00    +0.000 N 
ATOM      7  N   UNL     1      45.308   1.646   9.140  0.00  0.00    +0.000 NA
ATOM      8  C   UNL     1      46.043   1.515   8.004  0.00  0.00    +0.000 A 
ATOM      9  H   UNL     1      44.130   1.998  11.059  0.00  0.00    +0.000 HD
BRANCH   2  11
ATOM     10  N   UNL     1      47.238   3.131   5.041  0.00  0.00    +0.000 N 
ATOM     11  C   UNL     1      47.432   2.318   6.125  0.00  0.00    +0.000 C 
ATOM     12  O   UNL     1      48.284   1.439   6.114  0.00  0.00    +0.000 OA
ATOM     13  H   UNL     1      47.884   3.011   4.270  0.00  0.00    +0.000 HD
ATOM     14  H   UNL     1      46.745   4.009   5.100  0.00  0.00    +0.000 HD
ENDBRANCH   2  11
ENDBRANCH   1   6
BRANCH   1  15
ATOM     15  C   UNL     1      44.195   5.213  11.825  0.00  0.00    +0.000 A 
ATOM     16  C   UNL     1      45.204   5.113  12.787  0.00  0.00    +0.000 A 
ATOM     17  C   UNL     1      45.835   6.261  13.263  0.00  0.00    +0.000 A 
ATOM     18  C   UNL     1      45.477   7.517  12.773  0.00  0.00    +0.000 A 
ATOM     19  F   UNL     1      46.120   8.581  13.282  0.00  0.00    +0.000 F 
ATOM     20  C   UNL     1      44.493   7.677  11.785  0.00  0.00    +0.000 A 
ATOM     21  C   UNL     1      43.868   6.494  11.331  0.00  0.00    +0.000 A 
BRANCH  20  22
ATOM     22  C   UNL     1      44.143   8.993  11.192  0.00  0.00    +0.000 A 
ATOM     23  C   UNL     1      45.090  10.026  11.069  0.00  0.00    +0.000 A 
ATOM     24  C   UNL     1      44.777  11.242  10.448  0.00  0.00    +0.000 A 
ATOM     25  C   UNL     1      43.506  11.450   9.923  0.00  0.00    +0.000 A 
ATOM     26  C   UNL     1      42.544  10.455  10.040  0.00  0.00    +0.000 A 
ATOM     27  C   UNL     1      42.856   9.248  10.677  0.00  0.00    +0.000 A 
ENDBRANCH  20  22
ENDBRANCH   1  15
TORSDOF 4
ENDMDL
MODEL 7
REMARK VINA RESULT:    -6.771      4.056      7.091
REMARK INTER + INTRA:          -9.371
REMARK INTER:                  -9.529
REMARK INTRA:                   0.158
REMARK UNBOUND:                -1.017
REMARK  Name = 
REMARK  4 active torsions:
REMARK  status: ('A' for Active; 'I' for Inactive)
REMARK    1  A    between atoms: C_2  and  C_4
REMARK    2  A    between atoms: N_8  and  C_9
REMARK    3  A    between atoms: C_9  and  C_10
REMARK    4  A    between atoms: C_15  and  C_16
REMARK                            x       y       z     vdW  Elec       q    Type
REMARK                         _______ _______ _______ _____ _____    ______ ____
ROOT
ATOM      1  C   UNL     1      46.817   7.717  12.384  0.00  0.00    +0.000 C 
ENDROOT
BRANCH   1   6
ATOM      2  C   UNL     1      47.841   4.348  16.135  0.00  0.00    +0.000 A 
ATOM      3  C   UNL     1      46.913   4.242  15.102  0.00  0.00    +0.000 A 
ATOM      4  C   UNL     1      46.902   5.210  14.097  0.00  0.00    +0.000 A 
ATOM      5  C   UNL     1      47.805   6.266  14.142  0.00  0.00    +0.000 A 
ATOM      6  N   UNL     1      47.938   7.201  13.142  0.00  0.00    +0.000 N 
ATOM      7  N   UNL     1      48.695   6.388  15.149  0.00  0.00    +0.000 NA
ATOM      8  C   UNL     1      48.690   5.442  16.124  0.00  0.00    +0.000 A 
ATOM      9  H   UNL     1      48.632   7.883  13.429  0.00  0.00    +0.000 HD
BRANCH   2  11
ATOM     10  N   UNL     1      46.792   2.812  17.698  0.00  0.00    +0.000 N 
ATOM     11  C   UNL     1      47.955   3.352  17.220  0.00  0.00    +0.000 C 
ATOM     12  O   UNL     1      49.044   2.992  17.645  0.00  0.00    +0.000 OA
ATOM     13  H   UNL     1      46.891   2.054  18.362  0.00  0.00    +0.000 HD
ATOM     14  H   UNL     1      45.914   2.887  17.207  0.00  0.00    +0.000 HD
ENDBRANCH   2  11
ENDBRANCH   1   6
BRANCH   1  15
ATOM     15  C   UNL     1      45.782   6.682  11.991  0.00  0.00    +0.000 A 
ATOM     16  C   UNL     1      44.492   6.646  12.528  0.00  0.00    +0.000 A 
ATOM     17  C   UNL     1      43.561   5.723  12.054  0.00  0.00    +0.000 A 
ATOM     18  C   UNL     1      43.904   4.836  11.032  0.00  0.00    +0.000 A 
ATOM     19  F   UNL     1      42.961   3.969  10.631  0.00  0.00    +0.000 F 
ATOM     20  C   UNL     1      45.173   4.846  10.435  0.00  0.00    +0.000 A 
ATOM     21  C   UNL     1      46.094   5.789  10.943  0.00  0.00    +0.000 A 
BRANCH  20  22
ATOM     22  C   UNL     1      45.542   3.966   9.296  0.00  0.00    +0.000 A 
ATOM     23  C   UNL     1      46.071   4.485   8.100  0.00  0.00    +0.000 A 
ATOM     24  C   UNL     1      46.482   3.649   7.054  0.00  0.00    +0.000 A 
ATOM     25  C   UNL     1      46.382   2.268   7.183  0.00  0.00    +0.000 A 
ATOM     26  C   UNL     1      45.851   1.725   8.347  0.00  0.00    +0.000 A 
ATOM     27  C   UNL     1      45.426   2.565   9.382  0.00  0.00    +0.000 A 
ENDBRANCH  20  22
ENDBRANCH   1  15
TORSDOF 4
ENDMDL
MODEL 8
REMARK VINA RESULT:    -6.525      4.155      6.391
REMARK INTER + INTRA:          -9.068
REMARK INTER:                  -8.153
REMARK INTRA:                  -0.915
REMARK UNBOUND:                -1.017
REMARK  Name = 
REMARK  4 active torsions:
REMARK  status: ('A' for Active; 'I' for Inactive)
REMARK    1  A    between atoms: C_2  and  C_4
REMARK    2  A    between atoms: N_8  and  C_9
REMARK    3  A    between atoms: C_9  and  C_10
REMARK    4  A    between atoms: C_15  and  C_16
REMARK                            x       y       z     vdW  Elec       q    Type
REMARK                         _______ _______ _______ _____ _____    ______ ____
ROOT
ATOM      1  C   UNL     1      47.941   8.463  13.851  0.00  0.00    +0.000 C 
ENDROOT
BRANCH   1   6
ATOM      2  C   UNL     1      44.596   5.468  11.338  0.00  0.00    +0.000 A 
ATOM      3  C   UNL     1      45.758   5.098  12.011  0.00  0.00    +0.000 A 
ATOM      4  C   UNL     1      46.445   6.055  12.758  0.00  0.00    +0.000 A 
ATOM      5  C   UNL     1      45.969   7.360  12.816  0.00  0.00    +0.000 A 
ATOM      6  N   UNL     1      46.518   8.339  13.611  0.00  0.00    +0.000 N 
ATOM      7  N   UNL     1      44.855   7.734  12.152  0.00  0.00    +0.000 NA
ATOM      8  C   UNL     1      44.201   6.792  11.423  0.00  0.00    +0.000 A 
ATOM      9  H   UNL     1      46.018   9.207  13.446  0.00  0.00    +0.000 HD
BRANCH   2  11
ATOM     10  N   UNL     1      43.938   4.527   9.197  0.00  0.00    +0.000 N 
ATOM     11  C   UNL     1      43.781   4.516  10.556  0.00  0.00    +0.000 C 
ATOM     12  O   UNL     1      43.028   3.721  11.102  0.00  0.00    +0.000 OA
ATOM     13  H   UNL     1      43.457   3.797   8.685  0.00  0.00    +0.000 HD
ATOM     14  H   UNL     1      44.720   4.974   8.742  0.00  0.00    +0.000 HD
ENDBRANCH   2  11
ENDBRANCH   1   6
BRANCH   1  15
ATOM     15  C   UNL     1      48.381   8.127  15.261  0.00  0.00    +0.000 A 
ATOM     16  C   UNL     1      48.294   9.027  16.327  0.00  0.00    +0.000 A 
ATOM     17  C   UNL     1      48.631   8.622  17.618  0.00  0.00    +0.000 A 
ATOM     18  C   UNL     1      49.046   7.312  17.859  0.00  0.00    +0.000 A 
ATOM     19  F   UNL     1      49.364   6.992  19.124  0.00  0.00    +0.000 F 
ATOM     20  C   UNL     1      49.124   6.356  16.835  0.00  0.00    +0.000 A 
ATOM     21  C   UNL     1      48.782   6.801  15.539  0.00  0.00    +0.000 A 
BRANCH  20  22
ATOM     22  C   UNL     1      49.490   4.936  17.075  0.00  0.00    +0.000 A 
ATOM     23  C   UNL     1      48.566   3.891  16.890  0.00  0.00    +0.000 A 
ATOM     24  C   UNL     1      48.931   2.549  17.050  0.00  0.00    +0.000 A 
ATOM     25  C   UNL     1      50.238   2.217  17.390  0.00  0.00    +0.000 A 
ATOM     26  C   UNL     1      51.171   3.226  17.593  0.00  0.00    +0.000 A 
ATOM     27  C   UNL     1      50.797   4.567  17.449  0.00  0.00    +0.000 A 
ENDBRANCH  20  22
ENDBRANCH   1  15
TORSDOF 4
ENDMDL
MODEL 9
REMARK VINA RESULT:    -6.458      5.490      8.429
REMARK INTER + INTRA:          -8.985
REMARK INTER:                  -8.091
REMARK INTRA:                  -0.894
REMARK UNBOUND:                -1.017
REMARK  Name = 
REMARK  4 active torsions:
REMARK  status: ('A' for Active; 'I' for Inactive)
REMARK    1  A    between atoms: C_2  and  C_4
REMARK    2  A    between atoms: N_8  and  C_9
REMARK    3  A    between atoms: C_9  and  C_10
REMARK    4  A    between atoms: C_15  and  C_16
REMARK                            x       y       z     vdW  Elec       q    Type
REMARK                         _______ _______ _______ _____ _____    ______ ____
ROOT
ATOM      1  C   UNL     1      49.034   7.021  13.758  0.00  0.00    +0.000 C 
ENDROOT
BRANCH   1   6
ATOM      2  C   UNL     1      48.396   5.764  18.707  0.00  0.00    +0.000 A 
ATOM      3  C   UNL     1      48.792   4.951  17.647  0.00  0.00    +0.000 A 
ATOM      4  C   UNL     1      49.050   5.530  16.405  0.00  0.00    +0.000 A 
ATOM      5  C   UNL     1      48.902   6.902  16.237  0.00  0.00    +0.000 A 
ATOM      6  N   UNL     1      49.238   7.570  15.082  0.00  0.00    +0.000 N 
ATOM      7  N   UNL     1      48.501   7.697  17.250  0.00  0.00    +0.000 NA
ATOM      8  C   UNL     1      48.246   7.117  18.453  0.00  0.00    +0.000 A 
ATOM      9  H   UNL     1      49.001   8.551  15.197  0.00  0.00    +0.000 HD
BRANCH   2  11
ATOM     10  N   UNL     1      48.650   4.017  20.374  0.00  0.00    +0.000 N 
ATOM     11  C   UNL     1      48.140   5.248  20.066  0.00  0.00    +0.000 C 
ATOM     12  O   UNL     1      47.534   5.910  20.897  0.00  0.00    +0.000 OA
ATOM     13  H   UNL     1      48.562   3.724  21.340  0.00  0.00    +0.000 HD
ATOM     14  H   UNL     1      49.361   3.566  19.817  0.00  0.00    +0.000 HD
ENDBRANCH   2  11
ENDBRANCH   1   6
BRANCH   1  15
ATOM     15  C   UNL     1      47.637   7.205  13.199  0.00  0.00    +0.000 A 
ATOM     16  C   UNL     1      46.908   8.389  13.335  0.00  0.00    +0.000 A 
ATOM     17  C   UNL     1      45.665   8.522  12.717  0.00  0.00    +0.000 A 
ATOM     18  C   UNL     1      45.145   7.480  11.948  0.00  0.00    +0.000 A 
ATOM     19  F   UNL     1      43.939   7.673  11.389  0.00  0.00    +0.000 F 
ATOM     20  C   UNL     1      45.845   6.281  11.751  0.00  0.00    +0.000 A 
ATOM     21  C   UNL     1      47.097   6.176  12.397  0.00  0.00    +0.000 A 
BRANCH  20  22
ATOM     22  C   UNL     1      45.351   5.185  10.878  0.00  0.00    +0.000 A 
ATOM     23  C   UNL     1      45.648   5.141   9.504  0.00  0.00    +0.000 A 
ATOM     24  C   UNL     1      45.240   4.072   8.696  0.00  0.00    +0.000 A 
ATOM     25  C   UNL     1      44.529   3.012   9.248  0.00  0.00    +0.000 A 
ATOM     26  C   UNL     1      44.208   3.031  10.600  0.00  0.00    +0.000 A 
ATOM     27  C   UNL     1      44.604   4.110  11.400  0.00  0.00    +0.000 A 
ENDBRANCH  20  22
ENDBRANCH   1  15
TORSDOF 4
ENDMDL
