MODEL 1
REMARK VINA RESULT:    -9.942      0.000      0.000
REMARK INTER + INTRA:         -14.281
REMARK INTER:                 -13.429
REMARK INTRA:                  -0.852
REMARK UNBOUND:                -0.852
REMARK  Name = 
REMARK  6 active torsions:
REMARK  status: ('A' for Active; 'I' for Inactive)
REMARK    1  A    between atoms: C_2  and  C_4
REMARK    2  A    between atoms: N_8  and  C_9
REMARK    3  A    between atoms: C_9  and  C_10
REMARK    4  A    between atoms: C_10  and  C_13
REMARK    5  A    between atoms: C_18  and  O_19
REMARK    6  A    between atoms: O_19  and  C_20
REMARK                            x       y       z     vdW  Elec       q    Type
REMARK                         _______ _______ _______ _____ _____    ______ ____
ROOT
ATOM      1  C   UNL     1      43.087   5.538  12.140  0.00  0.00    +0.000 C 
ATOM      2  F   UNL     1      42.263   6.554  11.755  0.00  0.00    +0.000 F 
ATOM      3  F   UNL     1      42.528   5.017  13.269  0.00  0.00    +0.000 F 
ENDROOT
BRANCH   1   4
ATOM      4  C   UNL     1      44.515   6.009  12.378  0.00  0.00    +0.000 A 
ATOM      5  C   UNL     1      45.003   7.174  11.775  0.00  0.00    +0.000 A 
ATOM      6  C   UNL     1      46.349   7.522  11.909  0.00  0.00    +0.000 A 
ATOM      7  C   UNL     1      47.216   6.712  12.651  0.00  0.00    +0.000 A 
ATOM      8 CL   UNL     1      48.879   7.167  12.733  0.00  0.00    +0.000 Cl
ATOM      9  C   UNL     1      46.737   5.561  13.289  0.00  0.00    +0.000 A 
ATOM     10  C   UNL     1      45.389   5.216  13.144  0.00  0.00    +0.000 A 
BRANCH   9  11
ATOM     11  O   UNL     1      47.637   4.785  13.985  0.00  0.00    +0.000 OA
BRANCH  11  12
ATOM     12  C   UNL     1      47.204   4.132  15.190  0.00  0.00    +0.000 C 
ATOM     13  C   UNL     1      47.813   4.608  16.527  0.00  0.00    +0.000 C 
ATOM     14  C   UNL     1      47.888   3.107  16.857  0.00  0.00    +0.000 C 
ATOM     15  N   UNL     1      47.921   2.852  15.401  0.00  0.00    +0.000 NA
ATOM     16  H   UNL     1      47.408   2.032  15.090  0.00  0.00    +0.000 HD
ENDBRANCH  11  12
ENDBRANCH   9  11
ENDBRANCH   1   4
BRANCH   1  17
ATOM     17  C   UNL     1      43.100   4.453  11.033  0.00  0.00    +0.000 C 
BRANCH  17  22
ATOM     18  C   UNL     1      46.386   2.326   7.720  0.00  0.00    +0.000 A 
ATOM     19  C   UNL     1      45.622   1.772   8.740  0.00  0.00    +0.000 A 
ATOM     20  C   UNL     1      44.756   2.594   9.461  0.00  0.00    +0.000 A 
ATOM     21  C   UNL     1      44.675   3.955   9.169  0.00  0.00    +0.000 A 
ATOM     22  N   UNL     1      43.837   4.815   9.828  0.00  0.00    +0.000 N 
ATOM     23  N   UNL     1      45.417   4.499   8.186  0.00  0.00    +0.000 NA
ATOM     24  C   UNL     1      46.255   3.685   7.489  0.00  0.00    +0.000 A 
ATOM     25  H   UNL     1      43.957   5.792   9.575  0.00  0.00    +0.000 HD
BRANCH  18  27
ATOM     26  N   UNL     1      48.493   2.157   6.513  0.00  0.00    +0.000 N 
ATOM     27  C   UNL     1      47.340   1.539   6.913  0.00  0.00    +0.000 C 
ATOM     28  O   UNL     1      47.120   0.370   6.623  0.00  0.00    +0.000 OA
ATOM     29  H   UNL     1      49.168   1.579   6.027  0.00  0.00    +0.000 HD
ATOM     30  H   UNL     1      48.824   3.020   6.919  0.00  0.00    +0.000 HD
ENDBRANCH  18  27
ENDBRANCH  17  22
ENDBRANCH   1  17
TORSDOF 6
ENDMDL
MODEL 2
REMARK VINA RESULT:    -9.259      2.287      3.884
REMARK INTER + INTRA:         -13.358
REMARK INTER:                 -12.529
REMARK INTRA:                  -0.829
REMARK UNBOUND:                -0.852
REMARK  Name = 
REMARK  6 active torsions:
REMARK  status: ('A' for Active; 'I' for Inactive)
REMARK    1  A    between atoms: C_2  and  C_4
REMARK    2  A    between atoms: N_8  and  C_9
REMARK    3  A    between atoms: C_9  and  C_10
REMARK    4  A    between atoms: C_10  and  C_13
REMARK    5  A    between atoms: C_18  and  O_19
REMARK    6  A    between atoms: O_19  and  C_20
REMARK                            x       y       z     vdW  Elec       q    Type
REMARK                         _______ _______ _______ _____ _____    ______ ____
ROOT
ATOM      1  C   UNL     1      43.909   4.284  12.461  0.00  0.00    +0.000 C 
ATOM      2  F   UNL     1      43.001   4.372  13.474  0.00  0.00    +0.000 F 
ATOM      3  F   UNL     1      44.396   3.011  12.510  0.00  0.00    +0.000 F 
ENDROOT
BRANCH   1   4
ATOM      4  C   UNL     1      45.017   5.321  12.585  0.00  0.00    +0.000 A 
ATOM      5  C   UNL     1      46.355   4.937  12.734  0.00  0.00    +0.000 A 
ATOM      6  C   UNL     1      47.338   5.902  12.967  0.00  0.00    +0.000 A 
ATOM      7  C   UNL     1      46.994   7.256  13.045  0.00  0.00    +0.000 A 
ATOM      8 CL   UNL     1      48.247   8.392  13.388  0.00  0.00    +0.000 Cl
ATOM      9  C   UNL     1      45.665   7.660  12.862  0.00  0.00    +0.000 A 
ATOM     10  C   UNL     1      44.685   6.687  12.637  0.00  0.00    +0.000 A 
BRANCH   9  11
ATOM     11  O   UNL     1      45.377   9.002  12.975  0.00  0.00    +0.000 OA
BRANCH  11  12
ATOM     12  C   UNL     1      44.871   9.701  11.824  0.00  0.00    +0.000 C 
ATOM     13  C   UNL     1      45.492  11.073  11.485  0.00  0.00    +0.000 C 
ATOM     14  C   UNL     1      44.039  11.498  11.212  0.00  0.00    +0.000 C 
ATOM     15  N   UNL     1      43.617  10.427  12.139  0.00  0.00    +0.000 NA
ATOM     16  H   UNL     1      42.772   9.929  11.875  0.00  0.00    +0.000 HD
ENDBRANCH  11  12
ENDBRANCH   9  11
ENDBRANCH   1   4
BRANCH   1  17
ATOM     17  C   UNL     1      43.179   4.497  11.110  0.00  0.00    +0.000 C 
BRANCH  17  22
ATOM     18  C   UNL     1      46.479   2.534   7.711  0.00  0.00    +0.000 A 
ATOM     19  C   UNL     1      45.595   1.922   8.593  0.00  0.00    +0.000 A 
ATOM     20  C   UNL     1      44.761   2.719   9.377  0.00  0.00    +0.000 A 
ATOM     21  C   UNL     1      44.830   4.109   9.286  0.00  0.00    +0.000 A 
ATOM     22  N   UNL     1      44.032   4.949  10.017  0.00  0.00    +0.000 N 
ATOM     23  N   UNL     1      45.688   4.707   8.439  0.00  0.00    +0.000 NA
ATOM     24  C   UNL     1      46.494   3.918   7.678  0.00  0.00    +0.000 A 
ATOM     25  H   UNL     1      44.260   5.934   9.919  0.00  0.00    +0.000 HD
BRANCH  18  27
ATOM     26  N   UNL     1      48.516   2.429   6.384  0.00  0.00    +0.000 N 
ATOM     27  C   UNL     1      47.410   1.775   6.852  0.00  0.00    +0.000 C 
ATOM     28  O   UNL     1      47.213   0.599   6.579  0.00  0.00    +0.000 OA
ATOM     29  H   UNL     1      49.181   1.872   5.861  0.00  0.00    +0.000 HD
ATOM     30  H   UNL     1      48.842   3.305   6.767  0.00  0.00    +0.000 HD
ENDBRANCH  18  27
ENDBRANCH  17  22
ENDBRANCH   1  17
TORSDOF 6
ENDMDL
MODEL 3
REMARK VINA RESULT:    -8.850      2.043      3.394
REMARK INTER + INTRA:         -12.806
REMARK INTER:                 -11.791
REMARK INTRA:                  -1.015
REMARK UNBOUND:                -0.852
REMARK  Name = 
REMARK  6 active torsions:
REMARK  status: ('A' for Active; 'I' for Inactive)
REMARK    1  A    between atoms: C_2  and  C_4
REMARK    2  A    between atoms: N_8  and  C_9
REMARK    3  A    between atoms: C_9  and  C_10
REMARK    4  A    between atoms: C_10  and  C_13
REMARK    5  A    between atoms: C_18  and  O_19
REMARK    6  A    between atoms: O_19  and  C_20
REMARK                            x       y       z     vdW  Elec       q    Type
REMARK                         _______ _______ _______ _____ _____    ______ ____
ROOT
ATOM      1  C   UNL     1      43.270   4.969  12.357  0.00  0.00    +0.000 C 
ATOM      2  F   UNL     1      42.440   6.028  12.138  0.00  0.00    +0.000 F 
ATOM      3  F   UNL     1      42.702   4.257  13.372  0.00  0.00    +0.000 F 
ENDROOT
BRANCH   1   4
ATOM      4  C   UNL     1      44.689   5.405  12.693  0.00  0.00    +0.000 A 
ATOM      5  C   UNL     1      45.676   4.468  13.021  0.00  0.00    +0.000 A 
ATOM      6  C   UNL     1      46.937   4.898  13.443  0.00  0.00    +0.000 A 
ATOM      7  C   UNL     1      47.223   6.264  13.533  0.00  0.00    +0.000 A 
ATOM      8 CL   UNL     1      48.781   6.730  14.113  0.00  0.00    +0.000 Cl
ATOM      9  C   UNL     1      46.258   7.214  13.175  0.00  0.00    +0.000 A 
ATOM     10  C   UNL     1      44.996   6.777  12.760  0.00  0.00    +0.000 A 
BRANCH   9  11
ATOM     11  O   UNL     1      46.583   8.546  13.306  0.00  0.00    +0.000 OA
BRANCH  11  12
ATOM     12  C   UNL     1      46.867   9.311  12.122  0.00  0.00    +0.000 C 
ATOM     13  C   UNL     1      48.348   9.560  11.763  0.00  0.00    +0.000 C 
ATOM     14  C   UNL     1      47.876  10.986  11.435  0.00  0.00    +0.000 C 
ATOM     15  N   UNL     1      46.759  10.768  12.379  0.00  0.00    +0.000 NA
ATOM     16  H   UNL     1      45.869  11.173  12.103  0.00  0.00    +0.000 HD
ENDBRANCH  11  12
ENDBRANCH   9  11
ENDBRANCH   1   4
BRANCH   1  17
ATOM     17  C   UNL     1      43.310   4.088  11.081  0.00  0.00    +0.000 C 
BRANCH  17  22
ATOM     18  C   UNL     1      46.672   2.724   7.457  0.00  0.00    +0.000 A 
ATOM     19  C   UNL     1      45.956   1.968   8.378  0.00  0.00    +0.000 A 
ATOM     20  C   UNL     1      45.053   2.610   9.225  0.00  0.00    +0.000 A 
ATOM     21  C   UNL     1      44.888   3.993   9.156  0.00  0.00    +0.000 A 
ATOM     22  N   UNL     1      44.009   4.684   9.948  0.00  0.00    +0.000 N 
ATOM     23  N   UNL     1      45.582   4.732   8.271  0.00  0.00    +0.000 NA
ATOM     24  C   UNL     1      46.458   4.092   7.449  0.00  0.00    +0.000 A 
ATOM     25  H   UNL     1      44.067   5.694   9.855  0.00  0.00    +0.000 HD
BRANCH  18  27
ATOM     26  N   UNL     1      47.974   2.846   5.404  0.00  0.00    +0.000 N 
ATOM     27  C   UNL     1      47.660   2.136   6.531  0.00  0.00    +0.000 C 
ATOM     28  O   UNL     1      48.194   1.060   6.764  0.00  0.00    +0.000 OA
ATOM     29  H   UNL     1      48.709   2.464   4.822  0.00  0.00    +0.000 HD
ATOM     30  H   UNL     1      47.749   3.824   5.289  0.00  0.00    +0.000 HD
ENDBRANCH  18  27
ENDBRANCH  17  22
ENDBRANCH   1  17
TORSDOF 6
ENDMDL
MODEL 4
REMARK VINA RESULT:    -8.821      1.775      2.042
REMARK INTER + INTRA:         -12.767
REMARK INTER:                 -11.596
REMARK INTRA:                  -1.171
REMARK UNBOUND:                -0.852
REMARK  Name = 
REMARK  6 active torsions:
REMARK  status: ('A' for Active; 'I' for Inactive)
REMARK    1  A    between atoms: C_2  and  C_4
REMARK    2  A    between atoms: N_8  and  C_9
REMARK    3  A    between atoms: C_9  and  C_10
REMARK    4  A    between atoms: C_10  and  C_13
REMARK    5  A    between atoms: C_18  and  O_19
REMARK    6  A    between atoms: O_19  and  C_20
REMARK                            x       y       z     vdW  Elec       q    Type
REMARK                         _______ _______ _______ _____ _____    ______ ____
ROOT
ATOM      1  C   UNL     1      43.702   4.374  12.635  0.00  0.00    +0.000 C 
ATOM      2  F   UNL     1      42.610   4.806  13.327  0.00  0.00    +0.000 F 
ATOM      3  F   UNL     1      44.155   3.276  13.305  0.00  0.00    +0.000 F 
ENDROOT
BRANCH   1   4
ATOM      4  C   UNL     1      44.775   5.449  12.515  0.00  0.00    +0.000 A 
ATOM      5  C   UNL     1      44.591   6.566  11.692  0.00  0.00    +0.000 A 
ATOM      6  C   UNL     1      45.633   7.476  11.503  0.00  0.00    +0.000 A 
ATOM      7  C   UNL     1      46.864   7.281  12.140  0.00  0.00    +0.000 A 
ATOM      8 CL   UNL     1      48.130   8.411  11.822  0.00  0.00    +0.000 Cl
ATOM      9  C   UNL     1      47.053   6.187  12.994  0.00  0.00    +0.000 A 
ATOM     10  C   UNL     1      46.006   5.276  13.172  0.00  0.00    +0.000 A 
BRANCH   9  11
ATOM     11  O   UNL     1      48.292   6.027  13.575  0.00  0.00    +0.000 OA
BRANCH  11  12
ATOM     12  C   UNL     1      48.556   6.671  14.833  0.00  0.00    +0.000 C 
ATOM     13  C   UNL     1      49.986   7.198  15.086  0.00  0.00    +0.000 C 
ATOM     14  C   UNL     1      49.792   6.613  16.496  0.00  0.00    +0.000 C 
ATOM     15  N   UNL     1      48.808   5.681  15.907  0.00  0.00    +0.000 NA
ATOM     16  H   UNL     1      47.996   5.481  16.485  0.00  0.00    +0.000 HD
ENDBRANCH  11  12
ENDBRANCH   9  11
ENDBRANCH   1   4
BRANCH   1  17
ATOM     17  C   UNL     1      43.261   3.953  11.209  0.00  0.00    +0.000 C 
BRANCH  17  22
ATOM     18  C   UNL     1      46.493   2.869   7.379  0.00  0.00    +0.000 A 
ATOM     19  C   UNL     1      46.036   4.082   7.880  0.00  0.00    +0.000 A 
ATOM     20  C   UNL     1      45.187   4.081   8.987  0.00  0.00    +0.000 A 
ATOM     21  C   UNL     1      44.793   2.876   9.567  0.00  0.00    +0.000 A 
ATOM     22  N   UNL     1      43.972   2.804  10.662  0.00  0.00    +0.000 N 
ATOM     23  N   UNL     1      45.226   1.698   9.082  0.00  0.00    +0.000 NA
ATOM     24  C   UNL     1      46.056   1.714   8.004  0.00  0.00    +0.000 A 
ATOM     25  H   UNL     1      43.692   1.860  10.914  0.00  0.00    +0.000 HD
BRANCH  18  27
ATOM     26  N   UNL     1      48.698   2.475   6.427  0.00  0.00    +0.000 N 
ATOM     27  C   UNL     1      47.381   2.770   6.203  0.00  0.00    +0.000 C 
ATOM     28  O   UNL     1      46.957   2.929   5.066  0.00  0.00    +0.000 OA
ATOM     29  H   UNL     1      49.274   2.335   5.606  0.00  0.00    +0.000 HD
ATOM     30  H   UNL     1      49.039   2.106   7.303  0.00  0.00    +0.000 HD
ENDBRANCH  18  27
ENDBRANCH  17  22
ENDBRANCH   1  17
TORSDOF 6
ENDMDL
MODEL 5
REMARK VINA RESULT:    -8.290      2.959      4.849
REMARK INTER + INTRA:         -12.050
REMARK INTER:                 -11.092
REMARK INTRA:                  -0.958
REMARK UNBOUND:                -0.852
REMARK  Name = 
REMARK  6 active torsions:
REMARK  status: ('A' for Active; 'I' for Inactive)
REMARK    1  A    between atoms: C_2  and  C_4
REMARK    2  A    between atoms: N_8  and  C_9
REMARK    3  A    between atoms: C_9  and  C_10
REMARK    4  A    between atoms: C_10  and  C_13
REMARK    5  A    between atoms: C_18  and  O_19
REMARK    6  A    between atoms: O_19  and  C_20
REMARK                            x       y       z     vdW  Elec       q    Type
REMARK                         _______ _______ _______ _____ _____    ______ ____
ROOT
ATOM      1  C   UNL     1      43.795   5.249  12.445  0.00  0.00    +0.000 C 
ATOM      2  F   UNL     1      42.688   5.355  13.235  0.00  0.00    +0.000 F 
ATOM      3  F   UNL     1      44.607   4.346  13.066  0.00  0.00    +0.000 F 
ENDROOT
BRANCH   1   4
ATOM      4  C   UNL     1      44.488   6.588  12.236  0.00  0.00    +0.000 A 
ATOM      5  C   UNL     1      45.631   6.933  12.966  0.00  0.00    +0.000 A 
ATOM      6  C   UNL     1      46.179   8.212  12.846  0.00  0.00    +0.000 A 
ATOM      7  C   UNL     1      45.594   9.153  11.991  0.00  0.00    +0.000 A 
ATOM      8 CL   UNL     1      46.287  10.733  11.929  0.00  0.00    +0.000 Cl
ATOM      9  C   UNL     1      44.471   8.812  11.227  0.00  0.00    +0.000 A 
ATOM     10  C   UNL     1      43.923   7.532  11.359  0.00  0.00    +0.000 A 
BRANCH   9  11
ATOM     11  O   UNL     1      43.918   9.783  10.421  0.00  0.00    +0.000 OA
BRANCH  11  12
ATOM     12  C   UNL     1      42.507  10.042  10.515  0.00  0.00    +0.000 C 
ATOM     13  C   UNL     1      41.979  11.372   9.934  0.00  0.00    +0.000 C 
ATOM     14  C   UNL     1      41.118  11.415  11.208  0.00  0.00    +0.000 C 
ATOM     15  N   UNL     1      42.139  10.563  11.853  0.00  0.00    +0.000 NA
ATOM     16  H   UNL     1      41.779   9.857  12.489  0.00  0.00    +0.000 HD
ENDBRANCH  11  12
ENDBRANCH   9  11
ENDBRANCH   1   4
BRANCH   1  17
ATOM     17  C   UNL     1      43.375   4.686  11.062  0.00  0.00    +0.000 C 
BRANCH  17  22
ATOM     18  C   UNL     1      46.470   2.721   7.478  0.00  0.00    +0.000 A 
ATOM     19  C   UNL     1      46.125   4.034   7.774  0.00  0.00    +0.000 A 
ATOM     20  C   UNL     1      45.288   4.286   8.861  0.00  0.00    +0.000 A 
ATOM     21  C   UNL     1      44.794   3.229   9.625  0.00  0.00    +0.000 A 
ATOM     22  N   UNL     1      43.979   3.406  10.712  0.00  0.00    +0.000 N 
ATOM     23  N   UNL     1      45.120   1.955   9.340  0.00  0.00    +0.000 NA
ATOM     24  C   UNL     1      45.939   1.724   8.278  0.00  0.00    +0.000 A 
ATOM     25  H   UNL     1      43.620   2.544  11.111  0.00  0.00    +0.000 HD
BRANCH  18  27
ATOM     26  N   UNL     1      47.388   3.218   5.279  0.00  0.00    +0.000 N 
ATOM     27  C   UNL     1      47.337   2.356   6.340  0.00  0.00    +0.000 C 
ATOM     28  O   UNL     1      48.002   1.328   6.346  0.00  0.00    +0.000 OA
ATOM     29  H   UNL     1      48.045   2.989   4.544  0.00  0.00    +0.000 HD
ATOM     30  H   UNL     1      47.056   4.171   5.327  0.00  0.00    +0.000 HD
ENDBRANCH  18  27
ENDBRANCH  17  22
ENDBRANCH   1  17
TORSDOF 6
ENDMDL
MODEL 6
REMARK VINA RESULT:    -8.054      2.292      2.740
REMARK INTER + INTRA:         -11.730
REMARK INTER:                 -11.337
REMARK INTRA:                  -0.394
REMARK UNBOUND:                -0.852
REMARK  Name = 
REMARK  6 active torsions:
REMARK  status: ('A' for Active; 'I' for Inactive)
REMARK    1  A    between atoms: C_2  and  C_4
REMARK    2  A    between atoms: N_8  and  C_9
REMARK    3  A    between atoms: C_9  and  C_10
REMARK    4  A    between atoms: C_10  and  C_13
REMARK    5  A    between atoms: C_18  and  O_19
REMARK    6  A    between atoms: O_19  and  C_20
REMARK                            x       y       z     vdW  Elec       q    Type
REMARK                         _______ _______ _______ _____ _____    ______ ____
ROOT
ATOM      1  C   UNL     1      44.113   4.980  12.337  0.00  0.00    +0.000 C 
ATOM      2  F   UNL     1      43.256   4.746  13.371  0.00  0.00    +0.000 F 
ATOM      3  F   UNL     1      45.110   4.059  12.466  0.00  0.00    +0.000 F 
ENDROOT
BRANCH   1   4
ATOM      4  C   UNL     1      44.651   6.404  12.342  0.00  0.00    +0.000 A 
ATOM      5  C   UNL     1      44.074   7.398  11.543  0.00  0.00    +0.000 A 
ATOM      6  C   UNL     1      44.658   8.666  11.472  0.00  0.00    +0.000 A 
ATOM      7  C   UNL     1      45.817   8.951  12.202  0.00  0.00    +0.000 A 
ATOM      8 CL   UNL     1      46.520  10.518  12.028  0.00  0.00    +0.000 Cl
ATOM      9  C   UNL     1      46.387   7.978  13.033  0.00  0.00    +0.000 A 
ATOM     10  C   UNL     1      45.801   6.709  13.094  0.00  0.00    +0.000 A 
BRANCH   9  11
ATOM     11  O   UNL     1      47.542   8.302  13.710  0.00  0.00    +0.000 OA
BRANCH  11  12
ATOM     12  C   UNL     1      48.800   8.202  13.022  0.00  0.00    +0.000 C 
ATOM     13  C   UNL     1      48.774   7.836  11.521  0.00  0.00    +0.000 C 
ATOM     14  C   UNL     1      49.963   6.927  11.874  0.00  0.00    +0.000 C 
ATOM     15  N   UNL     1      49.444   6.888  13.257  0.00  0.00    +0.000 NA
ATOM     16  H   UNL     1      50.150   6.897  13.988  0.00  0.00    +0.000 HD
ENDBRANCH  11  12
ENDBRANCH   9  11
ENDBRANCH   1   4
BRANCH   1  17
ATOM     17  C   UNL     1      43.367   4.736  11.000  0.00  0.00    +0.000 C 
BRANCH  17  22
ATOM     18  C   UNL     1      46.463   2.364   7.671  0.00  0.00    +0.000 A 
ATOM     19  C   UNL     1      45.649   1.868   8.682  0.00  0.00    +0.000 A 
ATOM     20  C   UNL     1      44.857   2.756   9.410  0.00  0.00    +0.000 A 
ATOM     21  C   UNL     1      44.899   4.122   9.134  0.00  0.00    +0.000 A 
ATOM     22  N   UNL     1      44.139   5.046   9.802  0.00  0.00    +0.000 N 
ATOM     23  N   UNL     1      45.690   4.610   8.161  0.00  0.00    +0.000 NA
ATOM     24  C   UNL     1      46.456   3.732   7.457  0.00  0.00    +0.000 A 
ATOM     25  H   UNL     1      44.346   6.011   9.562  0.00  0.00    +0.000 HD
BRANCH  18  27
ATOM     26  N   UNL     1      48.464   2.078   6.315  0.00  0.00    +0.000 N 
ATOM     27  C   UNL     1      47.346   1.505   6.857  0.00  0.00    +0.000 C 
ATOM     28  O   UNL     1      47.101   0.319   6.684  0.00  0.00    +0.000 OA
ATOM     29  H   UNL     1      49.096   1.456   5.825  0.00  0.00    +0.000 HD
ATOM     30  H   UNL     1      48.830   2.969   6.620  0.00  0.00    +0.000 HD
ENDBRANCH  18  27
ENDBRANCH  17  22
ENDBRANCH   1  17
TORSDOF 6
ENDMDL
MODEL 7
REMARK VINA RESULT:    -7.905      2.935      7.613
REMARK INTER + INTRA:         -11.529
REMARK INTER:                 -10.718
REMARK INTRA:                  -0.811
REMARK UNBOUND:                -0.852
REMARK  Name = 
REMARK  6 active torsions:
REMARK  status: ('A' for Active; 'I' for Inactive)
REMARK    1  A    between atoms: C_2  and  C_4
REMARK    2  A    between atoms: N_8  and  C_9
REMARK    3  A    between atoms: C_9  and  C_10
REMARK    4  A    between atoms: C_10  and  C_13
REMARK    5  A    between atoms: C_18  and  O_19
REMARK    6  A    between atoms: O_19  and  C_20
REMARK                            x       y       z     vdW  Elec       q    Type
REMARK                         _______ _______ _______ _____ _____    ______ ____
ROOT
ATOM      1  C   UNL     1      46.162   6.643  11.648  0.00  0.00    +0.000 C 
ATOM      2  F   UNL     1      45.530   7.783  11.248  0.00  0.00    +0.000 F 
ATOM      3  F   UNL     1      47.479   6.824  11.345  0.00  0.00    +0.000 F 
ENDROOT
BRANCH   1   4
ATOM      4  C   UNL     1      45.591   5.399  10.979  0.00  0.00    +0.000 A 
ATOM      5  C   UNL     1      45.032   4.363  11.736  0.00  0.00    +0.000 A 
ATOM      6  C   UNL     1      44.625   3.181  11.113  0.00  0.00    +0.000 A 
ATOM      7  C   UNL     1      44.766   3.029   9.729  0.00  0.00    +0.000 A 
ATOM      8 CL   UNL     1      44.294   1.524   9.026  0.00  0.00    +0.000 Cl
ATOM      9  C   UNL     1      45.291   4.070   8.952  0.00  0.00    +0.000 A 
ATOM     10  C   UNL     1      45.703   5.247   9.585  0.00  0.00    +0.000 A 
BRANCH   9  11
ATOM     11  O   UNL     1      45.433   3.858   7.599  0.00  0.00    +0.000 OA
BRANCH  11  12
ATOM     12  C   UNL     1      46.739   3.564   7.076  0.00  0.00    +0.000 C 
ATOM     13  C   UNL     1      46.839   3.098   5.607  0.00  0.00    +0.000 C 
ATOM     14  C   UNL     1      47.859   2.084   6.153  0.00  0.00    +0.000 C 
ATOM     15  N   UNL     1      47.184   2.204   7.463  0.00  0.00    +0.000 NA
ATOM     16  H   UNL     1      47.797   2.182   8.273  0.00  0.00    +0.000 HD
ENDBRANCH  11  12
ENDBRANCH   9  11
ENDBRANCH   1   4
BRANCH   1  17
ATOM     17  C   UNL     1      46.010   6.494  13.184  0.00  0.00    +0.000 C 
BRANCH  17  22
ATOM     18  C   UNL     1      48.557   3.980  16.856  0.00  0.00    +0.000 A 
ATOM     19  C   UNL     1      47.439   3.630  16.109  0.00  0.00    +0.000 A 
ATOM     20  C   UNL     1      46.985   4.501  15.119  0.00  0.00    +0.000 A 
ATOM     21  C   UNL     1      47.639   5.713  14.900  0.00  0.00    +0.000 A 
ATOM     22  N   UNL     1      47.254   6.609  13.936  0.00  0.00    +0.000 N 
ATOM     23  N   UNL     1      48.718   6.062  15.624  0.00  0.00    +0.000 NA
ATOM     24  C   UNL     1      49.151   5.201  16.584  0.00  0.00    +0.000 A 
ATOM     25  H   UNL     1      47.761   7.490  13.957  0.00  0.00    +0.000 HD
BRANCH  18  27
ATOM     26  N   UNL     1      48.491   3.187  19.157  0.00  0.00    +0.000 N 
ATOM     27  C   UNL     1      49.102   3.130  17.934  0.00  0.00    +0.000 C 
ATOM     28  O   UNL     1      50.054   2.386  17.742  0.00  0.00    +0.000 OA
ATOM     29  H   UNL     1      48.829   2.542  19.859  0.00  0.00    +0.000 HD
ATOM     30  H   UNL     1      47.576   3.592  19.297  0.00  0.00    +0.000 HD
ENDBRANCH  18  27
ENDBRANCH  17  22
ENDBRANCH   1  17
TORSDOF 6
ENDMDL
MODEL 8
REMARK VINA RESULT:    -7.589      1.893      2.854
REMARK INTER + INTRA:         -11.103
REMARK INTER:                 -10.352
REMARK INTRA:                  -0.752
REMARK UNBOUND:                -0.852
REMARK  Name = 
REMARK  6 active torsions:
REMARK  status: ('A' for Active; 'I' for Inactive)
REMARK    1  A    between atoms: C_2  and  C_4
REMARK    2  A    between atoms: N_8  and  C_9
REMARK    3  A    between atoms: C_9  and  C_10
REMARK    4  A    between atoms: C_10  and  C_13
REMARK    5  A    between atoms: C_18  and  O_19
REMARK    6  A    between atoms: O_19  and  C_20
REMARK                            x       y       z     vdW  Elec       q    Type
REMARK                         _______ _______ _______ _____ _____    ______ ____
ROOT
ATOM      1  C   UNL     1      43.777   6.285  11.799  0.00  0.00    +0.000 C 
ATOM      2  F   UNL     1      43.909   7.454  11.109  0.00  0.00    +0.000 F 
ATOM      3  F   UNL     1      42.663   6.434  12.570  0.00  0.00    +0.000 F 
ENDROOT
BRANCH   1   4
ATOM      4  C   UNL     1      45.009   5.965  12.635  0.00  0.00    +0.000 A 
ATOM      5  C   UNL     1      45.202   4.690  13.180  0.00  0.00    +0.000 A 
ATOM      6  C   UNL     1      46.275   4.452  14.042  0.00  0.00    +0.000 A 
ATOM      7  C   UNL     1      47.165   5.483  14.362  0.00  0.00    +0.000 A 
ATOM      8 CL   UNL     1      48.438   5.139  15.476  0.00  0.00    +0.000 Cl
ATOM      9  C   UNL     1      47.006   6.756  13.798  0.00  0.00    +0.000 A 
ATOM     10  C   UNL     1      45.925   6.988  12.941  0.00  0.00    +0.000 A 
BRANCH   9  11
ATOM     11  O   UNL     1      47.895   7.741  14.166  0.00  0.00    +0.000 OA
BRANCH  11  12
ATOM     12  C   UNL     1      49.036   7.994  13.328  0.00  0.00    +0.000 C 
ATOM     13  C   UNL     1      48.781   8.576  11.921  0.00  0.00    +0.000 C 
ATOM     14  C   UNL     1      49.854   7.569  11.472  0.00  0.00    +0.000 C 
ATOM     15  N   UNL     1      49.499   6.757  12.655  0.00  0.00    +0.000 NA
ATOM     16  H   UNL     1      50.278   6.299  13.119  0.00  0.00    +0.000 HD
ENDBRANCH  11  12
ENDBRANCH   9  11
ENDBRANCH   1   4
BRANCH   1  17
ATOM     17  C   UNL     1      43.548   5.129  10.792  0.00  0.00    +0.000 C 
BRANCH  17  22
ATOM     18  C   UNL     1      46.363   2.022   7.839  0.00  0.00    +0.000 A 
ATOM     19  C   UNL     1      45.487   1.752   8.884  0.00  0.00    +0.000 A 
ATOM     20  C   UNL     1      44.802   2.808   9.484  0.00  0.00    +0.000 A 
ATOM     21  C   UNL     1      45.010   4.116   9.048  0.00  0.00    +0.000 A 
ATOM     22  N   UNL     1      44.361   5.198   9.583  0.00  0.00    +0.000 N 
ATOM     23  N   UNL     1      45.861   4.386   8.041  0.00  0.00    +0.000 NA
ATOM     24  C   UNL     1      46.522   3.345   7.463  0.00  0.00    +0.000 A 
ATOM     25  H   UNL     1      44.684   6.096   9.234  0.00  0.00    +0.000 HD
BRANCH  18  27
ATOM     26  N   UNL     1      46.906  -0.328   7.509  0.00  0.00    +0.000 N 
ATOM     27  C   UNL     1      47.143   0.972   7.154  0.00  0.00    +0.000 C 
ATOM     28  O   UNL     1      47.963   1.248   6.288  0.00  0.00    +0.000 OA
ATOM     29  H   UNL     1      47.394  -1.036   6.975  0.00  0.00    +0.000 HD
ATOM     30  H   UNL     1      46.091  -0.616   8.030  0.00  0.00    +0.000 HD
ENDBRANCH  18  27
ENDBRANCH  17  22
ENDBRANCH   1  17
TORSDOF 6
ENDMDL
MODEL 9
REMARK VINA RESULT:    -6.971      3.426      4.692
REMARK INTER + INTRA:         -10.268
REMARK INTER:                  -9.290
REMARK INTRA:                  -0.978
REMARK UNBOUND:                -0.852
REMARK  Name = 
REMARK  6 active torsions:
REMARK  status: ('A' for Active; 'I' for Inactive)
REMARK    1  A    between atoms: C_2  and  C_4
REMARK    2  A    between atoms: N_8  and  C_9
REMARK    3  A    between atoms: C_9  and  C_10
REMARK    4  A    between atoms: C_10  and  C_13
REMARK    5  A    between atoms: C_18  and  O_19
REMARK    6  A    between atoms: O_19  and  C_20
REMARK                            x       y       z     vdW  Elec       q    Type
REMARK                         _______ _______ _______ _____ _____    ______ ____
ROOT
ATOM      1  C   UNL     1      47.830   8.683  12.358  0.00  0.00    +0.000 C 
ATOM      2  F   UNL     1      48.296   7.707  11.527  0.00  0.00    +0.000 F 
ATOM      3  F   UNL     1      48.402   9.842  11.924  0.00  0.00    +0.000 F 
ENDROOT
BRANCH   1   4
ATOM      4  C   UNL     1      48.152   8.402  13.819  0.00  0.00    +0.000 A 
ATOM      5  C   UNL     1      48.334   9.446  14.734  0.00  0.00    +0.000 A 
ATOM      6  C   UNL     1      48.747   9.169  16.039  0.00  0.00    +0.000 A 
ATOM      7  C   UNL     1      48.974   7.849  16.442  0.00  0.00    +0.000 A 
ATOM      8 CL   UNL     1      49.535   7.578  18.052  0.00  0.00    +0.000 Cl
ATOM      9  C   UNL     1      48.763   6.790  15.550  0.00  0.00    +0.000 A 
ATOM     10  C   UNL     1      48.356   7.076  14.242  0.00  0.00    +0.000 A 
BRANCH   9  11
ATOM     11  O   UNL     1      49.025   5.512  15.990  0.00  0.00    +0.000 OA
BRANCH  11  12
ATOM     12  C   UNL     1      47.922   4.656  16.332  0.00  0.00    +0.000 C 
ATOM     13  C   UNL     1      47.567   4.502  17.827  0.00  0.00    +0.000 C 
ATOM     14  C   UNL     1      47.396   3.013  17.481  0.00  0.00    +0.000 C 
ATOM     15  N   UNL     1      48.329   3.230  16.356  0.00  0.00    +0.000 NA
ATOM     16  H   UNL     1      48.111   2.722  15.503  0.00  0.00    +0.000 HD
ENDBRANCH  11  12
ENDBRANCH   9  11
ENDBRANCH   1   4
BRANCH   1  17
ATOM     17  C   UNL     1      46.291   8.786  12.200  0.00  0.00    +0.000 C 
BRANCH  17  22
ATOM     18  C   UNL     1      44.337   4.101  11.474  0.00  0.00    +0.000 A 
ATOM     19  C   UNL     1      45.209   4.862  10.705  0.00  0.00    +0.000 A 
ATOM     20  C   UNL     1      45.624   6.106  11.181  0.00  0.00    +0.000 A 
ATOM     21  C   UNL     1      45.154   6.579  12.406  0.00  0.00    +0.000 A 
ATOM     22  N   UNL     1      45.531   7.784  12.938  0.00  0.00    +0.000 N 
ATOM     23  N   UNL     1      44.305   5.850  13.153  0.00  0.00    +0.000 NA
ATOM     24  C   UNL     1      43.910   4.638  12.677  0.00  0.00    +0.000 A 
ATOM     25  H   UNL     1      45.034   8.041  13.787  0.00  0.00    +0.000 HD
BRANCH  18  27
ATOM     26  N   UNL     1      44.391   2.219   9.931  0.00  0.00    +0.000 N 
ATOM     27  C   UNL     1      43.832   2.781  11.046  0.00  0.00    +0.000 C 
ATOM     28  O   UNL     1      42.956   2.198  11.671  0.00  0.00    +0.000 OA
ATOM     29  H   UNL     1      44.086   1.282   9.698  0.00  0.00    +0.000 HD
ATOM     30  H   UNL     1      45.261   2.540   9.530  0.00  0.00    +0.000 HD
ENDBRANCH  18  27
ENDBRANCH  17  22
ENDBRANCH   1  17
TORSDOF 6
ENDMDL
