MODEL 1
REMARK VINA RESULT:    -9.198      0.000      0.000
REMARK INTER + INTRA:         -14.727
REMARK INTER:                 -13.768
REMARK INTRA:                  -0.959
REMARK UNBOUND:                -0.959
REMARK  Name = 
REMARK  9 active torsions:
REMARK  status: ('A' for Active; 'I' for Inactive)
REMARK    1  A    between atoms: N_1  and  C_2
REMARK    2  A    between atoms: C_2  and  N_3
REMARK    3  A    between atoms: C_2  and  C_20
REMARK    4  A    between atoms: N_3  and  C_4
REMARK    5  A    between atoms: C_4  and  C_5
REMARK    6  A    between atoms: C_8  and  C_9
REMARK    7  A    between atoms: C_9  and  N_10
REMARK    8  A    between atoms: N_10  and  C_11
REMARK    9  A    between atoms: C_11  and  C_12
REMARK                            x       y       z     vdW  Elec       q    Type
REMARK                         _______ _______ _______ _____ _____    ______ ____
ROOT
ATOM      1  N   UNL     1      46.800   4.506  16.094  0.00  0.00    +0.000 NA
ATOM      2  H   UNL     1      46.848   5.307  16.731  0.00  0.00    +0.000 HD
ENDROOT
BRANCH   1   3
ATOM      3  C   UNL     1      47.553   3.446  16.730  0.00  0.00    +0.000 C 
BRANCH   3   4
ATOM      4  C   UNL     1      48.742   4.033  17.467  0.00  0.00    +0.000 A 
ATOM      5  C   UNL     1      48.749   5.218  18.196  0.00  0.00    +0.000 A 
ATOM      6  S   UNL     1      50.227   5.541  18.987  0.00  0.00    +0.000 S 
ATOM      7  C   UNL     1      50.917   4.102  18.400  0.00  0.00    +0.000 A 
ATOM      8  N   UNL     1      52.181   3.733  18.737  0.00  0.00    +0.000 NA
ATOM      9  C   UNL     1      52.556   2.608  18.228  0.00  0.00    +0.000 A 
ATOM     10  N   UNL     1      51.795   1.827  17.391  0.00  0.00    +0.000 N 
ATOM     11  C   UNL     1      50.527   2.182  16.983  0.00  0.00    +0.000 A 
ATOM     12  O   UNL     1      49.891   1.520  16.168  0.00  0.00    +0.000 OA
ATOM     13  C   UNL     1      50.043   3.414  17.578  0.00  0.00    +0.000 A 
ATOM     14  H   UNL     1      52.169   0.974  17.003  0.00  0.00    +0.000 HD
ENDBRANCH   3   4
BRANCH   3  15
ATOM     15  N   UNL     1      46.673   2.850  17.708  0.00  0.00    +0.000 NA
ATOM     16  H   UNL     1      45.788   3.341  17.701  0.00  0.00    +0.000 HD
ATOM     17  H   UNL     1      47.105   3.064  18.607  0.00  0.00    +0.000 HD
ENDBRANCH   3  15
ENDBRANCH   1   3
BRANCH   1  18
ATOM     18  C   UNL     1      47.391   4.956  14.829  0.00  0.00    +0.000 C 
BRANCH  18  19
ATOM     19  C   UNL     1      46.457   4.781  13.652  0.00  0.00    +0.000 A 
ATOM     20  C   UNL     1      46.162   3.510  13.144  0.00  0.00    +0.000 A 
ATOM     21  C   UNL     1      45.262   3.362  12.085  0.00  0.00    +0.000 A 
ATOM     22  C   UNL     1      44.627   4.477  11.519  0.00  0.00    +0.000 A 
ATOM     23  C   UNL     1      44.923   5.749  12.024  0.00  0.00    +0.000 A 
ATOM     24  C   UNL     1      45.831   5.896  13.076  0.00  0.00    +0.000 A 
BRANCH  22  25
ATOM     25  C   UNL     1      43.657   4.313  10.373  0.00  0.00    +0.000 C 
BRANCH  25  26
ATOM     26  N   UNL     1      44.145   3.331   9.407  0.00  0.00    +0.000 NA
ATOM     27  H   UNL     1      43.345   2.864   8.979  0.00  0.00    +0.000 HD
BRANCH  26  28
ATOM     28  C   UNL     1      44.945   3.967   8.364  0.00  0.00    +0.000 C 
BRANCH  28  29
ATOM     29  C   UNL     1      45.960   3.002   7.803  0.00  0.00    +0.000 A 
ATOM     30  C   UNL     1      46.910   3.419   6.867  0.00  0.00    +0.000 A 
ATOM     31  C   UNL     1      47.819   2.490   6.382  0.00  0.00    +0.000 A 
ATOM     32  N   UNL     1      47.848   1.195   6.760  0.00  0.00    +0.000 NA
ATOM     33  C   UNL     1      46.921   0.813   7.666  0.00  0.00    +0.000 A 
ATOM     34  C   UNL     1      45.975   1.663   8.209  0.00  0.00    +0.000 A 
ENDBRANCH  28  29
ENDBRANCH  26  28
ENDBRANCH  25  26
ENDBRANCH  22  25
ENDBRANCH  18  19
ENDBRANCH   1  18
TORSDOF 9
ENDMDL
MODEL 2
REMARK VINA RESULT:    -8.286      2.171      3.000
REMARK INTER + INTRA:         -13.362
REMARK INTER:                 -12.192
REMARK INTRA:                  -1.170
REMARK UNBOUND:                -0.959
REMARK  Name = 
REMARK  9 active torsions:
REMARK  status: ('A' for Active; 'I' for Inactive)
REMARK    1  A    between atoms: N_1  and  C_2
REMARK    2  A    between atoms: C_2  and  N_3
REMARK    3  A    between atoms: C_2  and  C_20
REMARK    4  A    between atoms: N_3  and  C_4
REMARK    5  A    between atoms: C_4  and  C_5
REMARK    6  A    between atoms: C_8  and  C_9
REMARK    7  A    between atoms: C_9  and  N_10
REMARK    8  A    between atoms: N_10  and  C_11
REMARK    9  A    between atoms: C_11  and  C_12
REMARK                            x       y       z     vdW  Elec       q    Type
REMARK                         _______ _______ _______ _____ _____    ______ ____
ROOT
ATOM      1  N   UNL     1      47.547   7.581  14.562  0.00  0.00    +0.000 NA
ATOM      2  H   UNL     1      47.197   8.283  15.221  0.00  0.00    +0.000 HD
ENDROOT
BRANCH   1   3
ATOM      3  C   UNL     1      48.950   7.404  14.877  0.00  0.00    +0.000 C 
BRANCH   3   4
ATOM      4  C   UNL     1      49.090   6.607  16.161  0.00  0.00    +0.000 A 
ATOM      5  C   UNL     1      49.812   6.990  17.286  0.00  0.00    +0.000 A 
ATOM      6  S   UNL     1      49.680   5.907  18.599  0.00  0.00    +0.000 S 
ATOM      7  C   UNL     1      48.638   4.887  17.723  0.00  0.00    +0.000 A 
ATOM      8  N   UNL     1      48.105   3.769  18.283  0.00  0.00    +0.000 NA
ATOM      9  C   UNL     1      47.321   3.110  17.499  0.00  0.00    +0.000 A 
ATOM     10  N   UNL     1      47.037   3.448  16.197  0.00  0.00    +0.000 N 
ATOM     11  C   UNL     1      47.590   4.545  15.572  0.00  0.00    +0.000 A 
ATOM     12  O   UNL     1      47.397   4.789  14.384  0.00  0.00    +0.000 OA
ATOM     13  C   UNL     1      48.435   5.348  16.436  0.00  0.00    +0.000 A 
ATOM     14  H   UNL     1      46.439   2.864  15.632  0.00  0.00    +0.000 HD
ENDBRANCH   3   4
BRANCH   3  15
ATOM     15  N   UNL     1      49.514   6.620  13.803  0.00  0.00    +0.000 NA
ATOM     16  H   UNL     1      48.833   5.936  13.499  0.00  0.00    +0.000 HD
ATOM     17  H   UNL     1      50.268   6.091  14.239  0.00  0.00    +0.000 HD
ENDBRANCH   3  15
ENDBRANCH   1   3
BRANCH   1  18
ATOM     18  C   UNL     1      47.321   8.132  13.221  0.00  0.00    +0.000 C 
BRANCH  18  19
ATOM     19  C   UNL     1      46.361   7.299  12.401  0.00  0.00    +0.000 A 
ATOM     20  C   UNL     1      46.789   6.624  11.250  0.00  0.00    +0.000 A 
ATOM     21  C   UNL     1      45.900   5.823  10.528  0.00  0.00    +0.000 A 
ATOM     22  C   UNL     1      44.570   5.665  10.947  0.00  0.00    +0.000 A 
ATOM     23  C   UNL     1      44.141   6.341  12.096  0.00  0.00    +0.000 A 
ATOM     24  C   UNL     1      45.028   7.151  12.810  0.00  0.00    +0.000 A 
BRANCH  22  25
ATOM     25  C   UNL     1      43.613   4.799  10.163  0.00  0.00    +0.000 C 
BRANCH  25  26
ATOM     26  N   UNL     1      44.262   4.236   8.980  0.00  0.00    +0.000 NA
ATOM     27  H   UNL     1      45.117   4.759   8.793  0.00  0.00    +0.000 HD
BRANCH  26  28
ATOM     28  C   UNL     1      44.591   2.827   9.176  0.00  0.00    +0.000 C 
BRANCH  28  29
ATOM     29  C   UNL     1      45.750   2.419   8.300  0.00  0.00    +0.000 A 
ATOM     30  C   UNL     1      46.477   3.369   7.579  0.00  0.00    +0.000 A 
ATOM     31  C   UNL     1      47.532   2.940   6.788  0.00  0.00    +0.000 A 
ATOM     32  N   UNL     1      47.908   1.649   6.668  0.00  0.00    +0.000 NA
ATOM     33  C   UNL     1      47.191   0.747   7.375  0.00  0.00    +0.000 A 
ATOM     34  C   UNL     1      46.126   1.076   8.192  0.00  0.00    +0.000 A 
ENDBRANCH  28  29
ENDBRANCH  26  28
ENDBRANCH  25  26
ENDBRANCH  22  25
ENDBRANCH  18  19
ENDBRANCH   1  18
TORSDOF 9
ENDMDL
MODEL 3
REMARK VINA RESULT:    -8.081      1.492      1.935
REMARK INTER + INTRA:         -13.055
REMARK INTER:                 -11.979
REMARK INTRA:                  -1.076
REMARK UNBOUND:                -0.959
REMARK  Name = 
REMARK  9 active torsions:
REMARK  status: ('A' for Active; 'I' for Inactive)
REMARK    1  A    between atoms: N_1  and  C_2
REMARK    2  A    between atoms: C_2  and  N_3
REMARK    3  A    between atoms: C_2  and  C_20
REMARK    4  A    between atoms: N_3  and  C_4
REMARK    5  A    between atoms: C_4  and  C_5
REMARK    6  A    between atoms: C_8  and  C_9
REMARK    7  A    between atoms: C_9  and  N_10
REMARK    8  A    between atoms: N_10  and  C_11
REMARK    9  A    between atoms: C_11  and  C_12
REMARK                            x       y       z     vdW  Elec       q    Type
REMARK                         _______ _______ _______ _____ _____    ______ ____
ROOT
ATOM      1  N   UNL     1      48.070   5.430  15.386  0.00  0.00    +0.000 NA
ATOM      2  H   UNL     1      47.113   5.129  15.596  0.00  0.00    +0.000 HD
ENDROOT
BRANCH   1   3
ATOM      3  C   UNL     1      48.520   6.164  16.551  0.00  0.00    +0.000 C 
BRANCH   3   4
ATOM      4  C   UNL     1      50.012   5.960  16.740  0.00  0.00    +0.000 A 
ATOM      5  C   UNL     1      50.999   6.923  16.560  0.00  0.00    +0.000 A 
ATOM      6  S   UNL     1      52.572   6.390  16.954  0.00  0.00    +0.000 S 
ATOM      7  C   UNL     1      51.998   4.852  17.396  0.00  0.00    +0.000 A 
ATOM      8  N   UNL     1      52.835   3.894  17.875  0.00  0.00    +0.000 NA
ATOM      9  C   UNL     1      52.248   2.787  18.183  0.00  0.00    +0.000 A 
ATOM     10  N   UNL     1      50.906   2.536  18.034  0.00  0.00    +0.000 N 
ATOM     11  C   UNL     1      50.026   3.458  17.508  0.00  0.00    +0.000 A 
ATOM     12  O   UNL     1      48.846   3.193  17.299  0.00  0.00    +0.000 OA
ATOM     13  C   UNL     1      50.634   4.739  17.201  0.00  0.00    +0.000 A 
ATOM     14  H   UNL     1      50.522   1.632  18.265  0.00  0.00    +0.000 HD
ENDBRANCH   3   4
BRANCH   3  15
ATOM     15  N   UNL     1      48.295   7.562  16.266  0.00  0.00    +0.000 NA
ATOM     16  H   UNL     1      48.301   7.700  15.263  0.00  0.00    +0.000 HD
ATOM     17  H   UNL     1      49.126   8.034  16.619  0.00  0.00    +0.000 HD
ENDBRANCH   3  15
ENDBRANCH   1   3
BRANCH   1  18
ATOM     18  C   UNL     1      47.980   6.259  14.180  0.00  0.00    +0.000 C 
BRANCH  18  19
ATOM     19  C   UNL     1      46.878   5.814  13.245  0.00  0.00    +0.000 A 
ATOM     20  C   UNL     1      46.554   6.557  12.102  0.00  0.00    +0.000 A 
ATOM     21  C   UNL     1      45.564   6.108  11.224  0.00  0.00    +0.000 A 
ATOM     22  C   UNL     1      44.885   4.903  11.459  0.00  0.00    +0.000 A 
ATOM     23  C   UNL     1      45.207   4.161  12.602  0.00  0.00    +0.000 A 
ATOM     24  C   UNL     1      46.191   4.616  13.485  0.00  0.00    +0.000 A 
BRANCH  22  25
ATOM     25  C   UNL     1      43.815   4.423  10.508  0.00  0.00    +0.000 C 
BRANCH  25  26
ATOM     26  N   UNL     1      44.310   3.340   9.660  0.00  0.00    +0.000 NA
ATOM     27  H   UNL     1      43.548   2.686   9.482  0.00  0.00    +0.000 HD
BRANCH  26  28
ATOM     28  C   UNL     1      44.816   3.850   8.389  0.00  0.00    +0.000 C 
BRANCH  28  29
ATOM     29  C   UNL     1      45.881   2.939   7.831  0.00  0.00    +0.000 A 
ATOM     30  C   UNL     1      46.819   3.409   6.907  0.00  0.00    +0.000 A 
ATOM     31  C   UNL     1      47.776   2.529   6.425  0.00  0.00    +0.000 A 
ATOM     32  N   UNL     1      47.864   1.233   6.793  0.00  0.00    +0.000 NA
ATOM     33  C   UNL     1      46.947   0.801   7.688  0.00  0.00    +0.000 A 
ATOM     34  C   UNL     1      45.957   1.600   8.228  0.00  0.00    +0.000 A 
ENDBRANCH  28  29
ENDBRANCH  26  28
ENDBRANCH  25  26
ENDBRANCH  22  25
ENDBRANCH  18  19
ENDBRANCH   1  18
TORSDOF 9
ENDMDL
MODEL 4
REMARK VINA RESULT:    -7.798      3.061      4.150
REMARK INTER + INTRA:         -12.631
REMARK INTER:                 -11.618
REMARK INTRA:                  -1.014
REMARK UNBOUND:                -0.959
REMARK  Name = 
REMARK  9 active torsions:
REMARK  status: ('A' for Active; 'I' for Inactive)
REMARK    1  A    between atoms: N_1  and  C_2
REMARK    2  A    between atoms: C_2  and  N_3
REMARK    3  A    between atoms: C_2  and  C_20
REMARK    4  A    between atoms: N_3  and  C_4
REMARK    5  A    between atoms: C_4  and  C_5
REMARK    6  A    between atoms: C_8  and  C_9
REMARK    7  A    between atoms: C_9  and  N_10
REMARK    8  A    between atoms: N_10  and  C_11
REMARK    9  A    between atoms: C_11  and  C_12
REMARK                            x       y       z     vdW  Elec       q    Type
REMARK                         _______ _______ _______ _____ _____    ______ ____
ROOT
ATOM      1  N   UNL     1      47.955   6.138  15.387  0.00  0.00    +0.000 NA
ATOM      2  H   UNL     1      47.212   6.804  15.622  0.00  0.00    +0.000 HD
ENDROOT
BRANCH   1   3
ATOM      3  C   UNL     1      49.070   6.463  16.253  0.00  0.00    +0.000 C 
BRANCH   3   4
ATOM      4  C   UNL     1      48.552   7.033  17.561  0.00  0.00    +0.000 A 
ATOM      5  C   UNL     1      48.443   6.346  18.766  0.00  0.00    +0.000 A 
ATOM      6  S   UNL     1      47.917   7.311  20.072  0.00  0.00    +0.000 S 
ATOM      7  C   UNL     1      47.827   8.693  19.085  0.00  0.00    +0.000 A 
ATOM      8  N   UNL     1      47.471   9.903  19.591  0.00  0.00    +0.000 NA
ATOM      9  C   UNL     1      47.466  10.857  18.722  0.00  0.00    +0.000 A 
ATOM     10  N   UNL     1      47.758  10.711  17.387  0.00  0.00    +0.000 N 
ATOM     11  C   UNL     1      48.077   9.496  16.819  0.00  0.00    +0.000 A 
ATOM     12  O   UNL     1      48.251   9.363  15.611  0.00  0.00    +0.000 OA
ATOM     13  C   UNL     1      48.151   8.405  17.772  0.00  0.00    +0.000 A 
ATOM     14  H   UNL     1      47.699  11.499  16.758  0.00  0.00    +0.000 HD
ENDBRANCH   3   4
BRANCH   3  15
ATOM     15  N   UNL     1      49.738   5.217  16.544  0.00  0.00    +0.000 NA
ATOM     16  H   UNL     1      49.742   4.641  15.711  0.00  0.00    +0.000 HD
ATOM     17  H   UNL     1      49.126   4.745  17.208  0.00  0.00    +0.000 HD
ENDBRANCH   3  15
ENDBRANCH   1   3
BRANCH   1  18
ATOM     18  C   UNL     1      48.249   6.343  13.965  0.00  0.00    +0.000 C 
BRANCH  18  19
ATOM     19  C   UNL     1      47.156   5.821  13.060  0.00  0.00    +0.000 A 
ATOM     20  C   UNL     1      46.480   4.630  13.353  0.00  0.00    +0.000 A 
ATOM     21  C   UNL     1      45.441   4.184  12.531  0.00  0.00    +0.000 A 
ATOM     22  C   UNL     1      45.044   4.925  11.407  0.00  0.00    +0.000 A 
ATOM     23  C   UNL     1      45.720   6.115  11.113  0.00  0.00    +0.000 A 
ATOM     24  C   UNL     1      46.766   6.554  11.930  0.00  0.00    +0.000 A 
BRANCH  22  25
ATOM     25  C   UNL     1      43.922   4.439  10.521  0.00  0.00    +0.000 C 
BRANCH  25  26
ATOM     26  N   UNL     1      44.376   3.368   9.637  0.00  0.00    +0.000 NA
ATOM     27  H   UNL     1      43.592   2.744   9.447  0.00  0.00    +0.000 HD
BRANCH  26  28
ATOM     28  C   UNL     1      44.884   3.900   8.376  0.00  0.00    +0.000 C 
BRANCH  28  29
ATOM     29  C   UNL     1      45.907   2.970   7.773  0.00  0.00    +0.000 A 
ATOM     30  C   UNL     1      46.723   3.383   6.717  0.00  0.00    +0.000 A 
ATOM     31  C   UNL     1      47.646   2.487   6.200  0.00  0.00    +0.000 A 
ATOM     32  N   UNL     1      47.811   1.227   6.655  0.00  0.00    +0.000 NA
ATOM     33  C   UNL     1      47.012   0.848   7.677  0.00  0.00    +0.000 A 
ATOM     34  C   UNL     1      46.065   1.668   8.261  0.00  0.00    +0.000 A 
ENDBRANCH  28  29
ENDBRANCH  26  28
ENDBRANCH  25  26
ENDBRANCH  22  25
ENDBRANCH  18  19
ENDBRANCH   1  18
TORSDOF 9
ENDMDL
MODEL 5
REMARK VINA RESULT:    -7.782      2.642      3.580
REMARK INTER + INTRA:         -12.607
REMARK INTER:                 -11.715
REMARK INTRA:                  -0.892
REMARK UNBOUND:                -0.959
REMARK  Name = 
REMARK  9 active torsions:
REMARK  status: ('A' for Active; 'I' for Inactive)
REMARK    1  A    between atoms: N_1  and  C_2
REMARK    2  A    between atoms: C_2  and  N_3
REMARK    3  A    between atoms: C_2  and  C_20
REMARK    4  A    between atoms: N_3  and  C_4
REMARK    5  A    between atoms: C_4  and  C_5
REMARK    6  A    between atoms: C_8  and  C_9
REMARK    7  A    between atoms: C_9  and  N_10
REMARK    8  A    between atoms: N_10  and  C_11
REMARK    9  A    between atoms: C_11  and  C_12
REMARK                            x       y       z     vdW  Elec       q    Type
REMARK                         _______ _______ _______ _____ _____    ______ ____
ROOT
ATOM      1  N   UNL     1      47.885   6.997  14.965  0.00  0.00    +0.000 NA
ATOM      2  H   UNL     1      47.646   7.956  14.696  0.00  0.00    +0.000 HD
ENDROOT
BRANCH   1   3
ATOM      3  C   UNL     1      48.964   7.110  15.924  0.00  0.00    +0.000 C 
BRANCH   3   4
ATOM      4  C   UNL     1      48.706   6.181  17.096  0.00  0.00    +0.000 A 
ATOM      5  C   UNL     1      48.950   4.811  17.124  0.00  0.00    +0.000 A 
ATOM      6  S   UNL     1      48.643   4.080  18.635  0.00  0.00    +0.000 S 
ATOM      7  C   UNL     1      48.184   5.567  19.322  0.00  0.00    +0.000 A 
ATOM      8  N   UNL     1      47.831   5.664  20.631  0.00  0.00    +0.000 NA
ATOM      9  C   UNL     1      47.526   6.860  21.008  0.00  0.00    +0.000 A 
ATOM     10  N   UNL     1      47.516   7.966  20.193  0.00  0.00    +0.000 N 
ATOM     11  C   UNL     1      47.820   7.909  18.850  0.00  0.00    +0.000 A 
ATOM     12  O   UNL     1      47.724   8.887  18.114  0.00  0.00    +0.000 OA
ATOM     13  C   UNL     1      48.224   6.592  18.395  0.00  0.00    +0.000 A 
ATOM     14  H   UNL     1      47.233   8.866  20.551  0.00  0.00    +0.000 HD
ENDBRANCH   3   4
BRANCH   3  15
ATOM     15  N   UNL     1      50.158   6.656  15.251  0.00  0.00    +0.000 NA
ATOM     16  H   UNL     1      50.386   5.724  15.572  0.00  0.00    +0.000 HD
ATOM     17  H   UNL     1      50.898   7.262  15.603  0.00  0.00    +0.000 HD
ENDBRANCH   3  15
ENDBRANCH   1   3
BRANCH   1  18
ATOM     18  C   UNL     1      48.280   6.315  13.728  0.00  0.00    +0.000 C 
BRANCH  18  19
ATOM     19  C   UNL     1      47.095   5.833  12.921  0.00  0.00    +0.000 A 
ATOM     20  C   UNL     1      46.623   6.560  11.821  0.00  0.00    +0.000 A 
ATOM     21  C   UNL     1      45.556   6.077  11.059  0.00  0.00    +0.000 A 
ATOM     22  C   UNL     1      44.945   4.853  11.369  0.00  0.00    +0.000 A 
ATOM     23  C   UNL     1      45.415   4.126  12.470  0.00  0.00    +0.000 A 
ATOM     24  C   UNL     1      46.476   4.615  13.237  0.00  0.00    +0.000 A 
BRANCH  22  25
ATOM     25  C   UNL     1      43.791   4.336  10.543  0.00  0.00    +0.000 C 
BRANCH  25  26
ATOM     26  N   UNL     1      44.232   3.300   9.612  0.00  0.00    +0.000 NA
ATOM     27  H   UNL     1      43.427   2.733   9.344  0.00  0.00    +0.000 HD
BRANCH  26  28
ATOM     28  C   UNL     1      44.830   3.883   8.415  0.00  0.00    +0.000 C 
BRANCH  28  29
ATOM     29  C   UNL     1      45.872   2.960   7.831  0.00  0.00    +0.000 A 
ATOM     30  C   UNL     1      46.767   3.409   6.856  0.00  0.00    +0.000 A 
ATOM     31  C   UNL     1      47.704   2.519   6.353  0.00  0.00    +0.000 A 
ATOM     32  N   UNL     1      47.810   1.233   6.747  0.00  0.00    +0.000 NA
ATOM     33  C   UNL     1      46.934   0.820   7.690  0.00  0.00    +0.000 A 
ATOM     34  C   UNL     1      45.967   1.631   8.255  0.00  0.00    +0.000 A 
ENDBRANCH  28  29
ENDBRANCH  26  28
ENDBRANCH  25  26
ENDBRANCH  22  25
ENDBRANCH  18  19
ENDBRANCH   1  18
TORSDOF 9
ENDMDL
MODEL 6
REMARK VINA RESULT:    -7.715      2.404      3.306
REMARK INTER + INTRA:         -12.507
REMARK INTER:                 -11.301
REMARK INTRA:                  -1.206
REMARK UNBOUND:                -0.959
REMARK  Name = 
REMARK  9 active torsions:
REMARK  status: ('A' for Active; 'I' for Inactive)
REMARK    1  A    between atoms: N_1  and  C_2
REMARK    2  A    between atoms: C_2  and  N_3
REMARK    3  A    between atoms: C_2  and  C_20
REMARK    4  A    between atoms: N_3  and  C_4
REMARK    5  A    between atoms: C_4  and  C_5
REMARK    6  A    between atoms: C_8  and  C_9
REMARK    7  A    between atoms: C_9  and  N_10
REMARK    8  A    between atoms: N_10  and  C_11
REMARK    9  A    between atoms: C_11  and  C_12
REMARK                            x       y       z     vdW  Elec       q    Type
REMARK                         _______ _______ _______ _____ _____    ______ ____
ROOT
ATOM      1  N   UNL     1      48.614   6.550  14.309  0.00  0.00    +0.000 NA
ATOM      2  H   UNL     1      47.823   6.432  14.950  0.00  0.00    +0.000 HD
ENDROOT
BRANCH   1   3
ATOM      3  C   UNL     1      49.488   7.523  14.931  0.00  0.00    +0.000 C 
BRANCH   3   4
ATOM      4  C   UNL     1      48.938   7.909  16.292  0.00  0.00    +0.000 A 
ATOM      5  C   UNL     1      48.622   9.197  16.710  0.00  0.00    +0.000 A 
ATOM      6  S   UNL     1      47.928   9.272  18.268  0.00  0.00    +0.000 S 
ATOM      7  C   UNL     1      48.008   7.582  18.443  0.00  0.00    +0.000 A 
ATOM      8  N   UNL     1      47.532   6.962  19.555  0.00  0.00    +0.000 NA
ATOM      9  C   UNL     1      47.648   5.677  19.533  0.00  0.00    +0.000 A 
ATOM     10  N   UNL     1      48.218   4.953  18.513  0.00  0.00    +0.000 N 
ATOM     11  C   UNL     1      48.756   5.540  17.389  0.00  0.00    +0.000 A 
ATOM     12  O   UNL     1      49.339   4.891  16.525  0.00  0.00    +0.000 OA
ATOM     13  C   UNL     1      48.596   6.982  17.346  0.00  0.00    +0.000 A 
ATOM     14  H   UNL     1      48.304   3.950  18.581  0.00  0.00    +0.000 HD
ENDBRANCH   3   4
BRANCH   3  15
ATOM     15  N   UNL     1      50.756   6.861  15.135  0.00  0.00    +0.000 NA
ATOM     16  H   UNL     1      51.505   7.498  14.895  0.00  0.00    +0.000 HD
ATOM     17  H   UNL     1      50.778   6.125  14.430  0.00  0.00    +0.000 HD
ENDBRANCH   3  15
ENDBRANCH   1   3
BRANCH   1  18
ATOM     18  C   UNL     1      48.044   7.014  13.040  0.00  0.00    +0.000 C 
BRANCH  18  19
ATOM     19  C   UNL     1      46.943   6.111  12.528  0.00  0.00    +0.000 A 
ATOM     20  C   UNL     1      46.438   5.067  13.314  0.00  0.00    +0.000 A 
ATOM     21  C   UNL     1      45.390   4.271  12.844  0.00  0.00    +0.000 A 
ATOM     22  C   UNL     1      44.813   4.507  11.588  0.00  0.00    +0.000 A 
ATOM     23  C   UNL     1      45.318   5.550  10.801  0.00  0.00    +0.000 A 
ATOM     24  C   UNL     1      46.374   6.338  11.267  0.00  0.00    +0.000 A 
BRANCH  22  25
ATOM     25  C   UNL     1      43.682   3.643  11.084  0.00  0.00    +0.000 C 
BRANCH  25  26
ATOM     26  N   UNL     1      43.826   3.366   9.656  0.00  0.00    +0.000 NA
ATOM     27  H   UNL     1      44.343   4.132   9.223  0.00  0.00    +0.000 HD
BRANCH  26  28
ATOM     28  C   UNL     1      44.541   2.113   9.429  0.00  0.00    +0.000 C 
BRANCH  28  29
ATOM     29  C   UNL     1      45.657   2.304   8.432  0.00  0.00    +0.000 A 
ATOM     30  C   UNL     1      45.907   3.555   7.861  0.00  0.00    +0.000 A 
ATOM     31  C   UNL     1      46.945   3.675   6.949  0.00  0.00    +0.000 A 
ATOM     32  N   UNL     1      47.739   2.651   6.572  0.00  0.00    +0.000 NA
ATOM     33  C   UNL     1      47.480   1.450   7.136  0.00  0.00    +0.000 A 
ATOM     34  C   UNL     1      46.471   1.231   8.056  0.00  0.00    +0.000 A 
ENDBRANCH  28  29
ENDBRANCH  26  28
ENDBRANCH  25  26
ENDBRANCH  22  25
ENDBRANCH  18  19
ENDBRANCH   1  18
TORSDOF 9
ENDMDL
MODEL 7
REMARK VINA RESULT:    -7.245      3.547      8.902
REMARK INTER + INTRA:         -11.803
REMARK INTER:                 -10.453
REMARK INTRA:                  -1.350
REMARK UNBOUND:                -0.959
REMARK  Name = 
REMARK  9 active torsions:
REMARK  status: ('A' for Active; 'I' for Inactive)
REMARK    1  A    between atoms: N_1  and  C_2
REMARK    2  A    between atoms: C_2  and  N_3
REMARK    3  A    between atoms: C_2  and  C_20
REMARK    4  A    between atoms: N_3  and  C_4
REMARK    5  A    between atoms: C_4  and  C_5
REMARK    6  A    between atoms: C_8  and  C_9
REMARK    7  A    between atoms: C_9  and  N_10
REMARK    8  A    between atoms: N_10  and  C_11
REMARK    9  A    between atoms: C_11  and  C_12
REMARK                            x       y       z     vdW  Elec       q    Type
REMARK                         _______ _______ _______ _____ _____    ______ ____
ROOT
ATOM      1  N   UNL     1      44.857   7.163  12.636  0.00  0.00    +0.000 NA
ATOM      2  H   UNL     1      45.464   6.422  13.001  0.00  0.00    +0.000 HD
ENDROOT
BRANCH   1   3
ATOM      3  C   UNL     1      44.487   6.752  11.298  0.00  0.00    +0.000 C 
BRANCH   3   4
ATOM      4  C   UNL     1      44.267   5.251  11.266  0.00  0.00    +0.000 A 
ATOM      5  C   UNL     1      43.527   4.513  12.184  0.00  0.00    +0.000 A 
ATOM      6  S   UNL     1      43.394   2.855  11.800  0.00  0.00    +0.000 S 
ATOM      7  C   UNL     1      44.309   3.056  10.380  0.00  0.00    +0.000 A 
ATOM      8  N   UNL     1      44.547   2.016   9.538  0.00  0.00    +0.000 NA
ATOM      9  C   UNL     1      45.240   2.330   8.495  0.00  0.00    +0.000 A 
ATOM     10  N   UNL     1      45.741   3.582   8.227  0.00  0.00    +0.000 N 
ATOM     11  C   UNL     1      45.566   4.655   9.074  0.00  0.00    +0.000 A 
ATOM     12  O   UNL     1      46.090   5.745   8.866  0.00  0.00    +0.000 OA
ATOM     13  C   UNL     1      44.742   4.360  10.232  0.00  0.00    +0.000 A 
ATOM     14  H   UNL     1      46.305   3.745   7.406  0.00  0.00    +0.000 HD
ENDBRANCH   3   4
BRANCH   3  15
ATOM     15  N   UNL     1      43.227   7.393  11.007  0.00  0.00    +0.000 NA
ATOM     16  H   UNL     1      42.472   6.755  11.224  0.00  0.00    +0.000 HD
ATOM     17  H   UNL     1      43.220   7.500   9.993  0.00  0.00    +0.000 HD
ENDBRANCH   3  15
ENDBRANCH   1   3
BRANCH   1  18
ATOM     18  C   UNL     1      45.655   8.393  12.663  0.00  0.00    +0.000 C 
BRANCH  18  19
ATOM     19  C   UNL     1      47.010   8.197  13.307  0.00  0.00    +0.000 A 
ATOM     20  C   UNL     1      47.378   8.913  14.453  0.00  0.00    +0.000 A 
ATOM     21  C   UNL     1      48.616   8.688  15.062  0.00  0.00    +0.000 A 
ATOM     22  C   UNL     1      49.507   7.734  14.549  0.00  0.00    +0.000 A 
ATOM     23  C   UNL     1      49.141   7.019  13.402  0.00  0.00    +0.000 A 
ATOM     24  C   UNL     1      47.907   7.253  12.788  0.00  0.00    +0.000 A 
BRANCH  22  25
ATOM     25  C   UNL     1      50.844   7.495  15.210  0.00  0.00    +0.000 C 
BRANCH  25  26
ATOM     26  N   UNL     1      50.868   6.205  15.897  0.00  0.00    +0.000 NA
ATOM     27  H   UNL     1      51.837   5.963  16.108  0.00  0.00    +0.000 HD
BRANCH  26  28
ATOM     28  C   UNL     1      50.102   6.251  17.138  0.00  0.00    +0.000 C 
BRANCH  28  29
ATOM     29  C   UNL     1      49.101   5.123  17.194  0.00  0.00    +0.000 A 
ATOM     30  C   UNL     1      49.179   4.139  18.183  0.00  0.00    +0.000 A 
ATOM     31  C   UNL     1      48.235   3.124  18.187  0.00  0.00    +0.000 A 
ATOM     32  N   UNL     1      47.232   3.022  17.289  0.00  0.00    +0.000 NA
ATOM     33  C   UNL     1      47.175   3.985  16.342  0.00  0.00    +0.000 A 
ATOM     34  C   UNL     1      48.067   5.037  16.255  0.00  0.00    +0.000 A 
ENDBRANCH  28  29
ENDBRANCH  26  28
ENDBRANCH  25  26
ENDBRANCH  22  25
ENDBRANCH  18  19
ENDBRANCH   1  18
TORSDOF 9
ENDMDL
MODEL 8
REMARK VINA RESULT:    -7.197      3.190      9.289
REMARK INTER + INTRA:         -11.731
REMARK INTER:                 -10.701
REMARK INTRA:                  -1.030
REMARK UNBOUND:                -0.959
REMARK  Name = 
REMARK  9 active torsions:
REMARK  status: ('A' for Active; 'I' for Inactive)
REMARK    1  A    between atoms: N_1  and  C_2
REMARK    2  A    between atoms: C_2  and  N_3
REMARK    3  A    between atoms: C_2  and  C_20
REMARK    4  A    between atoms: N_3  and  C_4
REMARK    5  A    between atoms: C_4  and  C_5
REMARK    6  A    between atoms: C_8  and  C_9
REMARK    7  A    between atoms: C_9  and  N_10
REMARK    8  A    between atoms: N_10  and  C_11
REMARK    9  A    between atoms: C_11  and  C_12
REMARK                            x       y       z     vdW  Elec       q    Type
REMARK                         _______ _______ _______ _____ _____    ______ ____
ROOT
ATOM      1  N   UNL     1      45.829   7.060  12.551  0.00  0.00    +0.000 NA
ATOM      2  H   UNL     1      45.261   6.670  13.310  0.00  0.00    +0.000 HD
ENDROOT
BRANCH   1   3
ATOM      3  C   UNL     1      45.105   6.779  11.328  0.00  0.00    +0.000 C 
BRANCH   3   4
ATOM      4  C   UNL     1      44.628   5.339  11.334  0.00  0.00    +0.000 A 
ATOM      5  C   UNL     1      43.888   4.726  12.340  0.00  0.00    +0.000 A 
ATOM      6  S   UNL     1      43.428   3.121  11.986  0.00  0.00    +0.000 S 
ATOM      7  C   UNL     1      44.187   3.182  10.465  0.00  0.00    +0.000 A 
ATOM      8  N   UNL     1      44.141   2.128   9.608  0.00  0.00    +0.000 NA
ATOM      9  C   UNL     1      44.747   2.333   8.488  0.00  0.00    +0.000 A 
ATOM     10  N   UNL     1      45.419   3.483   8.152  0.00  0.00    +0.000 N 
ATOM     11  C   UNL     1      45.534   4.559   9.006  0.00  0.00    +0.000 A 
ATOM     12  O   UNL     1      46.208   5.547   8.729  0.00  0.00    +0.000 OA
ATOM     13  C   UNL     1      44.817   4.394  10.256  0.00  0.00    +0.000 A 
ATOM     14  H   UNL     1      45.900   3.559   7.268  0.00  0.00    +0.000 HD
ENDBRANCH   3   4
BRANCH   3  15
ATOM     15  N   UNL     1      43.941   7.634  11.338  0.00  0.00    +0.000 NA
ATOM     16  H   UNL     1      44.238   8.599  11.413  0.00  0.00    +0.000 HD
ATOM     17  H   UNL     1      43.470   7.417  12.215  0.00  0.00    +0.000 HD
ENDBRANCH   3  15
ENDBRANCH   1   3
BRANCH   1  18
ATOM     18  C   UNL     1      47.126   6.380  12.623  0.00  0.00    +0.000 C 
BRANCH  18  19
ATOM     19  C   UNL     1      47.416   5.817  13.997  0.00  0.00    +0.000 A 
ATOM     20  C   UNL     1      46.841   4.613  14.423  0.00  0.00    +0.000 A 
ATOM     21  C   UNL     1      47.154   4.084  15.678  0.00  0.00    +0.000 A 
ATOM     22  C   UNL     1      48.059   4.736  16.529  0.00  0.00    +0.000 A 
ATOM     23  C   UNL     1      48.634   5.940  16.104  0.00  0.00    +0.000 A 
ATOM     24  C   UNL     1      48.311   6.474  14.854  0.00  0.00    +0.000 A 
BRANCH  22  25
ATOM     25  C   UNL     1      48.394   4.161  17.885  0.00  0.00    +0.000 C 
BRANCH  25  26
ATOM     26  N   UNL     1      49.834   3.959  18.030  0.00  0.00    +0.000 NA
ATOM     27  H   UNL     1      50.046   3.795  19.014  0.00  0.00    +0.000 HD
BRANCH  26  28
ATOM     28  C   UNL     1      50.292   2.819  17.242  0.00  0.00    +0.000 C 
BRANCH  28  29
ATOM     29  C   UNL     1      51.608   2.298  17.766  0.00  0.00    +0.000 A 
ATOM     30  C   UNL     1      52.477   3.125  18.482  0.00  0.00    +0.000 A 
ATOM     31  C   UNL     1      53.674   2.595  18.939  0.00  0.00    +0.000 A 
ATOM     32  N   UNL     1      54.060   1.318  18.736  0.00  0.00    +0.000 NA
ATOM     33  C   UNL     1      53.204   0.535  18.042  0.00  0.00    +0.000 A 
ATOM     34  C   UNL     1      51.988   0.969  17.547  0.00  0.00    +0.000 A 
ENDBRANCH  28  29
ENDBRANCH  26  28
ENDBRANCH  25  26
ENDBRANCH  22  25
ENDBRANCH  18  19
ENDBRANCH   1  18
TORSDOF 9
ENDMDL
