MODEL 1
REMARK VINA RESULT:    -9.349      0.000      0.000
REMARK INTER + INTRA:         -13.430
REMARK INTER:                 -12.629
REMARK INTRA:                  -0.801
REMARK UNBOUND:                -0.801
REMARK  Name = 
REMARK  6 active torsions:
REMARK  status: ('A' for Active; 'I' for Inactive)
REMARK    1  A    between atoms: C_2  and  C_4
REMARK    2  A    between atoms: N_8  and  C_9
REMARK    3  A    between atoms: C_9  and  C_10
REMARK    4  A    between atoms: C_10  and  C_13
REMARK    5  A    between atoms: C_17  and  N_18
REMARK    6  A    between atoms: N_18  and  C_19
REMARK                            x       y       z     vdW  Elec       q    Type
REMARK                         _______ _______ _______ _____ _____    ______ ____
ROOT
ATOM      1  C   UNL     1      43.502   5.751  11.961  0.00  0.00    +0.000 C 
ATOM      2  F   UNL     1      43.100   6.911  11.347  0.00  0.00    +0.000 F 
ATOM      3  F   UNL     1      42.627   5.607  13.006  0.00  0.00    +0.000 F 
ENDROOT
BRANCH   1   4
ATOM      4  C   UNL     1      44.925   5.838  12.453  0.00  0.00    +0.000 A 
ATOM      5  C   UNL     1      45.800   6.815  11.964  0.00  0.00    +0.000 A 
ATOM      6  C   UNL     1      47.122   6.861  12.407  0.00  0.00    +0.000 A 
ATOM      7  C   UNL     1      47.587   5.925  13.335  0.00  0.00    +0.000 A 
ATOM      8  C   UNL     1      46.725   4.970  13.878  0.00  0.00    +0.000 A 
ATOM      9  C   UNL     1      45.394   4.949  13.425  0.00  0.00    +0.000 A 
ATOM     10  F   UNL     1      44.560   4.021  13.921  0.00  0.00    +0.000 F 
BRANCH   8  11
ATOM     11  N   UNL     1      47.183   3.959  14.744  0.00  0.00    +0.000 N 
ATOM     12  H   UNL     1      47.360   3.065  14.291  0.00  0.00    +0.000 HD
BRANCH  11  13
ATOM     13  C   UNL     1      47.245   3.994  16.172  0.00  0.00    +0.000 C 
ATOM     14  C   UNL     1      48.349   4.925  16.717  0.00  0.00    +0.000 C 
ATOM     15  N   UNL     1      48.672   3.890  17.732  0.00  0.00    +0.000 NA
ATOM     16  C   UNL     1      48.078   2.873  16.822  0.00  0.00    +0.000 C 
ATOM     17  H   UNL     1      48.144   4.008  18.598  0.00  0.00    +0.000 HD
ENDBRANCH  11  13
ENDBRANCH   8  11
ENDBRANCH   1   4
BRANCH   1  18
ATOM     18  C   UNL     1      43.235   4.582  10.974  0.00  0.00    +0.000 C 
BRANCH  18  23
ATOM     19  C   UNL     1      46.441   2.311   7.714  0.00  0.00    +0.000 A 
ATOM     20  C   UNL     1      45.615   1.759   8.685  0.00  0.00    +0.000 A 
ATOM     21  C   UNL     1      44.708   2.580   9.354  0.00  0.00    +0.000 A 
ATOM     22  C   UNL     1      44.654   3.941   9.058  0.00  0.00    +0.000 A 
ATOM     23  N   UNL     1      43.720   4.803   9.604  0.00  0.00    +0.000 N 
ATOM     24  N   UNL     1      45.482   4.492   8.152  0.00  0.00    +0.000 NA
ATOM     25  C   UNL     1      46.358   3.678   7.502  0.00  0.00    +0.000 A 
ATOM     26  H   UNL     1      43.990   5.755   9.357  0.00  0.00    +0.000 HD
BRANCH  19  28
ATOM     27  N   UNL     1      48.559   2.102   6.551  0.00  0.00    +0.000 N 
ATOM     28  C   UNL     1      47.380   1.506   6.907  0.00  0.00    +0.000 C 
ATOM     29  O   UNL     1      47.137   0.345   6.605  0.00  0.00    +0.000 OA
ATOM     30  H   UNL     1      49.248   1.504   6.109  0.00  0.00    +0.000 HD
ATOM     31  H   UNL     1      48.898   2.941   6.999  0.00  0.00    +0.000 HD
ENDBRANCH  19  28
ENDBRANCH  18  23
ENDBRANCH   1  18
TORSDOF 6
ENDMDL
MODEL 2
REMARK VINA RESULT:    -9.149      1.688      2.509
REMARK INTER + INTRA:         -13.159
REMARK INTER:                 -12.240
REMARK INTRA:                  -0.918
REMARK UNBOUND:                -0.801
REMARK  Name = 
REMARK  6 active torsions:
REMARK  status: ('A' for Active; 'I' for Inactive)
REMARK    1  A    between atoms: C_2  and  C_4
REMARK    2  A    between atoms: N_8  and  C_9
REMARK    3  A    between atoms: C_9  and  C_10
REMARK    4  A    between atoms: C_10  and  C_13
REMARK    5  A    between atoms: C_17  and  N_18
REMARK    6  A    between atoms: N_18  and  C_19
REMARK                            x       y       z     vdW  Elec       q    Type
REMARK                         _______ _______ _______ _____ _____    ______ ____
ROOT
ATOM      1  C   UNL     1      43.624   5.426  12.131  0.00  0.00    +0.000 C 
ATOM      2  F   UNL     1      43.653   6.723  11.685  0.00  0.00    +0.000 F 
ATOM      3  F   UNL     1      42.626   5.419  13.070  0.00  0.00    +0.000 F 
ENDROOT
BRANCH   1   4
ATOM      4  C   UNL     1      44.941   5.009  12.738  0.00  0.00    +0.000 A 
ATOM      5  C   UNL     1      45.332   3.665  12.760  0.00  0.00    +0.000 A 
ATOM      6  C   UNL     1      46.538   3.293  13.354  0.00  0.00    +0.000 A 
ATOM      7  C   UNL     1      47.361   4.258  13.941  0.00  0.00    +0.000 A 
ATOM      8  C   UNL     1      47.022   5.612  13.891  0.00  0.00    +0.000 A 
ATOM      9  C   UNL     1      45.807   5.965  13.279  0.00  0.00    +0.000 A 
ATOM     10  F   UNL     1      45.457   7.261  13.243  0.00  0.00    +0.000 F 
BRANCH   8  11
ATOM     11  N   UNL     1      47.783   6.596  14.550  0.00  0.00    +0.000 N 
ATOM     12  H   UNL     1      47.572   6.696  15.540  0.00  0.00    +0.000 HD
BRANCH  11  13
ATOM     13  C   UNL     1      48.654   7.565  13.962  0.00  0.00    +0.000 C 
ATOM     14  C   UNL     1      49.310   7.085  12.649  0.00  0.00    +0.000 C 
ATOM     15  N   UNL     1      50.586   7.695  13.107  0.00  0.00    +0.000 NA
ATOM     16  C   UNL     1      50.096   7.569  14.506  0.00  0.00    +0.000 C 
ATOM     17  H   UNL     1      50.691   8.665  12.805  0.00  0.00    +0.000 HD
ENDBRANCH  11  13
ENDBRANCH   8  11
ENDBRANCH   1   4
BRANCH   1  18
ATOM     18  C   UNL     1      43.151   4.535  10.951  0.00  0.00    +0.000 C 
BRANCH  18  23
ATOM     19  C   UNL     1      46.525   2.534   7.684  0.00  0.00    +0.000 A 
ATOM     20  C   UNL     1      45.632   1.904   8.541  0.00  0.00    +0.000 A 
ATOM     21  C   UNL     1      44.695   2.673   9.232  0.00  0.00    +0.000 A 
ATOM     22  C   UNL     1      44.680   4.058   9.072  0.00  0.00    +0.000 A 
ATOM     23  N   UNL     1      43.726   4.880   9.643  0.00  0.00    +0.000 N 
ATOM     24  N   UNL     1      45.572   4.679   8.279  0.00  0.00    +0.000 NA
ATOM     25  C   UNL     1      46.476   3.916   7.606  0.00  0.00    +0.000 A 
ATOM     26  H   UNL     1      44.024   5.847   9.510  0.00  0.00    +0.000 HD
BRANCH  19  28
ATOM     27  N   UNL     1      48.589   2.492   6.411  0.00  0.00    +0.000 N 
ATOM     28  C   UNL     1      47.502   1.793   6.859  0.00  0.00    +0.000 C 
ATOM     29  O   UNL     1      47.371   0.600   6.622  0.00  0.00    +0.000 OA
ATOM     30  H   UNL     1      49.314   1.950   5.956  0.00  0.00    +0.000 HD
ATOM     31  H   UNL     1      48.859   3.384   6.802  0.00  0.00    +0.000 HD
ENDBRANCH  19  28
ENDBRANCH  18  23
ENDBRANCH   1  18
TORSDOF 6
ENDMDL
MODEL 3
REMARK VINA RESULT:    -8.824      2.422      4.019
REMARK INTER + INTRA:         -12.721
REMARK INTER:                 -11.681
REMARK INTRA:                  -1.039
REMARK UNBOUND:                -0.801
REMARK  Name = 
REMARK  6 active torsions:
REMARK  status: ('A' for Active; 'I' for Inactive)
REMARK    1  A    between atoms: C_2  and  C_4
REMARK    2  A    between atoms: N_8  and  C_9
REMARK    3  A    between atoms: C_9  and  C_10
REMARK    4  A    between atoms: C_10  and  C_13
REMARK    5  A    between atoms: C_17  and  N_18
REMARK    6  A    between atoms: N_18  and  C_19
REMARK                            x       y       z     vdW  Elec       q    Type
REMARK                         _______ _______ _______ _____ _____    ______ ____
ROOT
ATOM      1  C   UNL     1      43.446   4.476  12.657  0.00  0.00    +0.000 C 
ATOM      2  F   UNL     1      42.410   5.360  12.827  0.00  0.00    +0.000 F 
ATOM      3  F   UNL     1      43.228   3.519  13.613  0.00  0.00    +0.000 F 
ENDROOT
BRANCH   1   4
ATOM      4  C   UNL     1      44.788   5.137  12.849  0.00  0.00    +0.000 A 
ATOM      5  C   UNL     1      45.788   4.531  13.619  0.00  0.00    +0.000 A 
ATOM      6  C   UNL     1      47.013   5.171  13.813  0.00  0.00    +0.000 A 
ATOM      7  C   UNL     1      47.248   6.427  13.249  0.00  0.00    +0.000 A 
ATOM      8  C   UNL     1      46.289   7.035  12.435  0.00  0.00    +0.000 A 
ATOM      9  C   UNL     1      45.067   6.368  12.245  0.00  0.00    +0.000 A 
ATOM     10  F   UNL     1      44.126   6.950  11.483  0.00  0.00    +0.000 F 
BRANCH   8  11
ATOM     11  N   UNL     1      46.459   8.337  11.927  0.00  0.00    +0.000 N 
ATOM     12  H   UNL     1      47.044   8.391  11.097  0.00  0.00    +0.000 HD
BRANCH  11  13
ATOM     13  C   UNL     1      46.068   9.570  12.536  0.00  0.00    +0.000 C 
ATOM     14  C   UNL     1      44.694  10.085  12.055  0.00  0.00    +0.000 C 
ATOM     15  N   UNL     1      45.267  11.455  12.002  0.00  0.00    +0.000 NA
ATOM     16  C   UNL     1      46.614  10.841  11.858  0.00  0.00    +0.000 C 
ATOM     17  H   UNL     1      45.152  11.966  12.880  0.00  0.00    +0.000 HD
ENDBRANCH  11  13
ENDBRANCH   8  11
ENDBRANCH   1   4
BRANCH   1  18
ATOM     18  C   UNL     1      43.259   3.796  11.273  0.00  0.00    +0.000 C 
BRANCH  18  23
ATOM     19  C   UNL     1      46.467   2.896   7.405  0.00  0.00    +0.000 A 
ATOM     20  C   UNL     1      46.003   4.101   7.918  0.00  0.00    +0.000 A 
ATOM     21  C   UNL     1      45.245   4.095   9.089  0.00  0.00    +0.000 A 
ATOM     22  C   UNL     1      44.945   2.886   9.716  0.00  0.00    +0.000 A 
ATOM     23  N   UNL     1      44.283   2.801  10.927  0.00  0.00    +0.000 N 
ATOM     24  N   UNL     1      45.351   1.712   9.200  0.00  0.00    +0.000 NA
ATOM     25  C   UNL     1      46.096   1.733   8.061  0.00  0.00    +0.000 A 
ATOM     26  H   UNL     1      44.048   1.821  11.088  0.00  0.00    +0.000 HD
BRANCH  19  28
ATOM     27  N   UNL     1      48.664   2.570   6.430  0.00  0.00    +0.000 N 
ATOM     28  C   UNL     1      47.335   2.813   6.213  0.00  0.00    +0.000 C 
ATOM     29  O   UNL     1      46.883   2.913   5.080  0.00  0.00    +0.000 OA
ATOM     30  H   UNL     1      49.227   2.389   5.607  0.00  0.00    +0.000 HD
ATOM     31  H   UNL     1      49.014   2.224   7.312  0.00  0.00    +0.000 HD
ENDBRANCH  19  28
ENDBRANCH  18  23
ENDBRANCH   1  18
TORSDOF 6
ENDMDL
MODEL 4
REMARK VINA RESULT:    -8.753      1.398      1.716
REMARK INTER + INTRA:         -12.624
REMARK INTER:                 -11.924
REMARK INTRA:                  -0.700
REMARK UNBOUND:                -0.801
REMARK  Name = 
REMARK  6 active torsions:
REMARK  status: ('A' for Active; 'I' for Inactive)
REMARK    1  A    between atoms: C_2  and  C_4
REMARK    2  A    between atoms: N_8  and  C_9
REMARK    3  A    between atoms: C_9  and  C_10
REMARK    4  A    between atoms: C_10  and  C_13
REMARK    5  A    between atoms: C_17  and  N_18
REMARK    6  A    between atoms: N_18  and  C_19
REMARK                            x       y       z     vdW  Elec       q    Type
REMARK                         _______ _______ _______ _____ _____    ______ ____
ROOT
ATOM      1  C   UNL     1      43.066   5.412  12.158  0.00  0.00    +0.000 C 
ATOM      2  F   UNL     1      41.929   6.079  11.777  0.00  0.00    +0.000 F 
ATOM      3  F   UNL     1      42.749   4.891  13.386  0.00  0.00    +0.000 F 
ENDROOT
BRANCH   1   4
ATOM      4  C   UNL     1      44.256   6.333  12.252  0.00  0.00    +0.000 A 
ATOM      5  C   UNL     1      44.269   7.567  11.589  0.00  0.00    +0.000 A 
ATOM      6  C   UNL     1      45.391   8.393  11.661  0.00  0.00    +0.000 A 
ATOM      7  C   UNL     1      46.516   7.991  12.385  0.00  0.00    +0.000 A 
ATOM      8  C   UNL     1      46.515   6.789  13.098  0.00  0.00    +0.000 A 
ATOM      9  C   UNL     1      45.370   5.978  13.020  0.00  0.00    +0.000 A 
ATOM     10  F   UNL     1      45.363   4.809  13.681  0.00  0.00    +0.000 F 
BRANCH   8  11
ATOM     11  N   UNL     1      47.662   6.315  13.762  0.00  0.00    +0.000 N 
ATOM     12  H   UNL     1      47.977   5.398  13.454  0.00  0.00    +0.000 HD
BRANCH  11  13
ATOM     13  C   UNL     1      48.301   6.876  14.911  0.00  0.00    +0.000 C 
ATOM     14  C   UNL     1      49.825   7.059  14.739  0.00  0.00    +0.000 C 
ATOM     15  N   UNL     1      50.004   6.564  16.129  0.00  0.00    +0.000 NA
ATOM     16  C   UNL     1      48.696   5.865  16.003  0.00  0.00    +0.000 C 
ATOM     17  H   UNL     1      49.991   7.315  16.821  0.00  0.00    +0.000 HD
ENDBRANCH  11  13
ENDBRANCH   8  11
ENDBRANCH   1   4
BRANCH   1  18
ATOM     18  C   UNL     1      43.256   4.216  11.186  0.00  0.00    +0.000 C 
BRANCH  18  23
ATOM     19  C   UNL     1      46.515   2.463   7.670  0.00  0.00    +0.000 A 
ATOM     20  C   UNL     1      45.763   1.773   8.612  0.00  0.00    +0.000 A 
ATOM     21  C   UNL     1      44.819   2.467   9.369  0.00  0.00    +0.000 A 
ATOM     22  C   UNL     1      44.657   3.839   9.188  0.00  0.00    +0.000 A 
ATOM     23  N   UNL     1      43.680   4.582   9.827  0.00  0.00    +0.000 N 
ATOM     24  N   UNL     1      45.414   4.523   8.311  0.00  0.00    +0.000 NA
ATOM     25  C   UNL     1      46.326   3.832   7.574  0.00  0.00    +0.000 A 
ATOM     26  H   UNL     1      43.871   5.569   9.653  0.00  0.00    +0.000 HD
BRANCH  19  28
ATOM     27  N   UNL     1      48.595   2.515   6.423  0.00  0.00    +0.000 N 
ATOM     28  C   UNL     1      47.485   1.798   6.775  0.00  0.00    +0.000 C 
ATOM     29  O   UNL     1      47.327   0.644   6.399  0.00  0.00    +0.000 OA
ATOM     30  H   UNL     1      49.312   2.011   5.916  0.00  0.00    +0.000 HD
ATOM     31  H   UNL     1      48.881   3.348   6.919  0.00  0.00    +0.000 HD
ENDBRANCH  19  28
ENDBRANCH  18  23
ENDBRANCH   1  18
TORSDOF 6
ENDMDL
MODEL 5
REMARK VINA RESULT:    -8.644      2.834      4.622
REMARK INTER + INTRA:         -12.477
REMARK INTER:                 -11.678
REMARK INTRA:                  -0.800
REMARK UNBOUND:                -0.801
REMARK  Name = 
REMARK  6 active torsions:
REMARK  status: ('A' for Active; 'I' for Inactive)
REMARK    1  A    between atoms: C_2  and  C_4
REMARK    2  A    between atoms: N_8  and  C_9
REMARK    3  A    between atoms: C_9  and  C_10
REMARK    4  A    between atoms: C_10  and  C_13
REMARK    5  A    between atoms: C_17  and  N_18
REMARK    6  A    between atoms: N_18  and  C_19
REMARK                            x       y       z     vdW  Elec       q    Type
REMARK                         _______ _______ _______ _____ _____    ______ ____
ROOT
ATOM      1  C   UNL     1      44.330   4.274  12.245  0.00  0.00    +0.000 C 
ATOM      2  F   UNL     1      43.579   4.211  13.391  0.00  0.00    +0.000 F 
ATOM      3  F   UNL     1      45.146   3.175  12.320  0.00  0.00    +0.000 F 
ENDROOT
BRANCH   1   4
ATOM      4  C   UNL     1      45.140   5.545  12.170  0.00  0.00    +0.000 A 
ATOM      5  C   UNL     1      46.537   5.516  12.245  0.00  0.00    +0.000 A 
ATOM      6  C   UNL     1      47.269   6.704  12.206  0.00  0.00    +0.000 A 
ATOM      7  C   UNL     1      46.612   7.932  12.104  0.00  0.00    +0.000 A 
ATOM      8  C   UNL     1      45.222   7.991  11.978  0.00  0.00    +0.000 A 
ATOM      9  C   UNL     1      44.506   6.781  12.009  0.00  0.00    +0.000 A 
ATOM     10  F   UNL     1      43.167   6.823  11.912  0.00  0.00    +0.000 F 
BRANCH   8  11
ATOM     11  N   UNL     1      44.525   9.214  11.965  0.00  0.00    +0.000 N 
ATOM     12  H   UNL     1      44.196   9.520  12.877  0.00  0.00    +0.000 HD
BRANCH  11  13
ATOM     13  C   UNL     1      44.080   9.952  10.824  0.00  0.00    +0.000 C 
ATOM     14  C   UNL     1      43.803  11.441  11.126  0.00  0.00    +0.000 C 
ATOM     15  N   UNL     1      42.582  11.348  10.286  0.00  0.00    +0.000 NA
ATOM     16  C   UNL     1      42.566   9.883  10.546  0.00  0.00    +0.000 C 
ATOM     17  H   UNL     1      42.758  11.578   9.306  0.00  0.00    +0.000 HD
ENDBRANCH  11  13
ENDBRANCH   8  11
ENDBRANCH   1   4
BRANCH   1  18
ATOM     18  C   UNL     1      43.371   4.054  11.043  0.00  0.00    +0.000 C 
BRANCH  18  23
ATOM     19  C   UNL     1      46.687   2.671   7.417  0.00  0.00    +0.000 A 
ATOM     20  C   UNL     1      45.882   1.889   8.235  0.00  0.00    +0.000 A 
ATOM     21  C   UNL     1      44.936   2.509   9.051  0.00  0.00    +0.000 A 
ATOM     22  C   UNL     1      44.826   3.898   9.054  0.00  0.00    +0.000 A 
ATOM     23  N   UNL     1      43.853   4.583   9.760  0.00  0.00    +0.000 N 
ATOM     24  N   UNL     1      45.633   4.665   8.299  0.00  0.00    +0.000 NA
ATOM     25  C   UNL     1      46.546   4.046   7.502  0.00  0.00    +0.000 A 
ATOM     26  H   UNL     1      44.082   5.577   9.726  0.00  0.00    +0.000 HD
BRANCH  19  28
ATOM     27  N   UNL     1      47.961   2.842   5.360  0.00  0.00    +0.000 N 
ATOM     28  C   UNL     1      47.664   2.097   6.468  0.00  0.00    +0.000 C 
ATOM     29  O   UNL     1      48.215   1.026   6.682  0.00  0.00    +0.000 OA
ATOM     30  H   UNL     1      48.721   2.502   4.783  0.00  0.00    +0.000 HD
ATOM     31  H   UNL     1      47.734   3.823   5.290  0.00  0.00    +0.000 HD
ENDBRANCH  19  28
ENDBRANCH  18  23
ENDBRANCH   1  18
TORSDOF 6
ENDMDL
MODEL 6
REMARK VINA RESULT:    -8.373      3.029      7.866
REMARK INTER + INTRA:         -12.112
REMARK INTER:                 -11.609
REMARK INTRA:                  -0.503
REMARK UNBOUND:                -0.801
REMARK  Name = 
REMARK  6 active torsions:
REMARK  status: ('A' for Active; 'I' for Inactive)
REMARK    1  A    between atoms: C_2  and  C_4
REMARK    2  A    between atoms: N_8  and  C_9
REMARK    3  A    between atoms: C_9  and  C_10
REMARK    4  A    between atoms: C_10  and  C_13
REMARK    5  A    between atoms: C_17  and  N_18
REMARK    6  A    between atoms: N_18  and  C_19
REMARK                            x       y       z     vdW  Elec       q    Type
REMARK                         _______ _______ _______ _____ _____    ______ ____
ROOT
ATOM      1  C   UNL     1      45.686   6.056  11.437  0.00  0.00    +0.000 C 
ATOM      2  F   UNL     1      44.841   7.120  11.245  0.00  0.00    +0.000 F 
ATOM      3  F   UNL     1      46.898   6.507  10.981  0.00  0.00    +0.000 F 
ENDROOT
BRANCH   1   4
ATOM      4  C   UNL     1      45.240   4.836  10.671  0.00  0.00    +0.000 A 
ATOM      5  C   UNL     1      44.434   3.861  11.271  0.00  0.00    +0.000 A 
ATOM      6  C   UNL     1      44.056   2.723  10.558  0.00  0.00    +0.000 A 
ATOM      7  C   UNL     1      44.488   2.541   9.242  0.00  0.00    +0.000 A 
ATOM      8  C   UNL     1      45.251   3.518   8.599  0.00  0.00    +0.000 A 
ATOM      9  C   UNL     1      45.611   4.662   9.334  0.00  0.00    +0.000 A 
ATOM     10  F   UNL     1      46.365   5.600   8.736  0.00  0.00    +0.000 F 
BRANCH   8  11
ATOM     11  N   UNL     1      45.777   3.325   7.308  0.00  0.00    +0.000 N 
ATOM     12  H   UNL     1      45.074   3.223   6.579  0.00  0.00    +0.000 HD
BRANCH  11  13
ATOM     13  C   UNL     1      47.138   3.076   6.947  0.00  0.00    +0.000 C 
ATOM     14  C   UNL     1      47.339   2.836   5.435  0.00  0.00    +0.000 C 
ATOM     15  N   UNL     1      48.280   1.737   5.771  0.00  0.00    +0.000 NA
ATOM     16  C   UNL     1      47.598   1.613   7.088  0.00  0.00    +0.000 C 
ATOM     17  H   UNL     1      49.247   2.055   5.850  0.00  0.00    +0.000 HD
ENDBRANCH  11  13
ENDBRANCH   8  11
ENDBRANCH   1   4
BRANCH   1  18
ATOM     18  C   UNL     1      45.824   5.837  12.968  0.00  0.00    +0.000 C 
BRANCH  18  23
ATOM     19  C   UNL     1      48.545   4.248  16.984  0.00  0.00    +0.000 A 
ATOM     20  C   UNL     1      47.564   3.590  16.255  0.00  0.00    +0.000 A 
ATOM     21  C   UNL     1      47.068   4.181  15.093  0.00  0.00    +0.000 A 
ATOM     22  C   UNL     1      47.544   5.428  14.691  0.00  0.00    +0.000 A 
ATOM     23  N   UNL     1      47.177   6.037  13.505  0.00  0.00    +0.000 N 
ATOM     24  N   UNL     1      48.461   6.093  15.417  0.00  0.00    +0.000 NA
ATOM     25  C   UNL     1      48.941   5.501  16.545  0.00  0.00    +0.000 A 
ATOM     26  H   UNL     1      47.531   6.994  13.521  0.00  0.00    +0.000 HD
BRANCH  19  28
ATOM     27  N   UNL     1      48.341   3.147  19.136  0.00  0.00    +0.000 N 
ATOM     28  C   UNL     1      49.178   3.665  18.186  0.00  0.00    +0.000 C 
ATOM     29  O   UNL     1      50.394   3.608  18.308  0.00  0.00    +0.000 OA
ATOM     30  H   UNL     1      48.783   2.638  19.893  0.00  0.00    +0.000 HD
ATOM     31  H   UNL     1      47.370   2.941  18.949  0.00  0.00    +0.000 HD
ENDBRANCH  19  28
ENDBRANCH  18  23
ENDBRANCH   1  18
TORSDOF 6
ENDMDL
MODEL 7
REMARK VINA RESULT:    -7.407      3.379      7.993
REMARK INTER + INTRA:         -10.806
REMARK INTER:                 -10.451
REMARK INTRA:                  -0.354
REMARK UNBOUND:                -0.801
REMARK  Name = 
REMARK  6 active torsions:
REMARK  status: ('A' for Active; 'I' for Inactive)
REMARK    1  A    between atoms: C_2  and  C_4
REMARK    2  A    between atoms: N_8  and  C_9
REMARK    3  A    between atoms: C_9  and  C_10
REMARK    4  A    between atoms: C_10  and  C_13
REMARK    5  A    between atoms: C_17  and  N_18
REMARK    6  A    between atoms: N_18  and  C_19
REMARK                            x       y       z     vdW  Elec       q    Type
REMARK                         _______ _______ _______ _____ _____    ______ ____
ROOT
ATOM      1  C   UNL     1      46.559   6.530  12.533  0.00  0.00    +0.000 C 
ATOM      2  F   UNL     1      46.309   7.576  13.384  0.00  0.00    +0.000 F 
ATOM      3  F   UNL     1      47.304   7.089  11.527  0.00  0.00    +0.000 F 
ENDROOT
BRANCH   1   4
ATOM      4  C   UNL     1      45.286   5.928  11.991  0.00  0.00    +0.000 A 
ATOM      5  C   UNL     1      44.163   5.758  12.810  0.00  0.00    +0.000 A 
ATOM      6  C   UNL     1      43.004   5.170  12.301  0.00  0.00    +0.000 A 
ATOM      7  C   UNL     1      42.959   4.735  10.974  0.00  0.00    +0.000 A 
ATOM      8  C   UNL     1      44.045   4.936  10.120  0.00  0.00    +0.000 A 
ATOM      9  C   UNL     1      45.199   5.540  10.651  0.00  0.00    +0.000 A 
ATOM     10  F   UNL     1      46.260   5.719   9.847  0.00  0.00    +0.000 F 
BRANCH   8  11
ATOM     11  N   UNL     1      44.065   4.430   8.806  0.00  0.00    +0.000 N 
ATOM     12  H   UNL     1      43.650   5.048   8.112  0.00  0.00    +0.000 HD
BRANCH  11  13
ATOM     13  C   UNL     1      44.420   3.111   8.384  0.00  0.00    +0.000 C 
ATOM     14  C   UNL     1      44.778   2.167   9.552  0.00  0.00    +0.000 C 
ATOM     15  N   UNL     1      45.906   1.645   8.737  0.00  0.00    +0.000 NA
ATOM     16  C   UNL     1      45.894   2.925   7.978  0.00  0.00    +0.000 C 
ATOM     17  H   UNL     1      45.641   0.840   8.166  0.00  0.00    +0.000 HD
ENDBRANCH  11  13
ENDBRANCH   8  11
ENDBRANCH   1   4
BRANCH   1  18
ATOM     18  C   UNL     1      47.476   5.525  13.281  0.00  0.00    +0.000 C 
BRANCH  18  23
ATOM     19  C   UNL     1      48.644   4.501  18.143  0.00  0.00    +0.000 A 
ATOM     20  C   UNL     1      48.977   5.597  17.357  0.00  0.00    +0.000 A 
ATOM     21  C   UNL     1      48.406   5.724  16.091  0.00  0.00    +0.000 A 
ATOM     22  C   UNL     1      47.531   4.746  15.623  0.00  0.00    +0.000 A 
ATOM     23  N   UNL     1      46.850   4.844  14.423  0.00  0.00    +0.000 N 
ATOM     24  N   UNL     1      47.239   3.658  16.360  0.00  0.00    +0.000 NA
ATOM     25  C   UNL     1      47.798   3.551  17.596  0.00  0.00    +0.000 A 
ATOM     26  H   UNL     1      46.407   3.944  14.238  0.00  0.00    +0.000 HD
BRANCH  19  28
ATOM     27  N   UNL     1      48.351   3.610  20.380  0.00  0.00    +0.000 N 
ATOM     28  C   UNL     1      49.144   4.322  19.523  0.00  0.00    +0.000 C 
ATOM     29  O   UNL     1      50.235   4.752  19.872  0.00  0.00    +0.000 OA
ATOM     30  H   UNL     1      48.755   3.384  21.281  0.00  0.00    +0.000 HD
ATOM     31  H   UNL     1      47.591   3.028  20.058  0.00  0.00    +0.000 HD
ENDBRANCH  19  28
ENDBRANCH  18  23
ENDBRANCH   1  18
TORSDOF 6
ENDMDL
MODEL 8
REMARK VINA RESULT:    -7.128      3.467      7.375
REMARK INTER + INTRA:         -10.429
REMARK INTER:                  -9.683
REMARK INTRA:                  -0.746
REMARK UNBOUND:                -0.801
REMARK  Name = 
REMARK  6 active torsions:
REMARK  status: ('A' for Active; 'I' for Inactive)
REMARK    1  A    between atoms: C_2  and  C_4
REMARK    2  A    between atoms: N_8  and  C_9
REMARK    3  A    between atoms: C_9  and  C_10
REMARK    4  A    between atoms: C_10  and  C_13
REMARK    5  A    between atoms: C_17  and  N_18
REMARK    6  A    between atoms: N_18  and  C_19
REMARK                            x       y       z     vdW  Elec       q    Type
REMARK                         _______ _______ _______ _____ _____    ______ ____
ROOT
ATOM      1  C   UNL     1      44.464   5.617  11.717  0.00  0.00    +0.000 C 
ATOM      2  F   UNL     1      43.255   5.680  12.363  0.00  0.00    +0.000 F 
ATOM      3  F   UNL     1      44.540   6.805  11.037  0.00  0.00    +0.000 F 
ENDROOT
BRANCH   1   4
ATOM      4  C   UNL     1      44.539   4.445  10.771  0.00  0.00    +0.000 A 
ATOM      5  C   UNL     1      43.850   3.256  11.039  0.00  0.00    +0.000 A 
ATOM      6  C   UNL     1      43.955   2.170  10.169  0.00  0.00    +0.000 A 
ATOM      7  C   UNL     1      44.757   2.257   9.028  0.00  0.00    +0.000 A 
ATOM      8  C   UNL     1      45.417   3.447   8.707  0.00  0.00    +0.000 A 
ATOM      9  C   UNL     1      45.288   4.531   9.593  0.00  0.00    +0.000 A 
ATOM     10  F   UNL     1      45.934   5.674   9.310  0.00  0.00    +0.000 F 
BRANCH   8  11
ATOM     11  N   UNL     1      46.302   3.538   7.617  0.00  0.00    +0.000 N 
ATOM     12  H   UNL     1      46.566   4.489   7.369  0.00  0.00    +0.000 HD
BRANCH  11  13
ATOM     13  C   UNL     1      46.708   2.492   6.731  0.00  0.00    +0.000 C 
ATOM     14  C   UNL     1      48.196   2.106   6.877  0.00  0.00    +0.000 C 
ATOM     15  N   UNL     1      48.282   2.023   5.396  0.00  0.00    +0.000 NA
ATOM     16  C   UNL     1      47.119   2.948   5.319  0.00  0.00    +0.000 C 
ATOM     17  H   UNL     1      48.074   1.089   5.040  0.00  0.00    +0.000 HD
ENDBRANCH  11  13
ENDBRANCH   8  11
ENDBRANCH   1   4
BRANCH   1  18
ATOM     18  C   UNL     1      45.576   5.637  12.802  0.00  0.00    +0.000 C 
BRANCH  18  23
ATOM     19  C   UNL     1      49.632   8.704  12.351  0.00  0.00    +0.000 A 
ATOM     20  C   UNL     1      49.106   7.783  11.454  0.00  0.00    +0.000 A 
ATOM     21  C   UNL     1      47.888   7.168  11.747  0.00  0.00    +0.000 A 
ATOM     22  C   UNL     1      47.228   7.467  12.938  0.00  0.00    +0.000 A 
ATOM     23  N   UNL     1      45.975   6.976  13.257  0.00  0.00    +0.000 N 
ATOM     24  N   UNL     1      47.754   8.323  13.832  0.00  0.00    +0.000 NA
ATOM     25  C   UNL     1      48.939   8.921  13.531  0.00  0.00    +0.000 A 
ATOM     26  H   UNL     1      45.787   7.207  14.233  0.00  0.00    +0.000 HD
BRANCH  19  28
ATOM     27  N   UNL     1      50.745  10.772  11.744  0.00  0.00    +0.000 N 
ATOM     28  C   UNL     1      50.877   9.455  12.091  0.00  0.00    +0.000 C 
ATOM     29  O   UNL     1      51.979   8.939  12.220  0.00  0.00    +0.000 OA
ATOM     30  H   UNL     1      51.602  11.310  11.692  0.00  0.00    +0.000 HD
ATOM     31  H   UNL     1      49.887  11.286  11.887  0.00  0.00    +0.000 HD
ENDBRANCH  19  28
ENDBRANCH  18  23
ENDBRANCH   1  18
TORSDOF 6
ENDMDL
MODEL 9
REMARK VINA RESULT:    -7.081      3.741      8.175
REMARK INTER + INTRA:         -10.366
REMARK INTER:                  -9.601
REMARK INTRA:                  -0.765
REMARK UNBOUND:                -0.801
REMARK  Name = 
REMARK  6 active torsions:
REMARK  status: ('A' for Active; 'I' for Inactive)
REMARK    1  A    between atoms: C_2  and  C_4
REMARK    2  A    between atoms: N_8  and  C_9
REMARK    3  A    between atoms: C_9  and  C_10
REMARK    4  A    between atoms: C_10  and  C_13
REMARK    5  A    between atoms: C_17  and  N_18
REMARK    6  A    between atoms: N_18  and  C_19
REMARK                            x       y       z     vdW  Elec       q    Type
REMARK                         _______ _______ _______ _____ _____    ______ ____
ROOT
ATOM      1  C   UNL     1      45.379   6.279  11.610  0.00  0.00    +0.000 C 
ATOM      2  F   UNL     1      44.778   6.423  12.834  0.00  0.00    +0.000 F 
ATOM      3  F   UNL     1      44.943   7.364  10.895  0.00  0.00    +0.000 F 
ENDROOT
BRANCH   1   4
ATOM      4  C   UNL     1      44.980   4.990  10.934  0.00  0.00    +0.000 A 
ATOM      5  C   UNL     1      44.213   4.031  11.605  0.00  0.00    +0.000 A 
ATOM      6  C   UNL     1      43.879   2.830  10.976  0.00  0.00    +0.000 A 
ATOM      7  C   UNL     1      44.318   2.572   9.675  0.00  0.00    +0.000 A 
ATOM      8  C   UNL     1      45.042   3.530   8.962  0.00  0.00    +0.000 A 
ATOM      9  C   UNL     1      45.358   4.736   9.612  0.00  0.00    +0.000 A 
ATOM     10  F   UNL     1      46.074   5.658   8.947  0.00  0.00    +0.000 F 
BRANCH   8  11
ATOM     11  N   UNL     1      45.575   3.265   7.686  0.00  0.00    +0.000 N 
ATOM     12  H   UNL     1      44.884   3.238   6.940  0.00  0.00    +0.000 HD
BRANCH  11  13
ATOM     13  C   UNL     1      46.907   2.858   7.363  0.00  0.00    +0.000 C 
ATOM     14  C   UNL     1      47.154   2.714   5.845  0.00  0.00    +0.000 C 
ATOM     15  N   UNL     1      47.918   1.470   6.125  0.00  0.00    +0.000 NA
ATOM     16  C   UNL     1      47.156   1.338   7.396  0.00  0.00    +0.000 C 
ATOM     17  H   UNL     1      48.914   1.643   6.272  0.00  0.00    +0.000 HD
ENDBRANCH  11  13
ENDBRANCH   8  11
ENDBRANCH   1   4
BRANCH   1  18
ATOM     18  C   UNL     1      46.909   6.448  11.816  0.00  0.00    +0.000 C 
BRANCH  18  23
ATOM     19  C   UNL     1      49.217   8.469  15.895  0.00  0.00    +0.000 A 
ATOM     20  C   UNL     1      48.278   9.024  15.035  0.00  0.00    +0.000 A 
ATOM     21  C   UNL     1      47.675   8.214  14.073  0.00  0.00    +0.000 A 
ATOM     22  C   UNL     1      48.034   6.871  13.972  0.00  0.00    +0.000 A 
ATOM     23  N   UNL     1      47.416   5.980  13.113  0.00  0.00    +0.000 N 
ATOM     24  N   UNL     1      48.976   6.337  14.771  0.00  0.00    +0.000 NA
ATOM     25  C   UNL     1      49.551   7.138  15.710  0.00  0.00    +0.000 A 
ATOM     26  H   UNL     1      47.959   5.116  13.113  0.00  0.00    +0.000 HD
BRANCH  19  28
ATOM     27  N   UNL     1      49.046  10.071  17.709  0.00  0.00    +0.000 N 
ATOM     28  C   UNL     1      49.853   9.233  16.989  0.00  0.00    +0.000 C 
ATOM     29  O   UNL     1      51.036   9.093  17.267  0.00  0.00    +0.000 OA
ATOM     30  H   UNL     1      49.459  10.492  18.533  0.00  0.00    +0.000 HD
ATOM     31  H   UNL     1      48.038  10.010  17.680  0.00  0.00    +0.000 HD
ENDBRANCH  19  28
ENDBRANCH  18  23
ENDBRANCH   1  18
TORSDOF 6
ENDMDL
