MODEL 1
REMARK VINA RESULT:    -9.046      0.000      0.000
REMARK INTER + INTRA:         -13.650
REMARK INTER:                 -12.748
REMARK INTRA:                  -0.902
REMARK UNBOUND:                -0.902
REMARK  Name = 
REMARK  8 active torsions:
REMARK  status: ('A' for Active; 'I' for Inactive)
REMARK    1  A    between atoms: C_1  and  C_2
REMARK    2  A    between atoms: C_4  and  C_5
REMARK    3  A    between atoms: C_10  and  N_11
REMARK    4  A    between atoms: N_11  and  C_12
REMARK    5  A    between atoms: C_12  and  C_13
REMARK    6  A    between atoms: C_17  and  C_18
REMARK    7  A    between atoms: C_21  and  O_22
REMARK    8  A    between atoms: O_22  and  C_23
REMARK                            x       y       z     vdW  Elec       q    Type
REMARK                         _______ _______ _______ _____ _____    ______ ____
ROOT
ATOM      1  C   UNL     1      44.080   5.111  11.360  0.00  0.00    +0.000 C 
ATOM      2  C   UNL     1      43.376   4.018  12.189  0.00  0.00    +0.000 C 
ATOM      3  C   UNL     1      42.941   5.424  12.328  0.00  0.00    +0.000 C 
ENDROOT
BRANCH   1   4
ATOM      4  C   UNL     1      45.456   5.551  11.866  0.00  0.00    +0.000 A 
ATOM      5  C   UNL     1      46.140   6.618  11.270  0.00  0.00    +0.000 A 
ATOM      6  C   UNL     1      47.331   7.095  11.810  0.00  0.00    +0.000 A 
ATOM      7  C   UNL     1      47.843   6.525  12.974  0.00  0.00    +0.000 A 
ATOM      8  C   UNL     1      47.176   5.474  13.629  0.00  0.00    +0.000 A 
ATOM      9  C   UNL     1      46.020   4.972  13.021  0.00  0.00    +0.000 A 
BRANCH   8  10
ATOM     10  C   UNL     1      47.596   5.009  14.968  0.00  0.00    +0.000 A 
ATOM     11  C   UNL     1      48.389   5.838  15.782  0.00  0.00    +0.000 A 
ATOM     12  C   UNL     1      48.746   5.473  17.081  0.00  0.00    +0.000 A 
ATOM     13  C   UNL     1      48.285   4.276  17.616  0.00  0.00    +0.000 A 
ATOM     14  C   UNL     1      47.514   3.426  16.824  0.00  0.00    +0.000 A 
ATOM     15  C   UNL     1      47.171   3.788  15.517  0.00  0.00    +0.000 A 
BRANCH  13  16
ATOM     16  O   UNL     1      48.533   3.833  18.882  0.00  0.00    +0.000 OA
BRANCH  16  17
ATOM     17  C   UNL     1      48.633   4.851  19.864  0.00  0.00    +0.000 C 
ATOM     18  F   UNL     1      47.412   5.432  19.968  0.00  0.00    +0.000 F 
ATOM     19  F   UNL     1      48.897   4.273  21.062  0.00  0.00    +0.000 F 
ENDBRANCH  16  17
ENDBRANCH  13  16
ENDBRANCH   8  10
ENDBRANCH   1   4
BRANCH   1  20
ATOM     20  N   UNL     1      44.079   4.826   9.915  0.00  0.00    +0.000 N 
ATOM     21  H   UNL     1      43.192   4.970   9.438  0.00  0.00    +0.000 HD
BRANCH  20  28
ATOM     22  C   UNL     1      44.097   1.731   9.671  0.00  0.00    +0.000 C 
ATOM     23  C   UNL     1      44.964   2.696   8.947  0.00  0.00    +0.000 A 
ATOM     24  C   UNL     1      45.946   2.133   8.114  0.00  0.00    +0.000 A 
ATOM     25  C   UNL     1      46.787   2.915   7.338  0.00  0.00    +0.000 A 
ATOM     26  C   UNL     1      46.598   4.276   7.436  0.00  0.00    +0.000 A 
ATOM     27  N   UNL     1      45.677   4.861   8.264  0.00  0.00    +0.000 NA
ATOM     28  C   UNL     1      44.872   4.082   9.043  0.00  0.00    +0.000 A 
BRANCH  25  29
ATOM     29  C   UNL     1      47.788   2.215   6.490  0.00  0.00    +0.000 C 
ATOM     30  N   UNL     1      48.183   2.763   5.307  0.00  0.00    +0.000 N 
ATOM     31  O   UNL     1      48.270   1.146   6.836  0.00  0.00    +0.000 OA
ATOM     32  H   UNL     1      47.872   3.644   4.923  0.00  0.00    +0.000 HD
ATOM     33  H   UNL     1      48.871   2.239   4.783  0.00  0.00    +0.000 HD
ENDBRANCH  25  29
ENDBRANCH  20  28
ENDBRANCH   1  20
TORSDOF 7
ENDMDL
MODEL 2
REMARK VINA RESULT:    -8.335      3.445      4.364
REMARK INTER + INTRA:         -12.648
REMARK INTER:                 -11.099
REMARK INTRA:                  -1.549
REMARK UNBOUND:                -0.902
REMARK  Name = 
REMARK  8 active torsions:
REMARK  status: ('A' for Active; 'I' for Inactive)
REMARK    1  A    between atoms: C_1  and  C_2
REMARK    2  A    between atoms: C_4  and  C_5
REMARK    3  A    between atoms: C_10  and  N_11
REMARK    4  A    between atoms: N_11  and  C_12
REMARK    5  A    between atoms: C_12  and  C_13
REMARK    6  A    between atoms: C_17  and  C_18
REMARK    7  A    between atoms: C_21  and  O_22
REMARK    8  A    between atoms: O_22  and  C_23
REMARK                            x       y       z     vdW  Elec       q    Type
REMARK                         _______ _______ _______ _____ _____    ______ ____
ROOT
ATOM      1  C   UNL     1      43.752   5.561  11.060  0.00  0.00    +0.000 C 
ATOM      2  C   UNL     1      42.396   5.790  11.756  0.00  0.00    +0.000 C 
ATOM      3  C   UNL     1      43.168   6.955  11.275  0.00  0.00    +0.000 C 
ENDROOT
BRANCH   1   4
ATOM      4  C   UNL     1      44.930   5.237  11.982  0.00  0.00    +0.000 A 
ATOM      5  C   UNL     1      45.097   3.955  12.521  0.00  0.00    +0.000 A 
ATOM      6  C   UNL     1      46.234   3.631  13.255  0.00  0.00    +0.000 A 
ATOM      7  C   UNL     1      47.236   4.582  13.440  0.00  0.00    +0.000 A 
ATOM      8  C   UNL     1      47.131   5.873  12.889  0.00  0.00    +0.000 A 
ATOM      9  C   UNL     1      45.944   6.187  12.217  0.00  0.00    +0.000 A 
BRANCH   8  10
ATOM     10  C   UNL     1      48.273   6.811  12.899  0.00  0.00    +0.000 A 
ATOM     11  C   UNL     1      48.983   7.041  14.092  0.00  0.00    +0.000 A 
ATOM     12  C   UNL     1      50.113   7.859  14.132  0.00  0.00    +0.000 A 
ATOM     13  C   UNL     1      50.586   8.445  12.963  0.00  0.00    +0.000 A 
ATOM     14  C   UNL     1      49.890   8.251  11.771  0.00  0.00    +0.000 A 
ATOM     15  C   UNL     1      48.748   7.442  11.737  0.00  0.00    +0.000 A 
BRANCH  13  16
ATOM     16  O   UNL     1      51.699   9.228  12.872  0.00  0.00    +0.000 OA
BRANCH  16  17
ATOM     17  C   UNL     1      52.905   8.530  12.614  0.00  0.00    +0.000 C 
ATOM     18  F   UNL     1      53.707   9.360  11.901  0.00  0.00    +0.000 F 
ATOM     19  F   UNL     1      53.531   8.294  13.792  0.00  0.00    +0.000 F 
ENDBRANCH  16  17
ENDBRANCH  13  16
ENDBRANCH   8  10
ENDBRANCH   1   4
BRANCH   1  20
ATOM     20  N   UNL     1      43.662   4.633   9.919  0.00  0.00    +0.000 N 
ATOM     21  H   UNL     1      42.754   4.196   9.776  0.00  0.00    +0.000 HD
BRANCH  20  28
ATOM     22  C   UNL     1      43.933   1.540   9.880  0.00  0.00    +0.000 C 
ATOM     23  C   UNL     1      44.772   2.527   9.152  0.00  0.00    +0.000 A 
ATOM     24  C   UNL     1      45.850   1.995   8.423  0.00  0.00    +0.000 A 
ATOM     25  C   UNL     1      46.681   2.794   7.654  0.00  0.00    +0.000 A 
ATOM     26  C   UNL     1      46.382   4.140   7.649  0.00  0.00    +0.000 A 
ATOM     27  N   UNL     1      45.364   4.697   8.376  0.00  0.00    +0.000 NA
ATOM     28  C   UNL     1      44.568   3.904   9.150  0.00  0.00    +0.000 A 
BRANCH  25  29
ATOM     29  C   UNL     1      47.789   2.127   6.919  0.00  0.00    +0.000 C 
ATOM     30  N   UNL     1      48.671   2.870   6.194  0.00  0.00    +0.000 N 
ATOM     31  O   UNL     1      47.926   0.913   6.955  0.00  0.00    +0.000 OA
ATOM     32  H   UNL     1      48.673   3.875   6.102  0.00  0.00    +0.000 HD
ATOM     33  H   UNL     1      49.405   2.354   5.726  0.00  0.00    +0.000 HD
ENDBRANCH  25  29
ENDBRANCH  20  28
ENDBRANCH   1  20
TORSDOF 7
ENDMDL
MODEL 3
REMARK VINA RESULT:    -8.184      4.606      8.695
REMARK INTER + INTRA:         -12.435
REMARK INTER:                 -11.360
REMARK INTRA:                  -1.075
REMARK UNBOUND:                -0.902
REMARK  Name = 
REMARK  8 active torsions:
REMARK  status: ('A' for Active; 'I' for Inactive)
REMARK    1  A    between atoms: C_1  and  C_2
REMARK    2  A    between atoms: C_4  and  C_5
REMARK    3  A    between atoms: C_10  and  N_11
REMARK    4  A    between atoms: N_11  and  C_12
REMARK    5  A    between atoms: C_12  and  C_13
REMARK    6  A    between atoms: C_17  and  C_18
REMARK    7  A    between atoms: C_21  and  O_22
REMARK    8  A    between atoms: O_22  and  C_23
REMARK                            x       y       z     vdW  Elec       q    Type
REMARK                         _______ _______ _______ _____ _____    ______ ____
ROOT
ATOM      1  C   UNL     1      48.069   8.183  12.965  0.00  0.00    +0.000 C 
ATOM      2  C   UNL     1      49.027   8.923  12.011  0.00  0.00    +0.000 C 
ATOM      3  C   UNL     1      48.295   9.691  13.039  0.00  0.00    +0.000 C 
ENDROOT
BRANCH   1   4
ATOM      4  C   UNL     1      46.711   7.791  12.378  0.00  0.00    +0.000 A 
ATOM      5  C   UNL     1      45.663   8.717  12.297  0.00  0.00    +0.000 A 
ATOM      6  C   UNL     1      44.474   8.396  11.650  0.00  0.00    +0.000 A 
ATOM      7  C   UNL     1      44.325   7.146  11.051  0.00  0.00    +0.000 A 
ATOM      8  C   UNL     1      45.361   6.194  11.075  0.00  0.00    +0.000 A 
ATOM      9  C   UNL     1      46.515   6.524  11.794  0.00  0.00    +0.000 A 
BRANCH   8  10
ATOM     10  C   UNL     1      45.293   4.959  10.267  0.00  0.00    +0.000 A 
ATOM     11  C   UNL     1      45.772   4.957   8.944  0.00  0.00    +0.000 A 
ATOM     12  C   UNL     1      45.798   3.796   8.170  0.00  0.00    +0.000 A 
ATOM     13  C   UNL     1      45.374   2.590   8.716  0.00  0.00    +0.000 A 
ATOM     14  C   UNL     1      44.875   2.567  10.018  0.00  0.00    +0.000 A 
ATOM     15  C   UNL     1      44.836   3.736  10.786  0.00  0.00    +0.000 A 
BRANCH  13  16
ATOM     16  O   UNL     1      45.390   1.388   8.072  0.00  0.00    +0.000 OA
BRANCH  16  17
ATOM     17  C   UNL     1      46.677   0.923   7.701  0.00  0.00    +0.000 C 
ATOM     18  F   UNL     1      46.647  -0.432   7.755  0.00  0.00    +0.000 F 
ATOM     19  F   UNL     1      46.904   1.260   6.408  0.00  0.00    +0.000 F 
ENDBRANCH  16  17
ENDBRANCH  13  16
ENDBRANCH   8  10
ENDBRANCH   1   4
BRANCH   1  20
ATOM     20  N   UNL     1      48.716   7.066  13.676  0.00  0.00    +0.000 N 
ATOM     21  H   UNL     1      49.398   6.537  13.138  0.00  0.00    +0.000 HD
BRANCH  20  28
ATOM     22  C   UNL     1      49.707   7.611  16.568  0.00  0.00    +0.000 C 
ATOM     23  C   UNL     1      48.899   6.456  16.095  0.00  0.00    +0.000 A 
ATOM     24  C   UNL     1      48.616   5.471  17.057  0.00  0.00    +0.000 A 
ATOM     25  C   UNL     1      47.827   4.369  16.768  0.00  0.00    +0.000 A 
ATOM     26  C   UNL     1      47.338   4.304  15.481  0.00  0.00    +0.000 A 
ATOM     27  N   UNL     1      47.623   5.225  14.509  0.00  0.00    +0.000 NA
ATOM     28  C   UNL     1      48.422   6.292  14.797  0.00  0.00    +0.000 A 
BRANCH  25  29
ATOM     29  C   UNL     1      47.588   3.389  17.861  0.00  0.00    +0.000 C 
ATOM     30  N   UNL     1      48.311   3.462  19.013  0.00  0.00    +0.000 N 
ATOM     31  O   UNL     1      46.746   2.511  17.746  0.00  0.00    +0.000 OA
ATOM     32  H   UNL     1      49.018   4.149  19.233  0.00  0.00    +0.000 HD
ATOM     33  H   UNL     1      48.092   2.770  19.718  0.00  0.00    +0.000 HD
ENDBRANCH  25  29
ENDBRANCH  20  28
ENDBRANCH   1  20
TORSDOF 7
ENDMDL
MODEL 4
REMARK VINA RESULT:    -8.050      4.580      9.085
REMARK INTER + INTRA:         -12.246
REMARK INTER:                 -11.144
REMARK INTRA:                  -1.102
REMARK UNBOUND:                -0.902
REMARK  Name = 
REMARK  8 active torsions:
REMARK  status: ('A' for Active; 'I' for Inactive)
REMARK    1  A    between atoms: C_1  and  C_2
REMARK    2  A    between atoms: C_4  and  C_5
REMARK    3  A    between atoms: C_10  and  N_11
REMARK    4  A    between atoms: N_11  and  C_12
REMARK    5  A    between atoms: C_12  and  C_13
REMARK    6  A    between atoms: C_17  and  C_18
REMARK    7  A    between atoms: C_21  and  O_22
REMARK    8  A    between atoms: O_22  and  C_23
REMARK                            x       y       z     vdW  Elec       q    Type
REMARK                         _______ _______ _______ _____ _____    ______ ____
ROOT
ATOM      1  C   UNL     1      46.283   7.145  12.993  0.00  0.00    +0.000 C 
ATOM      2  C   UNL     1      46.651   8.371  12.135  0.00  0.00    +0.000 C 
ATOM      3  C   UNL     1      45.709   8.534  13.262  0.00  0.00    +0.000 C 
ENDROOT
BRANCH   1   4
ATOM      4  C   UNL     1      45.276   6.173  12.372  0.00  0.00    +0.000 A 
ATOM      5  C   UNL     1      43.909   6.260  12.665  0.00  0.00    +0.000 A 
ATOM      6  C   UNL     1      42.984   5.459  12.005  0.00  0.00    +0.000 A 
ATOM      7  C   UNL     1      43.412   4.571  11.019  0.00  0.00    +0.000 A 
ATOM      8  C   UNL     1      44.770   4.470  10.665  0.00  0.00    +0.000 A 
ATOM      9  C   UNL     1      45.681   5.239  11.397  0.00  0.00    +0.000 A 
BRANCH   8  10
ATOM     10  C   UNL     1      45.204   3.693   9.485  0.00  0.00    +0.000 A 
ATOM     11  C   UNL     1      45.644   4.361   8.327  0.00  0.00    +0.000 A 
ATOM     12  C   UNL     1      46.134   3.670   7.218  0.00  0.00    +0.000 A 
ATOM     13  C   UNL     1      46.229   2.283   7.252  0.00  0.00    +0.000 A 
ATOM     14  C   UNL     1      45.781   1.594   8.378  0.00  0.00    +0.000 A 
ATOM     15  C   UNL     1      45.276   2.290   9.483  0.00  0.00    +0.000 A 
BRANCH  13  16
ATOM     16  O   UNL     1      46.727   1.505   6.248  0.00  0.00    +0.000 OA
BRANCH  16  17
ATOM     17  C   UNL     1      48.029   1.852   5.810  0.00  0.00    +0.000 C 
ATOM     18  F   UNL     1      47.889   2.711   4.769  0.00  0.00    +0.000 F 
ATOM     19  F   UNL     1      48.654   2.534   6.801  0.00  0.00    +0.000 F 
ENDBRANCH  16  17
ENDBRANCH  13  16
ENDBRANCH   8  10
ENDBRANCH   1   4
BRANCH   1  20
ATOM     20  N   UNL     1      47.462   6.454  13.544  0.00  0.00    +0.000 N 
ATOM     21  H   UNL     1      48.031   5.948  12.870  0.00  0.00    +0.000 HD
BRANCH  20  28
ATOM     22  C   UNL     1      49.298   7.985  15.525  0.00  0.00    +0.000 C 
ATOM     23  C   UNL     1      48.732   6.621  15.692  0.00  0.00    +0.000 A 
ATOM     24  C   UNL     1      49.136   5.927  16.846  0.00  0.00    +0.000 A 
ATOM     25  C   UNL     1      48.644   4.669  17.156  0.00  0.00    +0.000 A 
ATOM     26  C   UNL     1      47.734   4.146  16.262  0.00  0.00    +0.000 A 
ATOM     27  N   UNL     1      47.347   4.777  15.111  0.00  0.00    +0.000 NA
ATOM     28  C   UNL     1      47.858   6.003  14.802  0.00  0.00    +0.000 A 
BRANCH  25  29
ATOM     29  C   UNL     1      49.135   4.027  18.404  0.00  0.00    +0.000 C 
ATOM     30  N   UNL     1      48.362   3.109  19.049  0.00  0.00    +0.000 N 
ATOM     31  O   UNL     1      50.231   4.307  18.866  0.00  0.00    +0.000 OA
ATOM     32  H   UNL     1      47.452   2.783  18.757  0.00  0.00    +0.000 HD
ATOM     33  H   UNL     1      48.760   2.705  19.887  0.00  0.00    +0.000 HD
ENDBRANCH  25  29
ENDBRANCH  20  28
ENDBRANCH   1  20
TORSDOF 7
ENDMDL
MODEL 5
REMARK VINA RESULT:    -7.971      5.563      9.036
REMARK INTER + INTRA:         -12.135
REMARK INTER:                 -10.845
REMARK INTRA:                  -1.290
REMARK UNBOUND:                -0.902
REMARK  Name = 
REMARK  8 active torsions:
REMARK  status: ('A' for Active; 'I' for Inactive)
REMARK    1  A    between atoms: C_1  and  C_2
REMARK    2  A    between atoms: C_4  and  C_5
REMARK    3  A    between atoms: C_10  and  N_11
REMARK    4  A    between atoms: N_11  and  C_12
REMARK    5  A    between atoms: C_12  and  C_13
REMARK    6  A    between atoms: C_17  and  C_18
REMARK    7  A    between atoms: C_21  and  O_22
REMARK    8  A    between atoms: O_22  and  C_23
REMARK                            x       y       z     vdW  Elec       q    Type
REMARK                         _______ _______ _______ _____ _____    ______ ____
ROOT
ATOM      1  C   UNL     1      48.648   5.227  17.528  0.00  0.00    +0.000 C 
ATOM      2  C   UNL     1      47.941   5.990  18.665  0.00  0.00    +0.000 C 
ATOM      3  C   UNL     1      47.305   4.780  18.102  0.00  0.00    +0.000 C 
ENDROOT
BRANCH   1   4
ATOM      4  C   UNL     1      48.544   5.855  16.136  0.00  0.00    +0.000 A 
ATOM      5  C   UNL     1      49.529   6.730  15.661  0.00  0.00    +0.000 A 
ATOM      6  C   UNL     1      49.498   7.200  14.352  0.00  0.00    +0.000 A 
ATOM      7  C   UNL     1      48.489   6.779  13.487  0.00  0.00    +0.000 A 
ATOM      8  C   UNL     1      47.496   5.874  13.906  0.00  0.00    +0.000 A 
ATOM      9  C   UNL     1      47.517   5.477  15.248  0.00  0.00    +0.000 A 
BRANCH   8  10
ATOM     10  C   UNL     1      46.555   5.262  12.945  0.00  0.00    +0.000 A 
ATOM     11  C   UNL     1      46.205   5.951  11.769  0.00  0.00    +0.000 A 
ATOM     12  C   UNL     1      45.380   5.381  10.798  0.00  0.00    +0.000 A 
ATOM     13  C   UNL     1      44.909   4.083  10.964  0.00  0.00    +0.000 A 
ATOM     14  C   UNL     1      45.223   3.386  12.129  0.00  0.00    +0.000 A 
ATOM     15  C   UNL     1      46.038   3.966  13.108  0.00  0.00    +0.000 A 
BRANCH  13  16
ATOM     16  O   UNL     1      44.132   3.410  10.068  0.00  0.00    +0.000 OA
BRANCH  16  17
ATOM     17  C   UNL     1      44.845   2.679   9.085  0.00  0.00    +0.000 C 
ATOM     18  F   UNL     1      44.420   1.392   9.150  0.00  0.00    +0.000 F 
ATOM     19  F   UNL     1      44.499   3.146   7.860  0.00  0.00    +0.000 F 
ENDBRANCH  16  17
ENDBRANCH  13  16
ENDBRANCH   8  10
ENDBRANCH   1   4
BRANCH   1  20
ATOM     20  N   UNL     1      50.028   4.840  17.867  0.00  0.00    +0.000 N 
ATOM     21  H   UNL     1      50.679   5.610  18.012  0.00  0.00    +0.000 HD
BRANCH  20  28
ATOM     22  C   UNL     1      49.102   2.158  16.607  0.00  0.00    +0.000 C 
ATOM     23  C   UNL     1      50.419   2.454  17.230  0.00  0.00    +0.000 A 
ATOM     24  C   UNL     1      51.311   1.372  17.317  0.00  0.00    +0.000 A 
ATOM     25  C   UNL     1      52.593   1.517  17.824  0.00  0.00    +0.000 A 
ATOM     26  C   UNL     1      52.933   2.787  18.236  0.00  0.00    +0.000 A 
ATOM     27  N   UNL     1      52.078   3.855  18.200  0.00  0.00    +0.000 NA
ATOM     28  C   UNL     1      50.810   3.695  17.723  0.00  0.00    +0.000 A 
BRANCH  25  29
ATOM     29  C   UNL     1      53.457   0.307  17.866  0.00  0.00    +0.000 C 
ATOM     30  N   UNL     1      53.831  -0.305  16.708  0.00  0.00    +0.000 N 
ATOM     31  O   UNL     1      53.843  -0.153  18.931  0.00  0.00    +0.000 OA
ATOM     32  H   UNL     1      53.592  -0.012  15.772  0.00  0.00    +0.000 HD
ATOM     33  H   UNL     1      54.425  -1.118  16.809  0.00  0.00    +0.000 HD
ENDBRANCH  25  29
ENDBRANCH  20  28
ENDBRANCH   1  20
TORSDOF 7
ENDMDL
MODEL 6
REMARK VINA RESULT:    -7.378      2.337      2.956
REMARK INTER + INTRA:         -11.299
REMARK INTER:                 -10.740
REMARK INTRA:                  -0.559
REMARK UNBOUND:                -0.902
REMARK  Name = 
REMARK  8 active torsions:
REMARK  status: ('A' for Active; 'I' for Inactive)
REMARK    1  A    between atoms: C_1  and  C_2
REMARK    2  A    between atoms: C_4  and  C_5
REMARK    3  A    between atoms: C_10  and  N_11
REMARK    4  A    between atoms: N_11  and  C_12
REMARK    5  A    between atoms: C_12  and  C_13
REMARK    6  A    between atoms: C_17  and  C_18
REMARK    7  A    between atoms: C_21  and  O_22
REMARK    8  A    between atoms: O_22  and  C_23
REMARK                            x       y       z     vdW  Elec       q    Type
REMARK                         _______ _______ _______ _____ _____    ______ ____
ROOT
ATOM      1  C   UNL     1      44.075   5.332  11.509  0.00  0.00    +0.000 C 
ATOM      2  C   UNL     1      44.491   4.168  12.430  0.00  0.00    +0.000 C 
ATOM      3  C   UNL     1      43.226   4.886  12.697  0.00  0.00    +0.000 C 
ENDROOT
BRANCH   1   4
ATOM      4  C   UNL     1      44.805   6.658  11.737  0.00  0.00    +0.000 A 
ATOM      5  C   UNL     1      44.257   7.871  11.300  0.00  0.00    +0.000 A 
ATOM      6  C   UNL     1      44.860   9.084  11.618  0.00  0.00    +0.000 A 
ATOM      7  C   UNL     1      46.011   9.102  12.403  0.00  0.00    +0.000 A 
ATOM      8  C   UNL     1      46.581   7.913  12.896  0.00  0.00    +0.000 A 
ATOM      9  C   UNL     1      45.990   6.708  12.498  0.00  0.00    +0.000 A 
BRANCH   8  10
ATOM     10  C   UNL     1      47.669   7.935  13.896  0.00  0.00    +0.000 A 
ATOM     11  C   UNL     1      48.209   6.726  14.372  0.00  0.00    +0.000 A 
ATOM     12  C   UNL     1      49.287   6.698  15.259  0.00  0.00    +0.000 A 
ATOM     13  C   UNL     1      49.879   7.889  15.666  0.00  0.00    +0.000 A 
ATOM     14  C   UNL     1      49.351   9.101  15.226  0.00  0.00    +0.000 A 
ATOM     15  C   UNL     1      48.261   9.126  14.349  0.00  0.00    +0.000 A 
BRANCH  13  16
ATOM     16  O   UNL     1      50.958   7.985  16.495  0.00  0.00    +0.000 OA
BRANCH  16  17
ATOM     17  C   UNL     1      51.638   6.765  16.739  0.00  0.00    +0.000 C 
ATOM     18  F   UNL     1      52.962   7.051  16.821  0.00  0.00    +0.000 F 
ATOM     19  F   UNL     1      51.262   6.293  17.953  0.00  0.00    +0.000 F 
ENDBRANCH  16  17
ENDBRANCH  13  16
ENDBRANCH   8  10
ENDBRANCH   1   4
BRANCH   1  20
ATOM     20  N   UNL     1      44.035   4.952  10.086  0.00  0.00    +0.000 N 
ATOM     21  H   UNL     1      43.137   5.075   9.622  0.00  0.00    +0.000 HD
BRANCH  20  28
ATOM     22  C   UNL     1      43.948   1.850   9.988  0.00  0.00    +0.000 C 
ATOM     23  C   UNL     1      44.842   2.751   9.215  0.00  0.00    +0.000 A 
ATOM     24  C   UNL     1      45.800   2.116   8.405  0.00  0.00    +0.000 A 
ATOM     25  C   UNL     1      46.661   2.832   7.590  0.00  0.00    +0.000 A 
ATOM     26  C   UNL     1      46.518   4.202   7.624  0.00  0.00    +0.000 A 
ATOM     27  N   UNL     1      45.622   4.855   8.427  0.00  0.00    +0.000 NA
ATOM     28  C   UNL     1      44.797   4.142   9.246  0.00  0.00    +0.000 A 
BRANCH  25  29
ATOM     29  C   UNL     1      47.633   2.060   6.770  0.00  0.00    +0.000 C 
ATOM     30  N   UNL     1      48.728   2.679   6.247  0.00  0.00    +0.000 N 
ATOM     31  O   UNL     1      47.467   0.868   6.555  0.00  0.00    +0.000 OA
ATOM     32  H   UNL     1      48.982   3.648   6.368  0.00  0.00    +0.000 HD
ATOM     33  H   UNL     1      49.352   2.093   5.707  0.00  0.00    +0.000 HD
ENDBRANCH  25  29
ENDBRANCH  20  28
ENDBRANCH   1  20
TORSDOF 7
ENDMDL
MODEL 7
REMARK VINA RESULT:    -7.307      5.050      8.566
REMARK INTER + INTRA:         -11.199
REMARK INTER:                  -9.863
REMARK INTRA:                  -1.336
REMARK UNBOUND:                -0.902
REMARK  Name = 
REMARK  8 active torsions:
REMARK  status: ('A' for Active; 'I' for Inactive)
REMARK    1  A    between atoms: C_1  and  C_2
REMARK    2  A    between atoms: C_4  and  C_5
REMARK    3  A    between atoms: C_10  and  N_11
REMARK    4  A    between atoms: N_11  and  C_12
REMARK    5  A    between atoms: C_12  and  C_13
REMARK    6  A    between atoms: C_17  and  C_18
REMARK    7  A    between atoms: C_21  and  O_22
REMARK    8  A    between atoms: O_22  and  C_23
REMARK                            x       y       z     vdW  Elec       q    Type
REMARK                         _______ _______ _______ _____ _____    ______ ____
ROOT
ATOM      1  C   UNL     1      48.695   8.092  16.637  0.00  0.00    +0.000 C 
ATOM      2  C   UNL     1      49.661   9.168  17.172  0.00  0.00    +0.000 C 
ATOM      3  C   UNL     1      48.239   9.512  16.963  0.00  0.00    +0.000 C 
ENDROOT
BRANCH   1   4
ATOM      4  C   UNL     1      48.782   7.802  15.137  0.00  0.00    +0.000 A 
ATOM      5  C   UNL     1      49.975   7.999  14.429  0.00  0.00    +0.000 A 
ATOM      6  C   UNL     1      50.086   7.617  13.096  0.00  0.00    +0.000 A 
ATOM      7  C   UNL     1      49.009   7.007  12.455  0.00  0.00    +0.000 A 
ATOM      8  C   UNL     1      47.801   6.756  13.133  0.00  0.00    +0.000 A 
ATOM      9  C   UNL     1      47.699   7.217  14.451  0.00  0.00    +0.000 A 
BRANCH   8  10
ATOM     10  C   UNL     1      46.737   5.926  12.532  0.00  0.00    +0.000 A 
ATOM     11  C   UNL     1      46.227   6.250  11.261  0.00  0.00    +0.000 A 
ATOM     12  C   UNL     1      45.276   5.452  10.622  0.00  0.00    +0.000 A 
ATOM     13  C   UNL     1      44.836   4.281  11.228  0.00  0.00    +0.000 A 
ATOM     14  C   UNL     1      45.309   3.946  12.495  0.00  0.00    +0.000 A 
ATOM     15  C   UNL     1      46.251   4.757  13.140  0.00  0.00    +0.000 A 
BRANCH  13  16
ATOM     16  O   UNL     1      43.943   3.404  10.684  0.00  0.00    +0.000 OA
BRANCH  16  17
ATOM     17  C   UNL     1      44.406   2.710   9.538  0.00  0.00    +0.000 C 
ATOM     18  F   UNL     1      44.303   3.558   8.484  0.00  0.00    +0.000 F 
ATOM     19  F   UNL     1      45.724   2.439   9.698  0.00  0.00    +0.000 F 
ENDBRANCH  16  17
ENDBRANCH  13  16
ENDBRANCH   8  10
ENDBRANCH   1   4
BRANCH   1  20
ATOM     20  N   UNL     1      48.701   6.862  17.447  0.00  0.00    +0.000 N 
ATOM     21  H   UNL     1      48.397   6.968  18.413  0.00  0.00    +0.000 HD
BRANCH  20  28
ATOM     22  C   UNL     1      47.301   4.150  16.875  0.00  0.00    +0.000 C 
ATOM     23  C   UNL     1      48.736   4.374  17.189  0.00  0.00    +0.000 A 
ATOM     24  C   UNL     1      49.525   3.217  17.308  0.00  0.00    +0.000 A 
ATOM     25  C   UNL     1      50.890   3.280  17.544  0.00  0.00    +0.000 A 
ATOM     26  C   UNL     1      51.420   4.548  17.653  0.00  0.00    +0.000 A 
ATOM     27  N   UNL     1      50.676   5.695  17.580  0.00  0.00    +0.000 NA
ATOM     28  C   UNL     1      49.330   5.620  17.373  0.00  0.00    +0.000 A 
BRANCH  25  29
ATOM     29  C   UNL     1      51.630   1.995  17.648  0.00  0.00    +0.000 C 
ATOM     30  N   UNL     1      52.702   1.890  18.483  0.00  0.00    +0.000 N 
ATOM     31  O   UNL     1      51.292   1.020  16.994  0.00  0.00    +0.000 OA
ATOM     32  H   UNL     1      53.064   2.615  19.084  0.00  0.00    +0.000 HD
ATOM     33  H   UNL     1      53.154   0.985  18.511  0.00  0.00    +0.000 HD
ENDBRANCH  25  29
ENDBRANCH  20  28
ENDBRANCH   1  20
TORSDOF 7
ENDMDL
MODEL 8
REMARK VINA RESULT:    -7.282      3.343      5.215
REMARK INTER + INTRA:         -11.163
REMARK INTER:                  -9.670
REMARK INTRA:                  -1.493
REMARK UNBOUND:                -0.902
REMARK  Name = 
REMARK  8 active torsions:
REMARK  status: ('A' for Active; 'I' for Inactive)
REMARK    1  A    between atoms: C_1  and  C_2
REMARK    2  A    between atoms: C_4  and  C_5
REMARK    3  A    between atoms: C_10  and  N_11
REMARK    4  A    between atoms: N_11  and  C_12
REMARK    5  A    between atoms: C_12  and  C_13
REMARK    6  A    between atoms: C_17  and  C_18
REMARK    7  A    between atoms: C_21  and  O_22
REMARK    8  A    between atoms: O_22  and  C_23
REMARK                            x       y       z     vdW  Elec       q    Type
REMARK                         _______ _______ _______ _____ _____    ______ ____
ROOT
ATOM      1  C   UNL     1      48.208   7.845  13.074  0.00  0.00    +0.000 C 
ATOM      2  C   UNL     1      48.560   9.042  12.169  0.00  0.00    +0.000 C 
ATOM      3  C   UNL     1      49.334   7.789  12.045  0.00  0.00    +0.000 C 
ENDROOT
BRANCH   1   4
ATOM      4  C   UNL     1      48.700   7.935  14.521  0.00  0.00    +0.000 A 
ATOM      5  C   UNL     1      48.227   8.929  15.387  0.00  0.00    +0.000 A 
ATOM      6  C   UNL     1      48.579   8.932  16.733  0.00  0.00    +0.000 A 
ATOM      7  C   UNL     1      49.394   7.922  17.240  0.00  0.00    +0.000 A 
ATOM      8  C   UNL     1      49.868   6.881  16.419  0.00  0.00    +0.000 A 
ATOM      9  C   UNL     1      49.552   6.948  15.057  0.00  0.00    +0.000 A 
BRANCH   8  10
ATOM     10  C   UNL     1      50.550   5.700  16.986  0.00  0.00    +0.000 A 
ATOM     11  C   UNL     1      49.812   4.541  17.291  0.00  0.00    +0.000 A 
ATOM     12  C   UNL     1      50.425   3.377  17.757  0.00  0.00    +0.000 A 
ATOM     13  C   UNL     1      51.808   3.331  17.896  0.00  0.00    +0.000 A 
ATOM     14  C   UNL     1      52.562   4.471  17.621  0.00  0.00    +0.000 A 
ATOM     15  C   UNL     1      51.942   5.641  17.168  0.00  0.00    +0.000 A 
BRANCH  13  16
ATOM     16  O   UNL     1      52.520   2.241  18.303  0.00  0.00    +0.000 OA
BRANCH  16  17
ATOM     17  C   UNL     1      52.332   1.075  17.519  0.00  0.00    +0.000 C 
ATOM     18  F   UNL     1      53.515   0.411  17.494  0.00  0.00    +0.000 F 
ATOM     19  F   UNL     1      51.442   0.268  18.147  0.00  0.00    +0.000 F 
ENDBRANCH  16  17
ENDBRANCH  13  16
ENDBRANCH   8  10
ENDBRANCH   1   4
BRANCH   1  20
ATOM     20  N   UNL     1      46.790   7.456  12.988  0.00  0.00    +0.000 N 
ATOM     21  H   UNL     1      46.144   8.021  13.534  0.00  0.00    +0.000 HD
BRANCH  20  28
ATOM     22  C   UNL     1      46.838   4.750  14.510  0.00  0.00    +0.000 C 
ATOM     23  C   UNL     1      46.135   5.055  13.237  0.00  0.00    +0.000 A 
ATOM     24  C   UNL     1      45.479   3.973  12.624  0.00  0.00    +0.000 A 
ATOM     25  C   UNL     1      44.739   4.126  11.463  0.00  0.00    +0.000 A 
ATOM     26  C   UNL     1      44.686   5.404  10.950  0.00  0.00    +0.000 A 
ATOM     27  N   UNL     1      45.342   6.473  11.499  0.00  0.00    +0.000 NA
ATOM     28  C   UNL     1      46.090   6.306  12.627  0.00  0.00    +0.000 A 
BRANCH  25  29
ATOM     29  C   UNL     1      44.082   2.915  10.902  0.00  0.00    +0.000 C 
ATOM     30  N   UNL     1      44.648   2.256   9.852  0.00  0.00    +0.000 N 
ATOM     31  O   UNL     1      43.034   2.494  11.369  0.00  0.00    +0.000 OA
ATOM     32  H   UNL     1      45.515   2.494   9.394  0.00  0.00    +0.000 HD
ATOM     33  H   UNL     1      44.153   1.436   9.526  0.00  0.00    +0.000 HD
ENDBRANCH  25  29
ENDBRANCH  20  28
ENDBRANCH   1  20
TORSDOF 7
ENDMDL
MODEL 9
REMARK VINA RESULT:    -7.167      5.103      8.715
REMARK INTER + INTRA:         -11.001
REMARK INTER:                  -9.405
REMARK INTRA:                  -1.596
REMARK UNBOUND:                -0.902
REMARK  Name = 
REMARK  8 active torsions:
REMARK  status: ('A' for Active; 'I' for Inactive)
REMARK    1  A    between atoms: C_1  and  C_2
REMARK    2  A    between atoms: C_4  and  C_5
REMARK    3  A    between atoms: C_10  and  N_11
REMARK    4  A    between atoms: N_11  and  C_12
REMARK    5  A    between atoms: C_12  and  C_13
REMARK    6  A    between atoms: C_17  and  C_18
REMARK    7  A    between atoms: C_21  and  O_22
REMARK    8  A    between atoms: O_22  and  C_23
REMARK                            x       y       z     vdW  Elec       q    Type
REMARK                         _______ _______ _______ _____ _____    ______ ____
ROOT
ATOM      1  C   UNL     1      48.922   8.767  17.047  0.00  0.00    +0.000 C 
ATOM      2  C   UNL     1      49.638  10.061  17.479  0.00  0.00    +0.000 C 
ATOM      3  C   UNL     1      48.181  10.088  17.235  0.00  0.00    +0.000 C 
ENDROOT
BRANCH   1   4
ATOM      4  C   UNL     1      49.097   8.362  15.581  0.00  0.00    +0.000 A 
ATOM      5  C   UNL     1      50.344   8.455  14.949  0.00  0.00    +0.000 A 
ATOM      6  C   UNL     1      50.529   7.970  13.657  0.00  0.00    +0.000 A 
ATOM      7  C   UNL     1      49.470   7.361  12.986  0.00  0.00    +0.000 A 
ATOM      8  C   UNL     1      48.208   7.213  13.591  0.00  0.00    +0.000 A 
ATOM      9  C   UNL     1      48.038   7.774  14.862  0.00  0.00    +0.000 A 
BRANCH   8  10
ATOM     10  C   UNL     1      47.149   6.386  12.975  0.00  0.00    +0.000 A 
ATOM     11  C   UNL     1      46.690   6.684  11.678  0.00  0.00    +0.000 A 
ATOM     12  C   UNL     1      45.747   5.886  11.028  0.00  0.00    +0.000 A 
ATOM     13  C   UNL     1      45.262   4.741  11.650  0.00  0.00    +0.000 A 
ATOM     14  C   UNL     1      45.683   4.434  12.943  0.00  0.00    +0.000 A 
ATOM     15  C   UNL     1      46.618   5.244  13.598  0.00  0.00    +0.000 A 
BRANCH  13  16
ATOM     16  O   UNL     1      44.371   3.867  11.099  0.00  0.00    +0.000 OA
BRANCH  16  17
ATOM     17  C   UNL     1      44.639   3.505   9.755  0.00  0.00    +0.000 C 
ATOM     18  F   UNL     1      44.182   2.239   9.580  0.00  0.00    +0.000 F 
ATOM     19  F   UNL     1      43.909   4.303   8.938  0.00  0.00    +0.000 F 
ENDBRANCH  16  17
ENDBRANCH  13  16
ENDBRANCH   8  10
ENDBRANCH   1   4
BRANCH   1  20
ATOM     20  N   UNL     1      49.158   7.643  17.970  0.00  0.00    +0.000 N 
ATOM     21  H   UNL     1      49.335   7.899  18.939  0.00  0.00    +0.000 HD
BRANCH  20  28
ATOM     22  C   UNL     1      52.083   6.618  17.783  0.00  0.00    +0.000 C 
ATOM     23  C   UNL     1      50.838   5.812  17.687  0.00  0.00    +0.000 A 
ATOM     24  C   UNL     1      51.012   4.445  17.410  0.00  0.00    +0.000 A 
ATOM     25  C   UNL     1      49.942   3.566  17.347  0.00  0.00    +0.000 A 
ATOM     26  C   UNL     1      48.700   4.118  17.575  0.00  0.00    +0.000 A 
ATOM     27  N   UNL     1      48.490   5.450  17.810  0.00  0.00    +0.000 NA
ATOM     28  C   UNL     1      49.548   6.311  17.844  0.00  0.00    +0.000 A 
BRANCH  25  29
ATOM     29  C   UNL     1      50.240   2.139  17.052  0.00  0.00    +0.000 C 
ATOM     30  N   UNL     1      51.145   1.460  17.811  0.00  0.00    +0.000 N 
ATOM     31  O   UNL     1      49.683   1.558  16.132  0.00  0.00    +0.000 OA
ATOM     32  H   UNL     1      51.654   1.824  18.603  0.00  0.00    +0.000 HD
ATOM     33  H   UNL     1      51.294   0.491  17.560  0.00  0.00    +0.000 HD
ENDBRANCH  25  29
ENDBRANCH  20  28
ENDBRANCH   1  20
TORSDOF 7
ENDMDL
