MODEL 1
REMARK VINA RESULT:    -9.373      0.000      0.000
REMARK INTER + INTRA:         -12.706
REMARK INTER:                 -12.387
REMARK INTRA:                  -0.319
REMARK UNBOUND:                -0.319
REMARK  Name = 
REMARK  6 active torsions:
REMARK  status: ('A' for Active; 'I' for Inactive)
REMARK    1  A    between atoms: C_2  and  C_19
REMARK    2  A    between atoms: N_3  and  C_4
REMARK    3  A    between atoms: C_4  and  C_5
REMARK    4  A    between atoms: N_8  and  C_9
REMARK    5  A    between atoms: C_9  and  C_10
REMARK    6  A    between atoms: C_13  and  O_14
REMARK                            x       y       z     vdW  Elec       q    Type
REMARK                         _______ _______ _______ _____ _____    ______ ____
ROOT
ATOM      1  C   UNL     1      45.257   7.450  12.128  0.00  0.00    +0.000 C 
ENDROOT
BRANCH   1   2
ATOM      2  C   UNL     1      45.021   6.166  11.373  0.00  0.00    +0.000 C 
ATOM      3  C   UNL     1      43.985   5.374  11.714  0.00  0.00    +0.000 C 
ATOM      4  C   UNL     1      43.717   4.191  10.949  0.00  0.00    +0.000 C 
ATOM      5  N   UNL     1      44.559   3.906   9.897  0.00  0.00    +0.000 N 
ATOM      6  C   UNL     1      45.587   4.804   9.649  0.00  0.00    +0.000 C 
ATOM      7  N   UNL     1      45.870   5.893  10.307  0.00  0.00    +0.000 NA
BRANCH   5   8
ATOM      8  C   UNL     1      44.371   2.729   9.052  0.00  0.00    +0.000 C 
BRANCH   8   9
ATOM      9  C   UNL     1      45.551   2.525   8.127  0.00  0.00    +0.000 A 
ATOM     10  C   UNL     1      45.864   3.483   7.150  0.00  0.00    +0.000 A 
ATOM     11  C   UNL     1      46.879   3.246   6.221  0.00  0.00    +0.000 A 
ATOM     12  C   UNL     1      47.595   2.055   6.278  0.00  0.00    +0.000 A 
ATOM     13  C   UNL     1      47.333   1.115   7.265  0.00  0.00    +0.000 A 
ATOM     14  C   UNL     1      46.312   1.346   8.188  0.00  0.00    +0.000 A 
BRANCH  12  15
ATOM     15  O   UNL     1      48.565   1.766   5.364  0.00  0.00    +0.000 OA
ATOM     16  H   UNL     1      48.137   1.502   4.533  0.00  0.00    +0.000 HD
ENDBRANCH  12  15
ENDBRANCH   8   9
ENDBRANCH   5   8
ENDBRANCH   1   2
BRANCH   1  19
ATOM     17  O   UNL     1      48.085   7.379  12.255  0.00  0.00    +0.000 OA
ATOM     18  C   UNL     1      47.424   7.098  13.253  0.00  0.00    +0.000 C 
ATOM     19  N   UNL     1      46.058   7.168  13.293  0.00  0.00    +0.000 N 
ATOM     20  H   UNL     1      45.551   6.928  14.132  0.00  0.00    +0.000 HD
BRANCH  18  21
ATOM     21  C   UNL     1      48.063   6.707  14.508  0.00  0.00    +0.000 A 
ATOM     22  C   UNL     1      49.027   7.512  15.095  0.00  0.00    +0.000 A 
ATOM     23  S   UNL     1      49.605   6.891  16.578  0.00  0.00    +0.000 S 
ATOM     24  C   UNL     1      48.612   5.512  16.455  0.00  0.00    +0.000 A 
ATOM     25  N   UNL     1      48.608   4.555  17.421  0.00  0.00    +0.000 NA
ATOM     26  C   UNL     1      47.816   3.564  17.185  0.00  0.00    +0.000 A 
ATOM     27  N   UNL     1      47.036   3.433  16.064  0.00  0.00    +0.000 N 
ATOM     28  C   UNL     1      47.018   4.369  15.055  0.00  0.00    +0.000 A 
ATOM     29  O   UNL     1      46.311   4.201  14.065  0.00  0.00    +0.000 OA
ATOM     30  C   UNL     1      47.861   5.517  15.293  0.00  0.00    +0.000 A 
ATOM     31  H   UNL     1      46.444   2.626  15.936  0.00  0.00    +0.000 HD
ENDBRANCH  18  21
ENDBRANCH   1  19
TORSDOF 6
ENDMDL
MODEL 2
REMARK VINA RESULT:    -9.133      1.866      2.640
REMARK INTER + INTRA:         -12.389
REMARK INTER:                 -12.103
REMARK INTRA:                  -0.286
REMARK UNBOUND:                -0.319
REMARK  Name = 
REMARK  6 active torsions:
REMARK  status: ('A' for Active; 'I' for Inactive)
REMARK    1  A    between atoms: C_2  and  C_19
REMARK    2  A    between atoms: N_3  and  C_4
REMARK    3  A    between atoms: C_4  and  C_5
REMARK    4  A    between atoms: N_8  and  C_9
REMARK    5  A    between atoms: C_9  and  C_10
REMARK    6  A    between atoms: C_13  and  O_14
REMARK                            x       y       z     vdW  Elec       q    Type
REMARK                         _______ _______ _______ _____ _____    ______ ____
ROOT
ATOM      1  C   UNL     1      46.295   6.582  12.914  0.00  0.00    +0.000 C 
ENDROOT
BRANCH   1   2
ATOM      2  C   UNL     1      45.774   5.577  11.918  0.00  0.00    +0.000 C 
ATOM      3  C   UNL     1      45.677   5.918  10.617  0.00  0.00    +0.000 C 
ATOM      4  C   UNL     1      45.252   4.940   9.659  0.00  0.00    +0.000 C 
ATOM      5  N   UNL     1      44.938   3.682  10.126  0.00  0.00    +0.000 N 
ATOM      6  C   UNL     1      45.083   3.460  11.488  0.00  0.00    +0.000 C 
ATOM      7  N   UNL     1      45.470   4.309  12.397  0.00  0.00    +0.000 NA
BRANCH   5   8
ATOM      8  C   UNL     1      44.500   2.612   9.233  0.00  0.00    +0.000 C 
BRANCH   8   9
ATOM      9  C   UNL     1      45.523   2.349   8.150  0.00  0.00    +0.000 A 
ATOM     10  C   UNL     1      46.290   1.173   8.167  0.00  0.00    +0.000 A 
ATOM     11  C   UNL     1      47.314   0.979   7.237  0.00  0.00    +0.000 A 
ATOM     12  C   UNL     1      47.563   1.955   6.279  0.00  0.00    +0.000 A 
ATOM     13  C   UNL     1      46.786   3.104   6.216  0.00  0.00    +0.000 A 
ATOM     14  C   UNL     1      45.769   3.304   7.151  0.00  0.00    +0.000 A 
BRANCH  12  15
ATOM     15  O   UNL     1      48.580   1.825   5.381  0.00  0.00    +0.000 OA
ATOM     16  H   UNL     1      48.844   0.891   5.347  0.00  0.00    +0.000 HD
ENDBRANCH  12  15
ENDBRANCH   8   9
ENDBRANCH   5   8
ENDBRANCH   1   2
BRANCH   1  19
ATOM     17  O   UNL     1      48.804   6.287  14.192  0.00  0.00    +0.000 OA
ATOM     18  C   UNL     1      47.806   5.766  14.685  0.00  0.00    +0.000 C 
ATOM     19  N   UNL     1      46.549   5.913  14.166  0.00  0.00    +0.000 N 
ATOM     20  H   UNL     1      45.753   5.468  14.600  0.00  0.00    +0.000 HD
BRANCH  18  21
ATOM     21  C   UNL     1      47.882   4.977  15.913  0.00  0.00    +0.000 A 
ATOM     22  C   UNL     1      47.518   3.639  15.921  0.00  0.00    +0.000 A 
ATOM     23  S   UNL     1      47.731   2.896  17.444  0.00  0.00    +0.000 S 
ATOM     24  C   UNL     1      48.276   4.351  18.143  0.00  0.00    +0.000 A 
ATOM     25  N   UNL     1      48.643   4.413  19.451  0.00  0.00    +0.000 NA
ATOM     26  C   UNL     1      49.022   5.582  19.842  0.00  0.00    +0.000 A 
ATOM     27  N   UNL     1      49.054   6.703  19.051  0.00  0.00    +0.000 N 
ATOM     28  C   UNL     1      48.678   6.690  17.726  0.00  0.00    +0.000 A 
ATOM     29  O   UNL     1      48.713   7.722  17.062  0.00  0.00    +0.000 OA
ATOM     30  C   UNL     1      48.283   5.392  17.232  0.00  0.00    +0.000 A 
ATOM     31  H   UNL     1      49.352   7.592  19.422  0.00  0.00    +0.000 HD
ENDBRANCH  18  21
ENDBRANCH   1  19
TORSDOF 6
ENDMDL
MODEL 3
REMARK VINA RESULT:    -9.009      2.308      3.882
REMARK INTER + INTRA:         -12.226
REMARK INTER:                 -11.227
REMARK INTRA:                  -0.999
REMARK UNBOUND:                -0.319
REMARK  Name = 
REMARK  6 active torsions:
REMARK  status: ('A' for Active; 'I' for Inactive)
REMARK    1  A    between atoms: C_2  and  C_19
REMARK    2  A    between atoms: N_3  and  C_4
REMARK    3  A    between atoms: C_4  and  C_5
REMARK    4  A    between atoms: N_8  and  C_9
REMARK    5  A    between atoms: C_9  and  C_10
REMARK    6  A    between atoms: C_13  and  O_14
REMARK                            x       y       z     vdW  Elec       q    Type
REMARK                         _______ _______ _______ _____ _____    ______ ____
ROOT
ATOM      1  C   UNL     1      46.776   4.884  14.352  0.00  0.00    +0.000 C 
ENDROOT
BRANCH   1   2
ATOM      2  C   UNL     1      46.089   4.547  13.054  0.00  0.00    +0.000 C 
ATOM      3  C   UNL     1      45.932   5.501  12.115  0.00  0.00    +0.000 C 
ATOM      4  C   UNL     1      45.345   5.163  10.852  0.00  0.00    +0.000 C 
ATOM      5  N   UNL     1      44.943   3.859  10.663  0.00  0.00    +0.000 N 
ATOM      6  C   UNL     1      45.164   2.972  11.708  0.00  0.00    +0.000 C 
ATOM      7  N   UNL     1      45.697   3.226  12.869  0.00  0.00    +0.000 NA
BRANCH   5   8
ATOM      8  C   UNL     1      44.339   3.408   9.412  0.00  0.00    +0.000 C 
BRANCH   8   9
ATOM      9  C   UNL     1      45.391   2.917   8.442  0.00  0.00    +0.000 A 
ATOM     10  C   UNL     1      45.813   1.578   8.467  0.00  0.00    +0.000 A 
ATOM     11  C   UNL     1      46.864   1.148   7.654  0.00  0.00    +0.000 A 
ATOM     12  C   UNL     1      47.485   2.054   6.801  0.00  0.00    +0.000 A 
ATOM     13  C   UNL     1      47.052   3.371   6.726  0.00  0.00    +0.000 A 
ATOM     14  C   UNL     1      46.009   3.804   7.546  0.00  0.00    +0.000 A 
BRANCH  12  15
ATOM     15  O   UNL     1      48.541   1.685   6.022  0.00  0.00    +0.000 OA
ATOM     16  H   UNL     1      49.341   1.672   6.573  0.00  0.00    +0.000 HD
ENDBRANCH  12  15
ENDBRANCH   8   9
ENDBRANCH   5   8
ENDBRANCH   1   2
BRANCH   1  19
ATOM     17  O   UNL     1      49.214   5.848  15.424  0.00  0.00    +0.000 OA
ATOM     18  C   UNL     1      48.438   6.630  14.880  0.00  0.00    +0.000 C 
ATOM     19  N   UNL     1      47.271   6.237  14.283  0.00  0.00    +0.000 N 
ATOM     20  H   UNL     1      46.659   6.911  13.846  0.00  0.00    +0.000 HD
BRANCH  18  21
ATOM     21  C   UNL     1      48.732   8.059  14.786  0.00  0.00    +0.000 A 
ATOM     22  C   UNL     1      48.758   8.854  15.922  0.00  0.00    +0.000 A 
ATOM     23  S   UNL     1      49.170  10.479  15.591  0.00  0.00    +0.000 S 
ATOM     24  C   UNL     1      49.284  10.172  13.919  0.00  0.00    +0.000 A 
ATOM     25  N   UNL     1      49.619  11.155  13.042  0.00  0.00    +0.000 NA
ATOM     26  C   UNL     1      49.654  10.777  11.808  0.00  0.00    +0.000 A 
ATOM     27  N   UNL     1      49.371   9.508  11.368  0.00  0.00    +0.000 N 
ATOM     28  C   UNL     1      49.014   8.487  12.218  0.00  0.00    +0.000 A 
ATOM     29  O   UNL     1      48.757   7.371  11.774  0.00  0.00    +0.000 OA
ATOM     30  C   UNL     1      48.999   8.853  13.616  0.00  0.00    +0.000 A 
ATOM     31  H   UNL     1      49.407   9.280  10.386  0.00  0.00    +0.000 HD
ENDBRANCH  18  21
ENDBRANCH   1  19
TORSDOF 6
ENDMDL
MODEL 4
REMARK VINA RESULT:    -8.669      2.479      3.556
REMARK INTER + INTRA:         -11.775
REMARK INTER:                 -11.022
REMARK INTRA:                  -0.754
REMARK UNBOUND:                -0.319
REMARK  Name = 
REMARK  6 active torsions:
REMARK  status: ('A' for Active; 'I' for Inactive)
REMARK    1  A    between atoms: C_2  and  C_19
REMARK    2  A    between atoms: N_3  and  C_4
REMARK    3  A    between atoms: C_4  and  C_5
REMARK    4  A    between atoms: N_8  and  C_9
REMARK    5  A    between atoms: C_9  and  C_10
REMARK    6  A    between atoms: C_13  and  O_14
REMARK                            x       y       z     vdW  Elec       q    Type
REMARK                         _______ _______ _______ _____ _____    ______ ____
ROOT
ATOM      1  C   UNL     1      46.017   5.228  13.942  0.00  0.00    +0.000 C 
ENDROOT
BRANCH   1   2
ATOM      2  C   UNL     1      45.523   4.641  12.644  0.00  0.00    +0.000 C 
ATOM      3  C   UNL     1      45.214   5.459  11.618  0.00  0.00    +0.000 C 
ATOM      4  C   UNL     1      44.815   4.898  10.361  0.00  0.00    +0.000 C 
ATOM      5  N   UNL     1      44.746   3.525  10.267  0.00  0.00    +0.000 N 
ATOM      6  C   UNL     1      45.093   2.796  11.396  0.00  0.00    +0.000 C 
ATOM      7  N   UNL     1      45.468   3.255  12.556  0.00  0.00    +0.000 NA
BRANCH   5   8
ATOM      8  C   UNL     1      44.356   2.852   9.030  0.00  0.00    +0.000 C 
BRANCH   8   9
ATOM      9  C   UNL     1      45.559   2.574   8.155  0.00  0.00    +0.000 A 
ATOM     10  C   UNL     1      46.028   3.548   7.259  0.00  0.00    +0.000 A 
ATOM     11  C   UNL     1      47.063   3.256   6.369  0.00  0.00    +0.000 A 
ATOM     12  C   UNL     1      47.644   1.992   6.385  0.00  0.00    +0.000 A 
ATOM     13  C   UNL     1      47.228   1.030   7.295  0.00  0.00    +0.000 A 
ATOM     14  C   UNL     1      46.185   1.317   8.178  0.00  0.00    +0.000 A 
BRANCH  12  15
ATOM     15  O   UNL     1      48.628   1.653   5.505  0.00  0.00    +0.000 OA
ATOM     16  H   UNL     1      49.487   1.856   5.909  0.00  0.00    +0.000 HD
ENDBRANCH  12  15
ENDBRANCH   8   9
ENDBRANCH   5   8
ENDBRANCH   1   2
BRANCH   1  19
ATOM     17  O   UNL     1      48.676   5.897  13.233  0.00  0.00    +0.000 OA
ATOM     18  C   UNL     1      47.851   6.790  13.409  0.00  0.00    +0.000 C 
ATOM     19  N   UNL     1      46.533   6.551  13.691  0.00  0.00    +0.000 N 
ATOM     20  H   UNL     1      45.886   7.313  13.830  0.00  0.00    +0.000 HD
BRANCH  18  21
ATOM     21  C   UNL     1      48.211   8.202  13.280  0.00  0.00    +0.000 A 
ATOM     22  C   UNL     1      48.242   8.815  12.037  0.00  0.00    +0.000 A 
ATOM     23  S   UNL     1      48.640  10.475  12.120  0.00  0.00    +0.000 S 
ATOM     24  C   UNL     1      48.820  10.407  13.813  0.00  0.00    +0.000 A 
ATOM     25  N   UNL     1      49.151  11.512  14.533  0.00  0.00    +0.000 NA
ATOM     26  C   UNL     1      49.264  11.305  15.802  0.00  0.00    +0.000 A 
ATOM     27  N   UNL     1      49.091  10.091  16.418  0.00  0.00    +0.000 N 
ATOM     28  C   UNL     1      48.770   8.944  15.728  0.00  0.00    +0.000 A 
ATOM     29  O   UNL     1      48.638   7.878  16.323  0.00  0.00    +0.000 OA
ATOM     30  C   UNL     1      48.594   9.135  14.306  0.00  0.00    +0.000 A 
ATOM     31  H   UNL     1      49.204   9.995  17.415  0.00  0.00    +0.000 HD
ENDBRANCH  18  21
ENDBRANCH   1  19
TORSDOF 6
ENDMDL
MODEL 5
REMARK VINA RESULT:    -8.646      2.506      3.253
REMARK INTER + INTRA:         -11.745
REMARK INTER:                 -10.874
REMARK INTRA:                  -0.871
REMARK UNBOUND:                -0.319
REMARK  Name = 
REMARK  6 active torsions:
REMARK  status: ('A' for Active; 'I' for Inactive)
REMARK    1  A    between atoms: C_2  and  C_19
REMARK    2  A    between atoms: N_3  and  C_4
REMARK    3  A    between atoms: C_4  and  C_5
REMARK    4  A    between atoms: N_8  and  C_9
REMARK    5  A    between atoms: C_9  and  C_10
REMARK    6  A    between atoms: C_13  and  O_14
REMARK                            x       y       z     vdW  Elec       q    Type
REMARK                         _______ _______ _______ _____ _____    ______ ____
ROOT
ATOM      1  C   UNL     1      45.960   5.711  13.688  0.00  0.00    +0.000 C 
ENDROOT
BRANCH   1   2
ATOM      2  C   UNL     1      45.484   4.951  12.477  0.00  0.00    +0.000 C 
ATOM      3  C   UNL     1      45.137   5.625  11.362  0.00  0.00    +0.000 C 
ATOM      4  C   UNL     1      44.755   4.900  10.186  0.00  0.00    +0.000 C 
ATOM      5  N   UNL     1      44.741   3.525  10.260  0.00  0.00    +0.000 N 
ATOM      6  C   UNL     1      45.123   2.953  11.465  0.00  0.00    +0.000 C 
ATOM      7  N   UNL     1      45.484   3.564  12.558  0.00  0.00    +0.000 NA
BRANCH   5   8
ATOM      8  C   UNL     1      44.372   2.691   9.118  0.00  0.00    +0.000 C 
BRANCH   8   9
ATOM      9  C   UNL     1      45.550   2.480   8.191  0.00  0.00    +0.000 A 
ATOM     10  C   UNL     1      45.946   3.492   7.302  0.00  0.00    +0.000 A 
ATOM     11  C   UNL     1      46.957   3.260   6.367  0.00  0.00    +0.000 A 
ATOM     12  C   UNL     1      47.584   2.020   6.329  0.00  0.00    +0.000 A 
ATOM     13  C   UNL     1      47.240   1.022   7.231  0.00  0.00    +0.000 A 
ATOM     14  C   UNL     1      46.223   1.248   8.159  0.00  0.00    +0.000 A 
BRANCH  12  15
ATOM     15  O   UNL     1      48.546   1.739   5.405  0.00  0.00    +0.000 OA
ATOM     16  H   UNL     1      48.626   2.496   4.803  0.00  0.00    +0.000 HD
ENDBRANCH  12  15
ENDBRANCH   8   9
ENDBRANCH   5   8
ENDBRANCH   1   2
BRANCH   1  19
ATOM     17  O   UNL     1      46.619   8.465  13.644  0.00  0.00    +0.000 OA
ATOM     18  C   UNL     1      47.472   7.631  13.349  0.00  0.00    +0.000 C 
ATOM     19  N   UNL     1      47.254   6.281  13.406  0.00  0.00    +0.000 N 
ATOM     20  H   UNL     1      47.981   5.627  13.154  0.00  0.00    +0.000 HD
BRANCH  18  21
ATOM     21  C   UNL     1      48.824   8.025  12.954  0.00  0.00    +0.000 A 
ATOM     22  C   UNL     1      49.058   8.623  11.725  0.00  0.00    +0.000 A 
ATOM     23  S   UNL     1      50.696   9.046  11.489  0.00  0.00    +0.000 S 
ATOM     24  C   UNL     1      51.141   8.405  13.004  0.00  0.00    +0.000 A 
ATOM     25  N   UNL     1      52.428   8.452  13.440  0.00  0.00    +0.000 NA
ATOM     26  C   UNL     1      52.617   7.917  14.599  0.00  0.00    +0.000 A 
ATOM     27  N   UNL     1      51.639   7.326  15.359  0.00  0.00    +0.000 N 
ATOM     28  C   UNL     1      50.326   7.244  14.951  0.00  0.00    +0.000 A 
ATOM     29  O   UNL     1      49.489   6.693  15.662  0.00  0.00    +0.000 OA
ATOM     30  C   UNL     1      50.059   7.864  13.674  0.00  0.00    +0.000 A 
ATOM     31  H   UNL     1      51.855   6.917  16.255  0.00  0.00    +0.000 HD
ENDBRANCH  18  21
ENDBRANCH   1  19
TORSDOF 6
ENDMDL
MODEL 6
REMARK VINA RESULT:    -8.605      2.779      3.524
REMARK INTER + INTRA:         -11.691
REMARK INTER:                 -10.948
REMARK INTRA:                  -0.743
REMARK UNBOUND:                -0.319
REMARK  Name = 
REMARK  6 active torsions:
REMARK  status: ('A' for Active; 'I' for Inactive)
REMARK    1  A    between atoms: C_2  and  C_19
REMARK    2  A    between atoms: N_3  and  C_4
REMARK    3  A    between atoms: C_4  and  C_5
REMARK    4  A    between atoms: N_8  and  C_9
REMARK    5  A    between atoms: C_9  and  C_10
REMARK    6  A    between atoms: C_13  and  O_14
REMARK                            x       y       z     vdW  Elec       q    Type
REMARK                         _______ _______ _______ _____ _____    ______ ____
ROOT
ATOM      1  C   UNL     1      44.275   6.329  13.202  0.00  0.00    +0.000 C 
ENDROOT
BRANCH   1   2
ATOM      2  C   UNL     1      44.363   5.245  12.158  0.00  0.00    +0.000 C 
ATOM      3  C   UNL     1      45.194   4.201  12.351  0.00  0.00    +0.000 C 
ATOM      4  C   UNL     1      45.223   3.133  11.395  0.00  0.00    +0.000 C 
ATOM      5  N   UNL     1      44.400   3.238  10.295  0.00  0.00    +0.000 N 
ATOM      6  C   UNL     1      43.590   4.363  10.216  0.00  0.00    +0.000 C 
ATOM      7  N   UNL     1      43.521   5.355  11.058  0.00  0.00    +0.000 NA
BRANCH   5   8
ATOM      8  C   UNL     1      44.349   2.204   9.264  0.00  0.00    +0.000 C 
BRANCH   8   9
ATOM      9  C   UNL     1      45.549   2.285   8.347  0.00  0.00    +0.000 A 
ATOM     10  C   UNL     1      45.856   3.482   7.680  0.00  0.00    +0.000 A 
ATOM     11  C   UNL     1      46.892   3.530   6.745  0.00  0.00    +0.000 A 
ATOM     12  C   UNL     1      47.635   2.384   6.487  0.00  0.00    +0.000 A 
ATOM     13  C   UNL     1      47.379   1.202   7.170  0.00  0.00    +0.000 A 
ATOM     14  C   UNL     1      46.337   1.150   8.096  0.00  0.00    +0.000 A 
BRANCH  12  15
ATOM     15  O   UNL     1      48.627   2.377   5.552  0.00  0.00    +0.000 OA
ATOM     16  H   UNL     1      48.464   1.645   4.934  0.00  0.00    +0.000 HD
ENDBRANCH  12  15
ENDBRANCH   8   9
ENDBRANCH   5   8
ENDBRANCH   1   2
BRANCH   1  19
ATOM     17  O   UNL     1      44.452   8.508  11.402  0.00  0.00    +0.000 OA
ATOM     18  C   UNL     1      45.418   8.221  12.105  0.00  0.00    +0.000 C 
ATOM     19  N   UNL     1      45.394   7.224  13.043  0.00  0.00    +0.000 N 
ATOM     20  H   UNL     1      46.210   7.018  13.601  0.00  0.00    +0.000 HD
BRANCH  18  21
ATOM     21  C   UNL     1      46.673   8.966  12.024  0.00  0.00    +0.000 A 
ATOM     22  C   UNL     1      46.673  10.331  11.778  0.00  0.00    +0.000 A 
ATOM     23  S   UNL     1      48.241  11.010  11.773  0.00  0.00    +0.000 S 
ATOM     24  C   UNL     1      48.962   9.493  12.059  0.00  0.00    +0.000 A 
ATOM     25  N   UNL     1      50.311   9.363  12.178  0.00  0.00    +0.000 NA
ATOM     26  C   UNL     1      50.712   8.153  12.380  0.00  0.00    +0.000 A 
ATOM     27  N   UNL     1      49.891   7.057  12.460  0.00  0.00    +0.000 N 
ATOM     28  C   UNL     1      48.523   7.139  12.332  0.00  0.00    +0.000 A 
ATOM     29  O   UNL     1      47.831   6.127  12.399  0.00  0.00    +0.000 OA
ATOM     30  C   UNL     1      48.023   8.481  12.143  0.00  0.00    +0.000 A 
ATOM     31  H   UNL     1      50.271   6.135  12.611  0.00  0.00    +0.000 HD
ENDBRANCH  18  21
ENDBRANCH   1  19
TORSDOF 6
ENDMDL
MODEL 7
REMARK VINA RESULT:    -8.209      2.468      3.173
REMARK INTER + INTRA:         -11.168
REMARK INTER:                 -10.543
REMARK INTRA:                  -0.625
REMARK UNBOUND:                -0.319
REMARK  Name = 
REMARK  6 active torsions:
REMARK  status: ('A' for Active; 'I' for Inactive)
REMARK    1  A    between atoms: C_2  and  C_19
REMARK    2  A    between atoms: N_3  and  C_4
REMARK    3  A    between atoms: C_4  and  C_5
REMARK    4  A    between atoms: N_8  and  C_9
REMARK    5  A    between atoms: C_9  and  C_10
REMARK    6  A    between atoms: C_13  and  O_14
REMARK                            x       y       z     vdW  Elec       q    Type
REMARK                         _______ _______ _______ _____ _____    ______ ____
ROOT
ATOM      1  C   UNL     1      47.696   7.041  13.615  0.00  0.00    +0.000 C 
ENDROOT
BRANCH   1   2
ATOM      2  C   UNL     1      46.866   6.234  12.651  0.00  0.00    +0.000 C 
ATOM      3  C   UNL     1      46.388   5.031  13.029  0.00  0.00    +0.000 C 
ATOM      4  C   UNL     1      45.537   4.296  12.140  0.00  0.00    +0.000 C 
ATOM      5  N   UNL     1      45.261   4.855  10.911  0.00  0.00    +0.000 N 
ATOM      6  C   UNL     1      45.813   6.101  10.646  0.00  0.00    +0.000 C 
ATOM      7  N   UNL     1      46.584   6.812  11.419  0.00  0.00    +0.000 NA
BRANCH   5   8
ATOM      8  C   UNL     1      44.401   4.192   9.934  0.00  0.00    +0.000 C 
BRANCH   8   9
ATOM      9  C   UNL     1      45.217   3.402   8.934  0.00  0.00    +0.000 A 
ATOM     10  C   UNL     1      45.299   2.003   9.029  0.00  0.00    +0.000 A 
ATOM     11  C   UNL     1      46.141   1.281   8.182  0.00  0.00    +0.000 A 
ATOM     12  C   UNL     1      46.893   1.956   7.226  0.00  0.00    +0.000 A 
ATOM     13  C   UNL     1      46.791   3.333   7.084  0.00  0.00    +0.000 A 
ATOM     14  C   UNL     1      45.958   4.057   7.938  0.00  0.00    +0.000 A 
BRANCH  12  15
ATOM     15  O   UNL     1      47.758   1.293   6.407  0.00  0.00    +0.000 OA
ATOM     16  H   UNL     1      47.441   1.373   5.493  0.00  0.00    +0.000 HD
ENDBRANCH  12  15
ENDBRANCH   8   9
ENDBRANCH   5   8
ENDBRANCH   1   2
BRANCH   1  19
ATOM     17  O   UNL     1      49.706   7.152  15.607  0.00  0.00    +0.000 OA
ATOM     18  C   UNL     1      48.703   6.466  15.793  0.00  0.00    +0.000 C 
ATOM     19  N   UNL     1      47.660   6.408  14.910  0.00  0.00    +0.000 N 
ATOM     20  H   UNL     1      46.853   5.831  15.099  0.00  0.00    +0.000 HD
BRANCH  18  21
ATOM     21  C   UNL     1      48.527   5.685  17.016  0.00  0.00    +0.000 A 
ATOM     22  C   UNL     1      48.659   4.305  17.001  0.00  0.00    +0.000 A 
ATOM     23  S   UNL     1      48.462   3.597  18.544  0.00  0.00    +0.000 S 
ATOM     24  C   UNL     1      48.154   5.111  19.263  0.00  0.00    +0.000 A 
ATOM     25  N   UNL     1      47.909   5.223  20.596  0.00  0.00    +0.000 NA
ATOM     26  C   UNL     1      47.682   6.428  20.995  0.00  0.00    +0.000 A 
ATOM     27  N   UNL     1      47.661   7.534  20.182  0.00  0.00    +0.000 N 
ATOM     28  C   UNL     1      47.889   7.466  18.826  0.00  0.00    +0.000 A 
ATOM     29  O   UNL     1      47.848   8.482  18.138  0.00  0.00    +0.000 OA
ATOM     30  C   UNL     1      48.188   6.139  18.339  0.00  0.00    +0.000 A 
ATOM     31  H   UNL     1      47.466   8.450  20.557  0.00  0.00    +0.000 HD
ENDBRANCH  18  21
ENDBRANCH   1  19
TORSDOF 6
ENDMDL
MODEL 8
REMARK VINA RESULT:    -8.158      2.850      4.459
REMARK INTER + INTRA:         -11.101
REMARK INTER:                 -10.422
REMARK INTRA:                  -0.679
REMARK UNBOUND:                -0.319
REMARK  Name = 
REMARK  6 active torsions:
REMARK  status: ('A' for Active; 'I' for Inactive)
REMARK    1  A    between atoms: C_2  and  C_19
REMARK    2  A    between atoms: N_3  and  C_4
REMARK    3  A    between atoms: C_4  and  C_5
REMARK    4  A    between atoms: N_8  and  C_9
REMARK    5  A    between atoms: C_9  and  C_10
REMARK    6  A    between atoms: C_13  and  O_14
REMARK                            x       y       z     vdW  Elec       q    Type
REMARK                         _______ _______ _______ _____ _____    ______ ____
ROOT
ATOM      1  C   UNL     1      46.615   5.800  13.799  0.00  0.00    +0.000 C 
ENDROOT
BRANCH   1   2
ATOM      2  C   UNL     1      46.059   5.074  12.601  0.00  0.00    +0.000 C 
ATOM      3  C   UNL     1      45.736   3.769  12.703  0.00  0.00    +0.000 C 
ATOM      4  C   UNL     1      45.139   3.098  11.586  0.00  0.00    +0.000 C 
ATOM      5  N   UNL     1      44.939   3.827  10.434  0.00  0.00    +0.000 N 
ATOM      6  C   UNL     1      45.312   5.164  10.460  0.00  0.00    +0.000 C 
ATOM      7  N   UNL     1      45.851   5.821  11.448  0.00  0.00    +0.000 NA
BRANCH   5   8
ATOM      8  C   UNL     1      44.333   3.241   9.241  0.00  0.00    +0.000 C 
BRANCH   8   9
ATOM      9  C   UNL     1      45.389   2.772   8.265  0.00  0.00    +0.000 A 
ATOM     10  C   UNL     1      45.957   1.494   8.389  0.00  0.00    +0.000 A 
ATOM     11  C   UNL     1      47.012   1.101   7.563  0.00  0.00    +0.000 A 
ATOM     12  C   UNL     1      47.491   1.981   6.599  0.00  0.00    +0.000 A 
ATOM     13  C   UNL     1      46.914   3.232   6.428  0.00  0.00    +0.000 A 
ATOM     14  C   UNL     1      45.866   3.630   7.261  0.00  0.00    +0.000 A 
BRANCH  12  15
ATOM     15  O   UNL     1      48.547   1.653   5.801  0.00  0.00    +0.000 OA
ATOM     16  H   UNL     1      49.339   2.102   6.137  0.00  0.00    +0.000 HD
ENDBRANCH  12  15
ENDBRANCH   8   9
ENDBRANCH   5   8
ENDBRANCH   1   2
BRANCH   1  19
ATOM     17  O   UNL     1      47.103   8.551  14.256  0.00  0.00    +0.000 OA
ATOM     18  C   UNL     1      47.912   7.890  13.609  0.00  0.00    +0.000 C 
ATOM     19  N   UNL     1      47.782   6.544  13.397  0.00  0.00    +0.000 N 
ATOM     20  H   UNL     1      48.468   6.035  12.859  0.00  0.00    +0.000 HD
BRANCH  18  21
ATOM     21  C   UNL     1      49.120   8.493  13.048  0.00  0.00    +0.000 A 
ATOM     22  C   UNL     1      50.377   8.065  13.444  0.00  0.00    +0.000 A 
ATOM     23  S   UNL     1      51.645   8.868  12.629  0.00  0.00    +0.000 S 
ATOM     24  C   UNL     1      50.549   9.836  11.755  0.00  0.00    +0.000 A 
ATOM     25  N   UNL     1      50.983  10.754  10.851  0.00  0.00    +0.000 NA
ATOM     26  C   UNL     1      50.040  11.421  10.276  0.00  0.00    +0.000 A 
ATOM     27  N   UNL     1      48.701  11.266  10.532  0.00  0.00    +0.000 N 
ATOM     28  C   UNL     1      48.217  10.360  11.448  0.00  0.00    +0.000 A 
ATOM     29  O   UNL     1      47.010  10.266  11.651  0.00  0.00    +0.000 OA
ATOM     30  C   UNL     1      49.236   9.561  12.090  0.00  0.00    +0.000 A 
ATOM     31  H   UNL     1      48.013  11.827  10.053  0.00  0.00    +0.000 HD
ENDBRANCH  18  21
ENDBRANCH   1  19
TORSDOF 6
ENDMDL
