MODEL 1
REMARK VINA RESULT:    -8.945      0.000      0.000
REMARK INTER + INTRA:         -14.155
REMARK INTER:                 -13.651
REMARK INTRA:                  -0.504
REMARK UNBOUND:                -0.504
REMARK  Name = 
REMARK  11 active torsions:
REMARK  status: ('A' for Active; 'I' for Inactive)
REMARK    1  A    between atoms: C_1  and  C_2
REMARK    2  A    between atoms: C_2  and  N_3
REMARK    3  A    between atoms: C_2  and  C_20
REMARK    4  A    between atoms: N_3  and  C_4
REMARK    5  A    between atoms: C_4  and  C_5
REMARK    6  A    between atoms: C_8  and  C_9
REMARK    7  A    between atoms: C_9  and  O_10
REMARK    8  A    between atoms: C_9  and  C_11
REMARK    9  A    between atoms: C_11  and  N_12
REMARK   10  A    between atoms: C_15  and  O_16
REMARK   11  A    between atoms: C_20  and  C_22
REMARK                            x       y       z     vdW  Elec       q    Type
REMARK                         _______ _______ _______ _____ _____    ______ ____
ROOT
ATOM      1  C   UNL     1      47.794   5.930  14.185  0.00  0.00    +0.000 C 
ENDROOT
BRANCH   1   2
ATOM      2  C   UNL     1      46.882   5.476  13.064  0.00  0.00    +0.000 A 
ATOM      3  C   UNL     1      46.184   4.260  13.146  0.00  0.00    +0.000 A 
ATOM      4  C   UNL     1      45.372   3.828  12.093  0.00  0.00    +0.000 A 
ATOM      5  C   UNL     1      45.229   4.597  10.929  0.00  0.00    +0.000 A 
ATOM      6  C   UNL     1      45.887   5.836  10.873  0.00  0.00    +0.000 A 
ATOM      7  C   UNL     1      46.707   6.266  11.921  0.00  0.00    +0.000 A 
BRANCH   5   8
ATOM      8  C   UNL     1      44.343   4.093   9.807  0.00  0.00    +0.000 C 
BRANCH   8   9
ATOM      9  O   UNL     1      43.252   5.010   9.645  0.00  0.00    +0.000 OA
ATOM     10  H   UNL     1      43.580   5.888   9.909  0.00  0.00    +0.000 HD
ENDBRANCH   8   9
BRANCH   8  11
ATOM     11  C   UNL     1      45.017   3.908   8.418  0.00  0.00    +0.000 C 
BRANCH  11  12
ATOM     12  N   UNL     1      46.219   3.059   8.392  0.00  0.00    +0.000 NA
ATOM     13  C   UNL     1      45.893   1.624   8.441  0.00  0.00    +0.000 C 
ATOM     14  C   UNL     1      46.915   0.947   7.547  0.00  0.00    +0.000 C 
ATOM     15  C   UNL     1      47.126   1.967   6.448  0.00  0.00    +0.000 C 
ATOM     16  C   UNL     1      47.035   3.298   7.189  0.00  0.00    +0.000 C 
BRANCH  15  17
ATOM     17  O   UNL     1      48.369   1.778   5.793  0.00  0.00    +0.000 OA
ATOM     18  H   UNL     1      48.299   2.167   4.904  0.00  0.00    +0.000 HD
ENDBRANCH  15  17
ENDBRANCH  11  12
ENDBRANCH   8  11
ENDBRANCH   5   8
ENDBRANCH   1   2
BRANCH   1  19
ATOM     19  N   UNL     1      47.577   5.114  15.381  0.00  0.00    +0.000 NA
ATOM     20  H   UNL     1      46.579   5.106  15.588  0.00  0.00    +0.000 HD
BRANCH  19  22
ATOM     21  C   UNL     1      49.536   6.398  16.242  0.00  0.00    +0.000 C 
ATOM     22  C   UNL     1      48.308   5.554  16.591  0.00  0.00    +0.000 C 
BRANCH  22  23
ATOM     23  C   UNL     1      48.653   4.381  17.547  0.00  0.00    +0.000 C 
ATOM     24  O   UNL     1      47.765   3.639  17.967  0.00  0.00    +0.000 OA
BRANCH  23  25
ATOM     25  C   UNL     1      50.053   4.171  17.965  0.00  0.00    +0.000 A 
ATOM     26  C   UNL     1      50.781   5.080  18.715  0.00  0.00    +0.000 A 
ATOM     27  S   UNL     1      52.304   4.487  19.214  0.00  0.00    +0.000 S 
ATOM     28  C   UNL     1      52.054   3.010  18.412  0.00  0.00    +0.000 A 
ATOM     29  N   UNL     1      52.979   2.014  18.468  0.00  0.00    +0.000 NA
ATOM     30  C   UNL     1      52.650   0.948  17.816  0.00  0.00    +0.000 A 
ATOM     31  N   UNL     1      51.498   0.801  17.090  0.00  0.00    +0.000 N 
ATOM     32  C   UNL     1      50.595   1.824  16.900  0.00  0.00    +0.000 A 
ATOM     33  O   UNL     1      49.728   1.753  16.037  0.00  0.00    +0.000 OA
ATOM     34  C   UNL     1      50.854   2.993  17.725  0.00  0.00    +0.000 A 
ATOM     35  H   UNL     1      51.350  -0.022  16.522  0.00  0.00    +0.000 HD
ENDBRANCH  23  25
ENDBRANCH  22  23
ENDBRANCH  19  22
ENDBRANCH   1  19
TORSDOF 10
ENDMDL
MODEL 2
REMARK VINA RESULT:    -8.537      2.752      3.467
REMARK INTER + INTRA:         -13.533
REMARK INTER:                 -12.124
REMARK INTRA:                  -1.409
REMARK UNBOUND:                -0.504
REMARK  Name = 
REMARK  11 active torsions:
REMARK  status: ('A' for Active; 'I' for Inactive)
REMARK    1  A    between atoms: C_1  and  C_2
REMARK    2  A    between atoms: C_2  and  N_3
REMARK    3  A    between atoms: C_2  and  C_20
REMARK    4  A    between atoms: N_3  and  C_4
REMARK    5  A    between atoms: C_4  and  C_5
REMARK    6  A    between atoms: C_8  and  C_9
REMARK    7  A    between atoms: C_9  and  O_10
REMARK    8  A    between atoms: C_9  and  C_11
REMARK    9  A    between atoms: C_11  and  N_12
REMARK   10  A    between atoms: C_15  and  O_16
REMARK   11  A    between atoms: C_20  and  C_22
REMARK                            x       y       z     vdW  Elec       q    Type
REMARK                         _______ _______ _______ _____ _____    ______ ____
ROOT
ATOM      1  C   UNL     1      45.641   8.504  12.822  0.00  0.00    +0.000 C 
ENDROOT
BRANCH   1   2
ATOM      2  C   UNL     1      45.345   7.138  12.238  0.00  0.00    +0.000 A 
ATOM      3  C   UNL     1      44.524   6.223  12.916  0.00  0.00    +0.000 A 
ATOM      4  C   UNL     1      44.284   4.950  12.391  0.00  0.00    +0.000 A 
ATOM      5  C   UNL     1      44.853   4.553  11.172  0.00  0.00    +0.000 A 
ATOM      6  C   UNL     1      45.630   5.489  10.472  0.00  0.00    +0.000 A 
ATOM      7  C   UNL     1      45.880   6.760  11.000  0.00  0.00    +0.000 A 
BRANCH   5   8
ATOM      8  C   UNL     1      44.573   3.162  10.637  0.00  0.00    +0.000 C 
BRANCH   8   9
ATOM      9  O   UNL     1      43.252   2.778  11.045  0.00  0.00    +0.000 OA
ATOM     10  H   UNL     1      42.751   3.600  11.186  0.00  0.00    +0.000 HD
ENDBRANCH   8   9
BRANCH   8  11
ATOM     11  C   UNL     1      44.665   2.979   9.096  0.00  0.00    +0.000 C 
BRANCH  11  12
ATOM     12  N   UNL     1      46.012   2.742   8.553  0.00  0.00    +0.000 NA
ATOM     13  C   UNL     1      46.215   1.342   8.145  0.00  0.00    +0.000 C 
ATOM     14  C   UNL     1      47.081   1.405   6.901  0.00  0.00    +0.000 C 
ATOM     15  C   UNL     1      46.594   2.666   6.218  0.00  0.00    +0.000 C 
ATOM     16  C   UNL     1      46.295   3.599   7.389  0.00  0.00    +0.000 C 
BRANCH  15  17
ATOM     17  O   UNL     1      47.566   3.186   5.327  0.00  0.00    +0.000 OA
ATOM     18  H   UNL     1      47.615   4.147   5.468  0.00  0.00    +0.000 HD
ENDBRANCH  15  17
ENDBRANCH  11  12
ENDBRANCH   8  11
ENDBRANCH   5   8
ENDBRANCH   1   2
BRANCH   1  19
ATOM     19  N   UNL     1      46.529   8.383  13.979  0.00  0.00    +0.000 NA
ATOM     20  H   UNL     1      46.258   9.083  14.667  0.00  0.00    +0.000 HD
BRANCH  19  22
ATOM     21  C   UNL     1      48.216   9.188  12.325  0.00  0.00    +0.000 C 
ATOM     22  C   UNL     1      47.973   8.538  13.691  0.00  0.00    +0.000 C 
BRANCH  22  23
ATOM     23  C   UNL     1      48.768   7.217  13.863  0.00  0.00    +0.000 C 
ATOM     24  O   UNL     1      49.196   6.615  12.878  0.00  0.00    +0.000 OA
BRANCH  23  25
ATOM     25  C   UNL     1      48.994   6.674  15.217  0.00  0.00    +0.000 A 
ATOM     26  C   UNL     1      49.858   7.238  16.141  0.00  0.00    +0.000 A 
ATOM     27  S   UNL     1      49.770   6.512  17.687  0.00  0.00    +0.000 S 
ATOM     28  C   UNL     1      48.602   5.398  17.158  0.00  0.00    +0.000 A 
ATOM     29  N   UNL     1      48.059   4.490  18.014  0.00  0.00    +0.000 NA
ATOM     30  C   UNL     1      47.180   3.711  17.473  0.00  0.00    +0.000 A 
ATOM     31  N   UNL     1      46.821   3.739  16.152  0.00  0.00    +0.000 N 
ATOM     32  C   UNL     1      47.434   4.552  15.223  0.00  0.00    +0.000 A 
ATOM     33  O   UNL     1      47.288   4.366  14.021  0.00  0.00    +0.000 OA
ATOM     34  C   UNL     1      48.327   5.538  15.810  0.00  0.00    +0.000 A 
ATOM     35  H   UNL     1      46.200   3.036  15.773  0.00  0.00    +0.000 HD
ENDBRANCH  23  25
ENDBRANCH  22  23
ENDBRANCH  19  22
ENDBRANCH   1  19
TORSDOF 10
ENDMDL
MODEL 3
REMARK VINA RESULT:    -8.380      2.138      3.129
REMARK INTER + INTRA:         -13.293
REMARK INTER:                 -12.157
REMARK INTRA:                  -1.136
REMARK UNBOUND:                -0.504
REMARK  Name = 
REMARK  11 active torsions:
REMARK  status: ('A' for Active; 'I' for Inactive)
REMARK    1  A    between atoms: C_1  and  C_2
REMARK    2  A    between atoms: C_2  and  N_3
REMARK    3  A    between atoms: C_2  and  C_20
REMARK    4  A    between atoms: N_3  and  C_4
REMARK    5  A    between atoms: C_4  and  C_5
REMARK    6  A    between atoms: C_8  and  C_9
REMARK    7  A    between atoms: C_9  and  O_10
REMARK    8  A    between atoms: C_9  and  C_11
REMARK    9  A    between atoms: C_11  and  N_12
REMARK   10  A    between atoms: C_15  and  O_16
REMARK   11  A    between atoms: C_20  and  C_22
REMARK                            x       y       z     vdW  Elec       q    Type
REMARK                         _______ _______ _______ _____ _____    ______ ____
ROOT
ATOM      1  C   UNL     1      47.354   5.118  14.495  0.00  0.00    +0.000 C 
ENDROOT
BRANCH   1   2
ATOM      2  C   UNL     1      46.572   4.804  13.236  0.00  0.00    +0.000 A 
ATOM      3  C   UNL     1      46.364   5.781  12.249  0.00  0.00    +0.000 A 
ATOM      4  C   UNL     1      45.610   5.498  11.107  0.00  0.00    +0.000 A 
ATOM      5  C   UNL     1      45.044   4.229  10.912  0.00  0.00    +0.000 A 
ATOM      6  C   UNL     1      45.297   3.240  11.876  0.00  0.00    +0.000 A 
ATOM      7  C   UNL     1      46.043   3.525  13.024  0.00  0.00    +0.000 A 
BRANCH   5   8
ATOM      8  C   UNL     1      44.229   3.961   9.662  0.00  0.00    +0.000 C 
BRANCH   8   9
ATOM      9  O   UNL     1      43.266   5.014   9.515  0.00  0.00    +0.000 OA
ATOM     10  H   UNL     1      42.641   4.730   8.826  0.00  0.00    +0.000 HD
ENDBRANCH   8   9
BRANCH   8  11
ATOM     11  C   UNL     1      45.018   3.850   8.328  0.00  0.00    +0.000 C 
BRANCH  11  12
ATOM     12  N   UNL     1      46.208   2.984   8.351  0.00  0.00    +0.000 NA
ATOM     13  C   UNL     1      45.860   1.554   8.378  0.00  0.00    +0.000 C 
ATOM     14  C   UNL     1      46.912   0.866   7.528  0.00  0.00    +0.000 C 
ATOM     15  C   UNL     1      47.187   1.888   6.445  0.00  0.00    +0.000 C 
ATOM     16  C   UNL     1      47.081   3.217   7.188  0.00  0.00    +0.000 C 
BRANCH  15  17
ATOM     17  O   UNL     1      48.455   1.684   5.846  0.00  0.00    +0.000 OA
ATOM     18  H   UNL     1      49.127   1.731   6.548  0.00  0.00    +0.000 HD
ENDBRANCH  15  17
ENDBRANCH  11  12
ENDBRANCH   8  11
ENDBRANCH   5   8
ENDBRANCH   1   2
BRANCH   1  19
ATOM     19  N   UNL     1      46.812   4.373  15.632  0.00  0.00    +0.000 NA
ATOM     20  H   UNL     1      46.121   4.958  16.100  0.00  0.00    +0.000 HD
BRANCH  19  22
ATOM     21  C   UNL     1      47.251   2.825  17.540  0.00  0.00    +0.000 C 
ATOM     22  C   UNL     1      47.807   3.925  16.631  0.00  0.00    +0.000 C 
BRANCH  22  23
ATOM     23  C   UNL     1      48.422   5.099  17.439  0.00  0.00    +0.000 C 
ATOM     24  O   UNL     1      47.703   5.830  18.120  0.00  0.00    +0.000 OA
BRANCH  23  25
ATOM     25  C   UNL     1      49.876   5.347  17.371  0.00  0.00    +0.000 A 
ATOM     26  C   UNL     1      50.823   4.577  18.027  0.00  0.00    +0.000 A 
ATOM     27  S   UNL     1      52.432   4.976  17.611  0.00  0.00    +0.000 S 
ATOM     28  C   UNL     1      51.914   6.216  16.571  0.00  0.00    +0.000 A 
ATOM     29  N   UNL     1      52.807   6.950  15.854  0.00  0.00    +0.000 NA
ATOM     30  C   UNL     1      52.268   7.853  15.102  0.00  0.00    +0.000 A 
ATOM     31  N   UNL     1      50.925   8.107  15.028  0.00  0.00    +0.000 N 
ATOM     32  C   UNL     1      49.996   7.478  15.829  0.00  0.00    +0.000 A 
ATOM     33  O   UNL     1      48.855   7.909  15.937  0.00  0.00    +0.000 OA
ATOM     34  C   UNL     1      50.539   6.362  16.586  0.00  0.00    +0.000 A 
ATOM     35  H   UNL     1      50.579   8.894  14.496  0.00  0.00    +0.000 HD
ENDBRANCH  23  25
ENDBRANCH  22  23
ENDBRANCH  19  22
ENDBRANCH   1  19
TORSDOF 10
ENDMDL
MODEL 4
REMARK VINA RESULT:    -8.321      1.472      1.934
REMARK INTER + INTRA:         -13.204
REMARK INTER:                 -12.224
REMARK INTRA:                  -0.980
REMARK UNBOUND:                -0.504
REMARK  Name = 
REMARK  11 active torsions:
REMARK  status: ('A' for Active; 'I' for Inactive)
REMARK    1  A    between atoms: C_1  and  C_2
REMARK    2  A    between atoms: C_2  and  N_3
REMARK    3  A    between atoms: C_2  and  C_20
REMARK    4  A    between atoms: N_3  and  C_4
REMARK    5  A    between atoms: C_4  and  C_5
REMARK    6  A    between atoms: C_8  and  C_9
REMARK    7  A    between atoms: C_9  and  O_10
REMARK    8  A    between atoms: C_9  and  C_11
REMARK    9  A    between atoms: C_11  and  N_12
REMARK   10  A    between atoms: C_15  and  O_16
REMARK   11  A    between atoms: C_20  and  C_22
REMARK                            x       y       z     vdW  Elec       q    Type
REMARK                         _______ _______ _______ _____ _____    ______ ____
ROOT
ATOM      1  C   UNL     1      47.439   5.447  14.461  0.00  0.00    +0.000 C 
ENDROOT
BRANCH   1   2
ATOM      2  C   UNL     1      46.636   5.089  13.228  0.00  0.00    +0.000 A 
ATOM      3  C   UNL     1      45.995   3.844  13.117  0.00  0.00    +0.000 A 
ATOM      4  C   UNL     1      45.286   3.504  11.961  0.00  0.00    +0.000 A 
ATOM      5  C   UNL     1      45.191   4.396  10.883  0.00  0.00    +0.000 A 
ATOM      6  C   UNL     1      45.789   5.659  11.019  0.00  0.00    +0.000 A 
ATOM      7  C   UNL     1      46.507   5.998  12.171  0.00  0.00    +0.000 A 
BRANCH   5   8
ATOM      8  C   UNL     1      44.416   3.990   9.645  0.00  0.00    +0.000 C 
BRANCH   8   9
ATOM      9  O   UNL     1      43.337   4.916   9.462  0.00  0.00    +0.000 OA
ATOM     10  H   UNL     1      43.030   4.815   8.545  0.00  0.00    +0.000 HD
ENDBRANCH   8   9
BRANCH   8  11
ATOM     11  C   UNL     1      45.217   3.926   8.314  0.00  0.00    +0.000 C 
BRANCH  11  12
ATOM     12  N   UNL     1      46.376   3.019   8.300  0.00  0.00    +0.000 NA
ATOM     13  C   UNL     1      45.980   1.602   8.336  0.00  0.00    +0.000 C 
ATOM     14  C   UNL     1      46.981   0.880   7.454  0.00  0.00    +0.000 C 
ATOM     15  C   UNL     1      47.257   1.894   6.363  0.00  0.00    +0.000 C 
ATOM     16  C   UNL     1      47.221   3.224   7.111  0.00  0.00    +0.000 C 
BRANCH  15  17
ATOM     17  O   UNL     1      48.499   1.648   5.725  0.00  0.00    +0.000 OA
ATOM     18  H   UNL     1      48.788   0.753   5.972  0.00  0.00    +0.000 HD
ENDBRANCH  15  17
ENDBRANCH  11  12
ENDBRANCH   8  11
ENDBRANCH   5   8
ENDBRANCH   1   2
BRANCH   1  19
ATOM     19  N   UNL     1      46.926   4.729  15.629  0.00  0.00    +0.000 NA
ATOM     20  H   UNL     1      46.370   5.376  16.186  0.00  0.00    +0.000 HD
BRANCH  19  22
ATOM     21  C   UNL     1      47.396   2.942  17.308  0.00  0.00    +0.000 C 
ATOM     22  C   UNL     1      47.955   4.119  16.502  0.00  0.00    +0.000 C 
BRANCH  22  23
ATOM     23  C   UNL     1      48.677   5.157  17.401  0.00  0.00    +0.000 C 
ATOM     24  O   UNL     1      48.132   5.583  18.420  0.00  0.00    +0.000 OA
BRANCH  23  25
ATOM     25  C   UNL     1      50.016   5.645  17.019  0.00  0.00    +0.000 A 
ATOM     26  C   UNL     1      50.249   6.872  16.418  0.00  0.00    +0.000 A 
ATOM     27  S   UNL     1      51.909   7.252  16.269  0.00  0.00    +0.000 S 
ATOM     28  C   UNL     1      52.368   5.773  16.967  0.00  0.00    +0.000 A 
ATOM     29  N   UNL     1      53.678   5.468  17.169  0.00  0.00    +0.000 NA
ATOM     30  C   UNL     1      53.876   4.312  17.714  0.00  0.00    +0.000 A 
ATOM     31  N   UNL     1      52.885   3.424  18.042  0.00  0.00    +0.000 N 
ATOM     32  C   UNL     1      51.558   3.635  17.739  0.00  0.00    +0.000 A 
ATOM     33  O   UNL     1      50.742   2.723  17.794  0.00  0.00    +0.000 OA
ATOM     34  C   UNL     1      51.274   4.976  17.255  0.00  0.00    +0.000 A 
ATOM     35  H   UNL     1      53.116   2.498  18.372  0.00  0.00    +0.000 HD
ENDBRANCH  23  25
ENDBRANCH  22  23
ENDBRANCH  19  22
ENDBRANCH   1  19
TORSDOF 10
ENDMDL
MODEL 5
REMARK VINA RESULT:    -8.287      2.776      3.811
REMARK INTER + INTRA:         -13.152
REMARK INTER:                 -11.769
REMARK INTRA:                  -1.383
REMARK UNBOUND:                -0.504
REMARK  Name = 
REMARK  11 active torsions:
REMARK  status: ('A' for Active; 'I' for Inactive)
REMARK    1  A    between atoms: C_1  and  C_2
REMARK    2  A    between atoms: C_2  and  N_3
REMARK    3  A    between atoms: C_2  and  C_20
REMARK    4  A    between atoms: N_3  and  C_4
REMARK    5  A    between atoms: C_4  and  C_5
REMARK    6  A    between atoms: C_8  and  C_9
REMARK    7  A    between atoms: C_9  and  O_10
REMARK    8  A    between atoms: C_9  and  C_11
REMARK    9  A    between atoms: C_11  and  N_12
REMARK   10  A    between atoms: C_15  and  O_16
REMARK   11  A    between atoms: C_20  and  C_22
REMARK                            x       y       z     vdW  Elec       q    Type
REMARK                         _______ _______ _______ _____ _____    ______ ____
ROOT
ATOM      1  C   UNL     1      47.495   6.095  13.994  0.00  0.00    +0.000 C 
ENDROOT
BRANCH   1   2
ATOM      2  C   UNL     1      46.700   5.529  12.836  0.00  0.00    +0.000 A 
ATOM      3  C   UNL     1      46.571   6.239  11.631  0.00  0.00    +0.000 A 
ATOM      4  C   UNL     1      45.806   5.731  10.578  0.00  0.00    +0.000 A 
ATOM      5  C   UNL     1      45.148   4.497  10.693  0.00  0.00    +0.000 A 
ATOM      6  C   UNL     1      45.322   3.766  11.879  0.00  0.00    +0.000 A 
ATOM      7  C   UNL     1      46.079   4.278  12.938  0.00  0.00    +0.000 A 
BRANCH   5   8
ATOM      8  C   UNL     1      44.323   3.980   9.530  0.00  0.00    +0.000 C 
BRANCH   8   9
ATOM      9  O   UNL     1      43.235   4.888   9.309  0.00  0.00    +0.000 OA
ATOM     10  H   UNL     1      43.248   5.118   8.364  0.00  0.00    +0.000 HD
ENDBRANCH   8   9
BRANCH   8  11
ATOM     11  C   UNL     1      45.067   3.793   8.179  0.00  0.00    +0.000 C 
BRANCH  11  12
ATOM     12  N   UNL     1      46.287   2.971   8.221  0.00  0.00    +0.000 NA
ATOM     13  C   UNL     1      45.990   1.531   8.299  0.00  0.00    +0.000 C 
ATOM     14  C   UNL     1      47.060   0.851   7.464  0.00  0.00    +0.000 C 
ATOM     15  C   UNL     1      47.290   1.845   6.344  0.00  0.00    +0.000 C 
ATOM     16  C   UNL     1      47.143   3.194   7.043  0.00  0.00    +0.000 C 
BRANCH  15  17
ATOM     17  O   UNL     1      48.560   1.666   5.741  0.00  0.00    +0.000 OA
ATOM     18  H   UNL     1      48.703   2.404   5.123  0.00  0.00    +0.000 HD
ENDBRANCH  15  17
ENDBRANCH  11  12
ENDBRANCH   8  11
ENDBRANCH   5   8
ENDBRANCH   1   2
BRANCH   1  19
ATOM     19  N   UNL     1      48.907   6.219  13.630  0.00  0.00    +0.000 NA
ATOM     20  H   UNL     1      49.454   5.628  14.254  0.00  0.00    +0.000 HD
BRANCH  19  22
ATOM     21  C   UNL     1      50.217   7.950  12.396  0.00  0.00    +0.000 C 
ATOM     22  C   UNL     1      49.457   7.593  13.678  0.00  0.00    +0.000 C 
BRANCH  22  23
ATOM     23  C   UNL     1      50.298   7.862  14.954  0.00  0.00    +0.000 C 
ATOM     24  O   UNL     1      51.525   7.765  14.923  0.00  0.00    +0.000 OA
BRANCH  23  25
ATOM     25  C   UNL     1      49.616   8.220  16.214  0.00  0.00    +0.000 A 
ATOM     26  C   UNL     1      49.417   9.521  16.642  0.00  0.00    +0.000 A 
ATOM     27  S   UNL     1      48.430   9.637  18.034  0.00  0.00    +0.000 S 
ATOM     28  C   UNL     1      48.270   7.948  18.128  0.00  0.00    +0.000 A 
ATOM     29  N   UNL     1      47.506   7.367  19.092  0.00  0.00    +0.000 NA
ATOM     30  C   UNL     1      47.473   6.076  19.037  0.00  0.00    +0.000 A 
ATOM     31  N   UNL     1      48.159   5.316  18.126  0.00  0.00    +0.000 N 
ATOM     32  C   UNL     1      49.042   5.852  17.215  0.00  0.00    +0.000 A 
ATOM     33  O   UNL     1      49.835   5.143  16.607  0.00  0.00    +0.000 OA
ATOM     34  C   UNL     1      49.006   7.304  17.149  0.00  0.00    +0.000 A 
ATOM     35  H   UNL     1      48.168   4.308  18.202  0.00  0.00    +0.000 HD
ENDBRANCH  23  25
ENDBRANCH  22  23
ENDBRANCH  19  22
ENDBRANCH   1  19
TORSDOF 10
ENDMDL
MODEL 6
REMARK VINA RESULT:    -8.082      1.952      2.552
REMARK INTER + INTRA:         -12.838
REMARK INTER:                 -11.671
REMARK INTRA:                  -1.167
REMARK UNBOUND:                -0.504
REMARK  Name = 
REMARK  11 active torsions:
REMARK  status: ('A' for Active; 'I' for Inactive)
REMARK    1  A    between atoms: C_1  and  C_2
REMARK    2  A    between atoms: C_2  and  N_3
REMARK    3  A    between atoms: C_2  and  C_20
REMARK    4  A    between atoms: N_3  and  C_4
REMARK    5  A    between atoms: C_4  and  C_5
REMARK    6  A    between atoms: C_8  and  C_9
REMARK    7  A    between atoms: C_9  and  O_10
REMARK    8  A    between atoms: C_9  and  C_11
REMARK    9  A    between atoms: C_11  and  N_12
REMARK   10  A    between atoms: C_15  and  O_16
REMARK   11  A    between atoms: C_20  and  C_22
REMARK                            x       y       z     vdW  Elec       q    Type
REMARK                         _______ _______ _______ _____ _____    ______ ____
ROOT
ATOM      1  C   UNL     1      48.468   6.620  13.997  0.00  0.00    +0.000 C 
ENDROOT
BRANCH   1   2
ATOM      2  C   UNL     1      47.247   6.094  13.273  0.00  0.00    +0.000 A 
ATOM      3  C   UNL     1      46.597   6.864  12.295  0.00  0.00    +0.000 A 
ATOM      4  C   UNL     1      45.449   6.389  11.655  0.00  0.00    +0.000 A 
ATOM      5  C   UNL     1      44.916   5.130  11.968  0.00  0.00    +0.000 A 
ATOM      6  C   UNL     1      45.598   4.342  12.909  0.00  0.00    +0.000 A 
ATOM      7  C   UNL     1      46.742   4.819  13.557  0.00  0.00    +0.000 A 
BRANCH   5   8
ATOM      8  C   UNL     1      43.666   4.651  11.256  0.00  0.00    +0.000 C 
BRANCH   8   9
ATOM      9  O   UNL     1      43.093   5.762  10.552  0.00  0.00    +0.000 OA
ATOM     10  H   UNL     1      43.121   6.523  11.157  0.00  0.00    +0.000 HD
ENDBRANCH   8   9
BRANCH   8  11
ATOM     11  C   UNL     1      43.847   3.489  10.240  0.00  0.00    +0.000 C 
BRANCH  11  12
ATOM     12  N   UNL     1      45.193   3.339   9.664  0.00  0.00    +0.000 NA
ATOM     13  C   UNL     1      45.415   1.998   9.098  0.00  0.00    +0.000 C 
ATOM     14  C   UNL     1      46.269   2.217   7.862  0.00  0.00    +0.000 C 
ATOM     15  C   UNL     1      45.755   3.539   7.332  0.00  0.00    +0.000 C 
ATOM     16  C   UNL     1      45.451   4.327   8.603  0.00  0.00    +0.000 C 
BRANCH  15  17
ATOM     17  O   UNL     1      46.711   4.173   6.499  0.00  0.00    +0.000 OA
ATOM     18  H   UNL     1      47.576   3.766   6.675  0.00  0.00    +0.000 HD
ENDBRANCH  15  17
ENDBRANCH  11  12
ENDBRANCH   8  11
ENDBRANCH   5   8
ENDBRANCH   1   2
BRANCH   1  19
ATOM     19  N   UNL     1      48.076   7.293  15.236  0.00  0.00    +0.000 NA
ATOM     20  H   UNL     1      47.715   8.216  15.001  0.00  0.00    +0.000 HD
BRANCH  19  22
ATOM     21  C   UNL     1      50.533   7.155  15.654  0.00  0.00    +0.000 C 
ATOM     22  C   UNL     1      49.150   7.449  16.243  0.00  0.00    +0.000 C 
BRANCH  22  23
ATOM     23  C   UNL     1      48.881   6.643  17.542  0.00  0.00    +0.000 C 
ATOM     24  O   UNL     1      48.860   7.211  18.634  0.00  0.00    +0.000 OA
BRANCH  23  25
ATOM     25  C   UNL     1      48.668   5.184  17.463  0.00  0.00    +0.000 A 
ATOM     26  C   UNL     1      47.435   4.593  17.241  0.00  0.00    +0.000 A 
ATOM     27  S   UNL     1      47.522   2.903  17.004  0.00  0.00    +0.000 S 
ATOM     28  C   UNL     1      49.207   2.902  17.229  0.00  0.00    +0.000 A 
ATOM     29  N   UNL     1      49.930   1.755  17.121  0.00  0.00    +0.000 NA
ATOM     30  C   UNL     1      51.199   1.908  17.311  0.00  0.00    +0.000 A 
ATOM     31  N   UNL     1      51.803   3.096  17.630  0.00  0.00    +0.000 N 
ATOM     32  C   UNL     1      51.098   4.254  17.875  0.00  0.00    +0.000 A 
ATOM     33  O   UNL     1      51.628   5.217  18.417  0.00  0.00    +0.000 OA
ATOM     34  C   UNL     1      49.687   4.162  17.538  0.00  0.00    +0.000 A 
ATOM     35  H   UNL     1      52.786   3.126  17.863  0.00  0.00    +0.000 HD
ENDBRANCH  23  25
ENDBRANCH  22  23
ENDBRANCH  19  22
ENDBRANCH   1  19
TORSDOF 10
ENDMDL
MODEL 7
REMARK VINA RESULT:    -7.842      2.200      3.147
REMARK INTER + INTRA:         -12.472
REMARK INTER:                 -11.685
REMARK INTRA:                  -0.787
REMARK UNBOUND:                -0.504
REMARK  Name = 
REMARK  11 active torsions:
REMARK  status: ('A' for Active; 'I' for Inactive)
REMARK    1  A    between atoms: C_1  and  C_2
REMARK    2  A    between atoms: C_2  and  N_3
REMARK    3  A    between atoms: C_2  and  C_20
REMARK    4  A    between atoms: N_3  and  C_4
REMARK    5  A    between atoms: C_4  and  C_5
REMARK    6  A    between atoms: C_8  and  C_9
REMARK    7  A    between atoms: C_9  and  O_10
REMARK    8  A    between atoms: C_9  and  C_11
REMARK    9  A    between atoms: C_11  and  N_12
REMARK   10  A    between atoms: C_15  and  O_16
REMARK   11  A    between atoms: C_20  and  C_22
REMARK                            x       y       z     vdW  Elec       q    Type
REMARK                         _______ _______ _______ _____ _____    ______ ____
ROOT
ATOM      1  C   UNL     1      46.577   4.402  14.947  0.00  0.00    +0.000 C 
ENDROOT
BRANCH   1   2
ATOM      2  C   UNL     1      46.125   4.482  13.504  0.00  0.00    +0.000 A 
ATOM      3  C   UNL     1      45.476   3.401  12.886  0.00  0.00    +0.000 A 
ATOM      4  C   UNL     1      45.094   3.466  11.544  0.00  0.00    +0.000 A 
ATOM      5  C   UNL     1      45.343   4.614  10.777  0.00  0.00    +0.000 A 
ATOM      6  C   UNL     1      45.944   5.712  11.412  0.00  0.00    +0.000 A 
ATOM      7  C   UNL     1      46.336   5.645  12.753  0.00  0.00    +0.000 A 
BRANCH   5   8
ATOM      8  C   UNL     1      44.917   4.646   9.322  0.00  0.00    +0.000 C 
BRANCH   8   9
ATOM      9  O   UNL     1      45.807   5.515   8.609  0.00  0.00    +0.000 OA
ATOM     10  H   UNL     1      46.574   4.977   8.344  0.00  0.00    +0.000 HD
ENDBRANCH   8   9
BRANCH   8  11
ATOM     11  C   UNL     1      44.887   3.282   8.576  0.00  0.00    +0.000 C 
BRANCH  11  12
ATOM     12  N   UNL     1      46.177   2.585   8.454  0.00  0.00    +0.000 NA
ATOM     13  C   UNL     1      46.021   1.122   8.390  0.00  0.00    +0.000 C 
ATOM     14  C   UNL     1      47.087   0.644   7.422  0.00  0.00    +0.000 C 
ATOM     15  C   UNL     1      47.146   1.767   6.408  0.00  0.00    +0.000 C 
ATOM     16  C   UNL     1      46.924   3.014   7.259  0.00  0.00    +0.000 C 
BRANCH  15  17
ATOM     17  O   UNL     1      48.382   1.779   5.714  0.00  0.00    +0.000 OA
ATOM     18  H   UNL     1      48.270   2.328   4.918  0.00  0.00    +0.000 HD
ENDBRANCH  15  17
ENDBRANCH  11  12
ENDBRANCH   8  11
ENDBRANCH   5   8
ENDBRANCH   1   2
BRANCH   1  19
ATOM     19  N   UNL     1      47.700   3.473  15.078  0.00  0.00    +0.000 NA
ATOM     20  H   UNL     1      47.539   2.683  14.456  0.00  0.00    +0.000 HD
BRANCH  19  22
ATOM     21  C   UNL     1      46.775   3.266  17.387  0.00  0.00    +0.000 C 
ATOM     22  C   UNL     1      47.941   2.956  16.445  0.00  0.00    +0.000 C 
BRANCH  22  23
ATOM     23  C   UNL     1      49.305   3.409  17.029  0.00  0.00    +0.000 C 
ATOM     24  O   UNL     1      50.343   2.825  16.714  0.00  0.00    +0.000 OA
BRANCH  23  25
ATOM     25  C   UNL     1      49.352   4.535  17.983  0.00  0.00    +0.000 A 
ATOM     26  C   UNL     1      49.232   4.391  19.355  0.00  0.00    +0.000 A 
ATOM     27  S   UNL     1      49.518   5.839  20.219  0.00  0.00    +0.000 S 
ATOM     28  C   UNL     1      49.773   6.711  18.783  0.00  0.00    +0.000 A 
ATOM     29  N   UNL     1      50.101   8.030  18.811  0.00  0.00    +0.000 NA
ATOM     30  C   UNL     1      50.270   8.560  17.644  0.00  0.00    +0.000 A 
ATOM     31  N   UNL     1      50.108   7.898  16.456  0.00  0.00    +0.000 N 
ATOM     32  C   UNL     1      49.653   6.599  16.375  0.00  0.00    +0.000 A 
ATOM     33  O   UNL     1      49.261   6.129  15.314  0.00  0.00    +0.000 OA
ATOM     34  C   UNL     1      49.584   5.924  17.661  0.00  0.00    +0.000 A 
ATOM     35  H   UNL     1      50.158   8.397  15.578  0.00  0.00    +0.000 HD
ENDBRANCH  23  25
ENDBRANCH  22  23
ENDBRANCH  19  22
ENDBRANCH   1  19
TORSDOF 10
ENDMDL
MODEL 8
REMARK VINA RESULT:    -7.753      2.950      3.968
REMARK INTER + INTRA:         -12.336
REMARK INTER:                 -11.032
REMARK INTRA:                  -1.304
REMARK UNBOUND:                -0.504
REMARK  Name = 
REMARK  11 active torsions:
REMARK  status: ('A' for Active; 'I' for Inactive)
REMARK    1  A    between atoms: C_1  and  C_2
REMARK    2  A    between atoms: C_2  and  N_3
REMARK    3  A    between atoms: C_2  and  C_20
REMARK    4  A    between atoms: N_3  and  C_4
REMARK    5  A    between atoms: C_4  and  C_5
REMARK    6  A    between atoms: C_8  and  C_9
REMARK    7  A    between atoms: C_9  and  O_10
REMARK    8  A    between atoms: C_9  and  C_11
REMARK    9  A    between atoms: C_11  and  N_12
REMARK   10  A    between atoms: C_15  and  O_16
REMARK   11  A    between atoms: C_20  and  C_22
REMARK                            x       y       z     vdW  Elec       q    Type
REMARK                         _______ _______ _______ _____ _____    ______ ____
ROOT
ATOM      1  C   UNL     1      45.519   8.541  12.753  0.00  0.00    +0.000 C 
ENDROOT
BRANCH   1   2
ATOM      2  C   UNL     1      45.312   7.146  12.201  0.00  0.00    +0.000 A 
ATOM      3  C   UNL     1      45.912   6.748  10.995  0.00  0.00    +0.000 A 
ATOM      4  C   UNL     1      45.689   5.471  10.471  0.00  0.00    +0.000 A 
ATOM      5  C   UNL     1      44.864   4.552  11.136  0.00  0.00    +0.000 A 
ATOM      6  C   UNL     1      44.308   4.936  12.367  0.00  0.00    +0.000 A 
ATOM      7  C   UNL     1      44.523   6.216  12.888  0.00  0.00    +0.000 A 
BRANCH   5   8
ATOM      8  C   UNL     1      44.642   3.178  10.534  0.00  0.00    +0.000 C 
BRANCH   8   9
ATOM      9  O   UNL     1      43.319   2.743  10.874  0.00  0.00    +0.000 OA
ATOM     10  H   UNL     1      43.068   2.066  10.222  0.00  0.00    +0.000 HD
ENDBRANCH   8   9
BRANCH   8  11
ATOM     11  C   UNL     1      44.797   3.062   8.991  0.00  0.00    +0.000 C 
BRANCH  11  12
ATOM     12  N   UNL     1      46.143   2.724   8.501  0.00  0.00    +0.000 NA
ATOM     13  C   UNL     1      46.259   1.311   8.105  0.00  0.00    +0.000 C 
ATOM     14  C   UNL     1      47.174   1.304   6.895  0.00  0.00    +0.000 C 
ATOM     15  C   UNL     1      46.807   2.594   6.191  0.00  0.00    +0.000 C 
ATOM     16  C   UNL     1      46.532   3.552   7.346  0.00  0.00    +0.000 C 
BRANCH  15  17
ATOM     17  O   UNL     1      47.847   3.036   5.336  0.00  0.00    +0.000 OA
ATOM     18  H   UNL     1      47.463   3.197   4.457  0.00  0.00    +0.000 HD
ENDBRANCH  15  17
ENDBRANCH  11  12
ENDBRANCH   8  11
ENDBRANCH   5   8
ENDBRANCH   1   2
BRANCH   1  19
ATOM     19  N   UNL     1      46.406   8.503  13.917  0.00  0.00    +0.000 NA
ATOM     20  H   UNL     1      46.083   9.196  14.590  0.00  0.00    +0.000 HD
BRANCH  19  22
ATOM     21  C   UNL     1      48.044   9.405  12.264  0.00  0.00    +0.000 C 
ATOM     22  C   UNL     1      47.838   8.750  13.633  0.00  0.00    +0.000 C 
BRANCH  22  23
ATOM     23  C   UNL     1      48.716   7.484  13.818  0.00  0.00    +0.000 C 
ATOM     24  O   UNL     1      49.748   7.341  13.161  0.00  0.00    +0.000 OA
BRANCH  23  25
ATOM     25  C   UNL     1      48.299   6.441  14.775  0.00  0.00    +0.000 A 
ATOM     26  C   UNL     1      47.513   5.351  14.437  0.00  0.00    +0.000 A 
ATOM     27  S   UNL     1      47.353   4.210  15.700  0.00  0.00    +0.000 S 
ATOM     28  C   UNL     1      48.297   5.156  16.750  0.00  0.00    +0.000 A 
ATOM     29  N   UNL     1      48.585   4.731  18.009  0.00  0.00    +0.000 NA
ATOM     30  C   UNL     1      49.317   5.551  18.690  0.00  0.00    +0.000 A 
ATOM     31  N   UNL     1      49.756   6.767  18.237  0.00  0.00    +0.000 N 
ATOM     32  C   UNL     1      49.383   7.293  17.019  0.00  0.00    +0.000 A 
ATOM     33  O   UNL     1      49.562   8.477  16.757  0.00  0.00    +0.000 OA
ATOM     34  C   UNL     1      48.678   6.350  16.166  0.00  0.00    +0.000 A 
ATOM     35  H   UNL     1      50.240   7.402  18.856  0.00  0.00    +0.000 HD
ENDBRANCH  23  25
ENDBRANCH  22  23
ENDBRANCH  19  22
ENDBRANCH   1  19
TORSDOF 10
ENDMDL
MODEL 9
REMARK VINA RESULT:    -7.736      2.596      3.516
REMARK INTER + INTRA:         -12.310
REMARK INTER:                 -10.733
REMARK INTRA:                  -1.577
REMARK UNBOUND:                -0.504
REMARK  Name = 
REMARK  11 active torsions:
REMARK  status: ('A' for Active; 'I' for Inactive)
REMARK    1  A    between atoms: C_1  and  C_2
REMARK    2  A    between atoms: C_2  and  N_3
REMARK    3  A    between atoms: C_2  and  C_20
REMARK    4  A    between atoms: N_3  and  C_4
REMARK    5  A    between atoms: C_4  and  C_5
REMARK    6  A    between atoms: C_8  and  C_9
REMARK    7  A    between atoms: C_9  and  O_10
REMARK    8  A    between atoms: C_9  and  C_11
REMARK    9  A    between atoms: C_11  and  N_12
REMARK   10  A    between atoms: C_15  and  O_16
REMARK   11  A    between atoms: C_20  and  C_22
REMARK                            x       y       z     vdW  Elec       q    Type
REMARK                         _______ _______ _______ _____ _____    ______ ____
ROOT
ATOM      1  C   UNL     1      48.953   7.715  13.942  0.00  0.00    +0.000 C 
ENDROOT
BRANCH   1   2
ATOM      2  C   UNL     1      47.673   6.954  13.663  0.00  0.00    +0.000 A 
ATOM      3  C   UNL     1      46.602   7.561  12.989  0.00  0.00    +0.000 A 
ATOM      4  C   UNL     1      45.409   6.867  12.767  0.00  0.00    +0.000 A 
ATOM      5  C   UNL     1      45.250   5.544  13.207  0.00  0.00    +0.000 A 
ATOM      6  C   UNL     1      46.342   4.924  13.834  0.00  0.00    +0.000 A 
ATOM      7  C   UNL     1      47.533   5.620  14.066  0.00  0.00    +0.000 A 
BRANCH   5   8
ATOM      8  C   UNL     1      43.940   4.825  12.950  0.00  0.00    +0.000 C 
BRANCH   8   9
ATOM      9  O   UNL     1      42.870   5.652  13.429  0.00  0.00    +0.000 OA
ATOM     10  H   UNL     1      42.161   5.053  13.722  0.00  0.00    +0.000 HD
ENDBRANCH   8   9
BRANCH   8  11
ATOM     11  C   UNL     1      43.628   4.454  11.474  0.00  0.00    +0.000 C 
BRANCH  11  12
ATOM     12  N   UNL     1      44.730   3.838  10.716  0.00  0.00    +0.000 NA
ATOM     13  C   UNL     1      44.341   2.558  10.102  0.00  0.00    +0.000 C 
ATOM     14  C   UNL     1      45.059   2.516   8.765  0.00  0.00    +0.000 C 
ATOM     15  C   UNL     1      45.043   3.968   8.333  0.00  0.00    +0.000 C 
ATOM     16  C   UNL     1      45.225   4.722   9.647  0.00  0.00    +0.000 C 
BRANCH  15  17
ATOM     17  O   UNL     1      46.063   4.242   7.388  0.00  0.00    +0.000 OA
ATOM     18  H   UNL     1      46.477   3.396   7.144  0.00  0.00    +0.000 HD
ENDBRANCH  15  17
ENDBRANCH  11  12
ENDBRANCH   8  11
ENDBRANCH   5   8
ENDBRANCH   1   2
BRANCH   1  19
ATOM     19  N   UNL     1      49.962   6.823  14.516  0.00  0.00    +0.000 NA
ATOM     20  H   UNL     1      49.487   6.012  14.910  0.00  0.00    +0.000 HD
BRANCH  19  22
ATOM     21  C   UNL     1      52.234   7.707  15.049  0.00  0.00    +0.000 C 
ATOM     22  C   UNL     1      50.819   7.423  15.562  0.00  0.00    +0.000 C 
BRANCH  22  23
ATOM     23  C   UNL     1      50.826   6.605  16.881  0.00  0.00    +0.000 C 
ATOM     24  O   UNL     1      51.890   6.250  17.388  0.00  0.00    +0.000 OA
BRANCH  23  25
ATOM     25  C   UNL     1      49.545   6.237  17.516  0.00  0.00    +0.000 A 
ATOM     26  C   UNL     1      48.729   7.134  18.187  0.00  0.00    +0.000 A 
ATOM     27  S   UNL     1      47.223   6.471  18.648  0.00  0.00    +0.000 S 
ATOM     28  C   UNL     1      47.630   4.954  18.000  0.00  0.00    +0.000 A 
ATOM     29  N   UNL     1      46.748   3.918  18.029  0.00  0.00    +0.000 NA
ATOM     30  C   UNL     1      47.193   2.828  17.494  0.00  0.00    +0.000 A 
ATOM     31  N   UNL     1      48.446   2.674  16.964  0.00  0.00    +0.000 N 
ATOM     32  C   UNL     1      49.414   3.653  17.026  0.00  0.00    +0.000 A 
ATOM     33  O   UNL     1      50.590   3.399  16.795  0.00  0.00    +0.000 OA
ATOM     34  C   UNL     1      48.916   4.937  17.492  0.00  0.00    +0.000 A 
ATOM     35  H   UNL     1      48.764   1.767  16.652  0.00  0.00    +0.000 HD
ENDBRANCH  23  25
ENDBRANCH  22  23
ENDBRANCH  19  22
ENDBRANCH   1  19
TORSDOF 10
ENDMDL
