MODEL 1
REMARK VINA RESULT:    -9.832      0.000      0.000
REMARK INTER + INTRA:         -14.280
REMARK INTER:                 -13.280
REMARK INTRA:                  -1.000
REMARK UNBOUND:                -1.000
REMARK  Name = 
REMARK  6 active torsions:
REMARK  status: ('A' for Active; 'I' for Inactive)
REMARK    1  A    between atoms: C_2  and  C_4
REMARK    2  A    between atoms: N_8  and  C_9
REMARK    3  A    between atoms: C_9  and  C_10
REMARK    4  A    between atoms: C_10  and  C_13
REMARK    5  A    between atoms: C_18  and  O_19
REMARK    6  A    between atoms: O_19  and  C_20
REMARK                            x       y       z     vdW  Elec       q    Type
REMARK                         _______ _______ _______ _____ _____    ______ ____
ROOT
ATOM      1  C   UNL     1      43.248   5.654  12.090  0.00  0.00    +0.000 C 
ATOM      2  F   UNL     1      42.436   6.595  11.520  0.00  0.00    +0.000 F 
ATOM      3  F   UNL     1      42.649   5.328  13.273  0.00  0.00    +0.000 F 
ENDROOT
BRANCH   1   4
ATOM      4  C   UNL     1      44.660   6.171  12.302  0.00  0.00    +0.000 A 
ATOM      5  C   UNL     1      45.045   7.435  11.851  0.00  0.00    +0.000 A 
ATOM      6  C   UNL     1      46.359   7.873  12.038  0.00  0.00    +0.000 A 
ATOM      7  C   UNL     1      47.314   7.063  12.677  0.00  0.00    +0.000 A 
ATOM      8 CL   UNL     1      48.880   7.762  12.853  0.00  0.00    +0.000 Cl
ATOM      9  C   UNL     1      46.945   5.796  13.141  0.00  0.00    +0.000 A 
ATOM     10  C   UNL     1      45.618   5.371  12.948  0.00  0.00    +0.000 A 
BRANCH   9  11
ATOM     11  O   UNL     1      47.671   4.865  13.842  0.00  0.00    +0.000 OA
BRANCH  11  12
ATOM     12  C   UNL     1      47.139   4.139  14.960  0.00  0.00    +0.000 C 
ATOM     13  C   UNL     1      47.578   4.568  16.371  0.00  0.00    +0.000 C 
ATOM     14  C   UNL     1      47.912   3.094  16.563  0.00  0.00    +0.000 C 
ATOM     15  O   UNL     1      47.821   2.857  15.141  0.00  0.00    +0.000 OA
ENDBRANCH  11  12
ENDBRANCH   9  11
ENDBRANCH   1   4
BRANCH   1  16
ATOM     16  C   UNL     1      43.263   4.404  11.168  0.00  0.00    +0.000 C 
BRANCH  16  21
ATOM     17  C   UNL     1      46.461   2.511   7.685  0.00  0.00    +0.000 A 
ATOM     18  C   UNL     1      45.628   1.835   8.572  0.00  0.00    +0.000 A 
ATOM     19  C   UNL     1      44.684   2.556   9.302  0.00  0.00    +0.000 A 
ATOM     20  C   UNL     1      44.599   3.939   9.150  0.00  0.00    +0.000 A 
ATOM     21  N   UNL     1      43.644   4.711   9.783  0.00  0.00    +0.000 N 
ATOM     22  N   UNL     1      45.414   4.604   8.311  0.00  0.00    +0.000 NA
ATOM     23  C   UNL     1      46.328   3.888   7.603  0.00  0.00    +0.000 A 
ATOM     24  H   UNL     1      43.861   5.692   9.600  0.00  0.00    +0.000 HD
BRANCH  17  26
ATOM     25  N   UNL     1      48.542   2.573   6.429  0.00  0.00    +0.000 N 
ATOM     26  C   UNL     1      47.474   1.830   6.853  0.00  0.00    +0.000 C 
ATOM     27  O   UNL     1      47.383   0.641   6.579  0.00  0.00    +0.000 OA
ATOM     28  H   UNL     1      49.278   2.066   5.952  0.00  0.00    +0.000 HD
ATOM     29  H   UNL     1      48.784   3.462   6.839  0.00  0.00    +0.000 HD
ENDBRANCH  17  26
ENDBRANCH  16  21
ENDBRANCH   1  16
TORSDOF 6
ENDMDL
MODEL 2
REMARK VINA RESULT:    -8.643      1.814      2.916
REMARK INTER + INTRA:         -12.674
REMARK INTER:                 -11.690
REMARK INTRA:                  -0.984
REMARK UNBOUND:                -1.000
REMARK  Name = 
REMARK  6 active torsions:
REMARK  status: ('A' for Active; 'I' for Inactive)
REMARK    1  A    between atoms: C_2  and  C_4
REMARK    2  A    between atoms: N_8  and  C_9
REMARK    3  A    between atoms: C_9  and  C_10
REMARK    4  A    between atoms: C_10  and  C_13
REMARK    5  A    between atoms: C_18  and  O_19
REMARK    6  A    between atoms: O_19  and  C_20
REMARK                            x       y       z     vdW  Elec       q    Type
REMARK                         _______ _______ _______ _____ _____    ______ ____
ROOT
ATOM      1  C   UNL     1      43.287   5.593  12.083  0.00  0.00    +0.000 C 
ATOM      2  F   UNL     1      42.870   6.692  11.385  0.00  0.00    +0.000 F 
ATOM      3  F   UNL     1      42.337   5.393  13.044  0.00  0.00    +0.000 F 
ENDROOT
BRANCH   1   4
ATOM      4  C   UNL     1      44.664   5.793  12.693  0.00  0.00    +0.000 A 
ATOM      5  C   UNL     1      45.335   4.746  13.327  0.00  0.00    +0.000 A 
ATOM      6  C   UNL     1      46.590   4.967  13.901  0.00  0.00    +0.000 A 
ATOM      7  C   UNL     1      47.201   6.233  13.854  0.00  0.00    +0.000 A 
ATOM      8 CL   UNL     1      48.760   6.331  14.584  0.00  0.00    +0.000 Cl
ATOM      9  C   UNL     1      46.546   7.292  13.218  0.00  0.00    +0.000 A 
ATOM     10  C   UNL     1      45.285   7.052  12.643  0.00  0.00    +0.000 A 
BRANCH   9  11
ATOM     11  O   UNL     1      46.962   8.581  12.991  0.00  0.00    +0.000 OA
BRANCH  11  12
ATOM     12  C   UNL     1      48.020   8.911  12.080  0.00  0.00    +0.000 C 
ATOM     13  C   UNL     1      48.716   7.758  11.337  0.00  0.00    +0.000 C 
ATOM     14  C   UNL     1      50.004   8.392  11.847  0.00  0.00    +0.000 C 
ATOM     15  O   UNL     1      49.267   9.204  12.788  0.00  0.00    +0.000 OA
ENDBRANCH  11  12
ENDBRANCH   9  11
ENDBRANCH   1   4
BRANCH   1  16
ATOM     16  C   UNL     1      43.296   4.378  11.116  0.00  0.00    +0.000 C 
BRANCH  16  21
ATOM     17  C   UNL     1      46.521   2.532   7.634  0.00  0.00    +0.000 A 
ATOM     18  C   UNL     1      45.651   1.846   8.476  0.00  0.00    +0.000 A 
ATOM     19  C   UNL     1      44.709   2.564   9.213  0.00  0.00    +0.000 A 
ATOM     20  C   UNL     1      44.664   3.953   9.111  0.00  0.00    +0.000 A 
ATOM     21  N   UNL     1      43.715   4.727   9.752  0.00  0.00    +0.000 N 
ATOM     22  N   UNL     1      45.515   4.628   8.317  0.00  0.00    +0.000 NA
ATOM     23  C   UNL     1      46.426   3.914   7.602  0.00  0.00    +0.000 A 
ATOM     24  H   UNL     1      43.962   5.707   9.612  0.00  0.00    +0.000 HD
BRANCH  17  26
ATOM     25  N   UNL     1      48.601   2.602   6.376  0.00  0.00    +0.000 N 
ATOM     26  C   UNL     1      47.535   1.856   6.799  0.00  0.00    +0.000 C 
ATOM     27  O   UNL     1      47.446   0.667   6.521  0.00  0.00    +0.000 OA
ATOM     28  H   UNL     1      49.338   2.098   5.897  0.00  0.00    +0.000 HD
ATOM     29  H   UNL     1      48.842   3.491   6.789  0.00  0.00    +0.000 HD
ENDBRANCH  17  26
ENDBRANCH  16  21
ENDBRANCH   1  16
TORSDOF 6
ENDMDL
MODEL 3
REMARK VINA RESULT:    -8.535      2.359      3.993
REMARK INTER + INTRA:         -12.528
REMARK INTER:                 -11.660
REMARK INTRA:                  -0.868
REMARK UNBOUND:                -1.000
REMARK  Name = 
REMARK  6 active torsions:
REMARK  status: ('A' for Active; 'I' for Inactive)
REMARK    1  A    between atoms: C_2  and  C_4
REMARK    2  A    between atoms: N_8  and  C_9
REMARK    3  A    between atoms: C_9  and  C_10
REMARK    4  A    between atoms: C_10  and  C_13
REMARK    5  A    between atoms: C_18  and  O_19
REMARK    6  A    between atoms: O_19  and  C_20
REMARK                            x       y       z     vdW  Elec       q    Type
REMARK                         _______ _______ _______ _____ _____    ______ ____
ROOT
ATOM      1  C   UNL     1      43.350   4.814  12.447  0.00  0.00    +0.000 C 
ATOM      2  F   UNL     1      42.208   5.555  12.314  0.00  0.00    +0.000 F 
ATOM      3  F   UNL     1      43.229   4.178  13.650  0.00  0.00    +0.000 F 
ENDROOT
BRANCH   1   4
ATOM      4  C   UNL     1      44.599   5.676  12.393  0.00  0.00    +0.000 A 
ATOM      5  C   UNL     1      45.818   5.220  12.898  0.00  0.00    +0.000 A 
ATOM      6  C   UNL     1      46.944   6.046  12.857  0.00  0.00    +0.000 A 
ATOM      7  C   UNL     1      46.879   7.340  12.312  0.00  0.00    +0.000 A 
ATOM      8 CL   UNL     1      48.362   8.220  12.311  0.00  0.00    +0.000 Cl
ATOM      9  C   UNL     1      45.668   7.812  11.796  0.00  0.00    +0.000 A 
ATOM     10  C   UNL     1      44.545   6.967  11.842  0.00  0.00    +0.000 A 
BRANCH   9  11
ATOM     11  O   UNL     1      45.377   8.996  11.165  0.00  0.00    +0.000 OA
BRANCH  11  12
ATOM     12  C   UNL     1      44.055   9.552  11.117  0.00  0.00    +0.000 C 
ATOM     13  C   UNL     1      43.736  10.554   9.993  0.00  0.00    +0.000 C 
ATOM     14  C   UNL     1      43.233  11.445  11.122  0.00  0.00    +0.000 C 
ATOM     15  O   UNL     1      43.884  10.615  12.109  0.00  0.00    +0.000 OA
ENDBRANCH  11  12
ENDBRANCH   9  11
ENDBRANCH   1   4
BRANCH   1  16
ATOM     16  C   UNL     1      43.375   3.753  11.313  0.00  0.00    +0.000 C 
BRANCH  16  21
ATOM     17  C   UNL     1      46.622   2.750   7.520  0.00  0.00    +0.000 A 
ATOM     18  C   UNL     1      45.869   1.867   8.287  0.00  0.00    +0.000 A 
ATOM     19  C   UNL     1      44.889   2.373   9.142  0.00  0.00    +0.000 A 
ATOM     20  C   UNL     1      44.691   3.749   9.229  0.00  0.00    +0.000 A 
ATOM     21  N   UNL     1      43.693   4.322   9.997  0.00  0.00    +0.000 N 
ATOM     22  N   UNL     1      45.429   4.613   8.508  0.00  0.00    +0.000 NA
ATOM     23  C   UNL     1      46.378   4.105   7.677  0.00  0.00    +0.000 A 
ATOM     24  H   UNL     1      43.827   5.333   9.981  0.00  0.00    +0.000 HD
BRANCH  17  26
ATOM     25  N   UNL     1      47.797   3.012   5.407  0.00  0.00    +0.000 N 
ATOM     26  C   UNL     1      47.665   2.307   6.572  0.00  0.00    +0.000 C 
ATOM     27  O   UNL     1      48.404   1.366   6.829  0.00  0.00    +0.000 OA
ATOM     28  H   UNL     1      48.584   2.762   4.820  0.00  0.00    +0.000 HD
ATOM     29  H   UNL     1      47.396   3.929   5.277  0.00  0.00    +0.000 HD
ENDBRANCH  17  26
ENDBRANCH  16  21
ENDBRANCH   1  16
TORSDOF 6
ENDMDL
MODEL 4
REMARK VINA RESULT:    -8.416      1.904      3.488
REMARK INTER + INTRA:         -12.367
REMARK INTER:                 -11.485
REMARK INTRA:                  -0.882
REMARK UNBOUND:                -1.000
REMARK  Name = 
REMARK  6 active torsions:
REMARK  status: ('A' for Active; 'I' for Inactive)
REMARK    1  A    between atoms: C_2  and  C_4
REMARK    2  A    between atoms: N_8  and  C_9
REMARK    3  A    between atoms: C_9  and  C_10
REMARK    4  A    between atoms: C_10  and  C_13
REMARK    5  A    between atoms: C_18  and  O_19
REMARK    6  A    between atoms: O_19  and  C_20
REMARK                            x       y       z     vdW  Elec       q    Type
REMARK                         _______ _______ _______ _____ _____    ______ ____
ROOT
ATOM      1  C   UNL     1      43.368   4.904  12.426  0.00  0.00    +0.000 C 
ATOM      2  F   UNL     1      42.554   5.894  11.951  0.00  0.00    +0.000 F 
ATOM      3  F   UNL     1      42.743   4.427  13.542  0.00  0.00    +0.000 F 
ENDROOT
BRANCH   1   4
ATOM      4  C   UNL     1      44.763   5.415  12.742  0.00  0.00    +0.000 A 
ATOM      5  C   UNL     1      45.602   4.734  13.625  0.00  0.00    +0.000 A 
ATOM      6  C   UNL     1      46.871   5.243  13.916  0.00  0.00    +0.000 A 
ATOM      7  C   UNL     1      47.329   6.438  13.333  0.00  0.00    +0.000 A 
ATOM      8 CL   UNL     1      48.926   6.913  13.775  0.00  0.00    +0.000 Cl
ATOM      9  C   UNL     1      46.504   7.130  12.442  0.00  0.00    +0.000 A 
ATOM     10  C   UNL     1      45.231   6.604  12.157  0.00  0.00    +0.000 A 
BRANCH   9  11
ATOM     11  O   UNL     1      46.750   8.265  11.709  0.00  0.00    +0.000 OA
BRANCH  11  12
ATOM     12  C   UNL     1      46.796   9.576  12.291  0.00  0.00    +0.000 C 
ATOM     13  C   UNL     1      45.712  10.586  11.874  0.00  0.00    +0.000 C 
ATOM     14  C   UNL     1      46.886  11.516  11.590  0.00  0.00    +0.000 C 
ATOM     15  O   UNL     1      47.815  10.412  11.653  0.00  0.00    +0.000 OA
ENDBRANCH  11  12
ENDBRANCH   9  11
ENDBRANCH   1   4
BRANCH   1  16
ATOM     16  C   UNL     1      43.434   3.777  11.359  0.00  0.00    +0.000 C 
BRANCH  16  21
ATOM     17  C   UNL     1      46.595   2.707   7.511  0.00  0.00    +0.000 A 
ATOM     18  C   UNL     1      45.915   1.836   8.358  0.00  0.00    +0.000 A 
ATOM     19  C   UNL     1      44.941   2.344   9.217  0.00  0.00    +0.000 A 
ATOM     20  C   UNL     1      44.675   3.712   9.231  0.00  0.00    +0.000 A 
ATOM     21  N   UNL     1      43.677   4.280  10.001  0.00  0.00    +0.000 N 
ATOM     22  N   UNL     1      45.342   4.565   8.433  0.00  0.00    +0.000 NA
ATOM     23  C   UNL     1      46.287   4.055   7.597  0.00  0.00    +0.000 A 
ATOM     24  H   UNL     1      43.758   5.294   9.921  0.00  0.00    +0.000 HD
BRANCH  17  26
ATOM     25  N   UNL     1      47.700   2.918   5.356  0.00  0.00    +0.000 N 
ATOM     26  C   UNL     1      47.625   2.259   6.552  0.00  0.00    +0.000 C 
ATOM     27  O   UNL     1      48.404   1.356   6.827  0.00  0.00    +0.000 OA
ATOM     28  H   UNL     1      48.478   2.669   4.756  0.00  0.00    +0.000 HD
ATOM     29  H   UNL     1      47.263   3.814   5.199  0.00  0.00    +0.000 HD
ENDBRANCH  17  26
ENDBRANCH  16  21
ENDBRANCH   1  16
TORSDOF 6
ENDMDL
MODEL 5
REMARK VINA RESULT:    -8.136      2.202      2.848
REMARK INTER + INTRA:         -11.990
REMARK INTER:                 -11.514
REMARK INTRA:                  -0.476
REMARK UNBOUND:                -1.000
REMARK  Name = 
REMARK  6 active torsions:
REMARK  status: ('A' for Active; 'I' for Inactive)
REMARK    1  A    between atoms: C_2  and  C_4
REMARK    2  A    between atoms: N_8  and  C_9
REMARK    3  A    between atoms: C_9  and  C_10
REMARK    4  A    between atoms: C_10  and  C_13
REMARK    5  A    between atoms: C_18  and  O_19
REMARK    6  A    between atoms: O_19  and  C_20
REMARK                            x       y       z     vdW  Elec       q    Type
REMARK                         _______ _______ _______ _____ _____    ______ ____
ROOT
ATOM      1  C   UNL     1      44.457   4.670  12.290  0.00  0.00    +0.000 C 
ATOM      2  F   UNL     1      43.932   4.365  13.515  0.00  0.00    +0.000 F 
ATOM      3  F   UNL     1      45.448   3.753  12.083  0.00  0.00    +0.000 F 
ENDROOT
BRANCH   1   4
ATOM      4  C   UNL     1      44.990   6.091  12.236  0.00  0.00    +0.000 A 
ATOM      5  C   UNL     1      44.260   7.116  11.631  0.00  0.00    +0.000 A 
ATOM      6  C   UNL     1      44.788   8.409  11.574  0.00  0.00    +0.000 A 
ATOM      7  C   UNL     1      46.051   8.706  12.117  0.00  0.00    +0.000 A 
ATOM      8 CL   UNL     1      46.544  10.353  11.989  0.00  0.00    +0.000 Cl
ATOM      9  C   UNL     1      46.793   7.693  12.731  0.00  0.00    +0.000 A 
ATOM     10  C   UNL     1      46.247   6.398  12.783  0.00  0.00    +0.000 A 
BRANCH   9  11
ATOM     11  O   UNL     1      48.002   7.752  13.379  0.00  0.00    +0.000 OA
BRANCH  11  12
ATOM     12  C   UNL     1      49.233   7.324  12.778  0.00  0.00    +0.000 C 
ATOM     13  C   UNL     1      50.501   8.146  13.070  0.00  0.00    +0.000 C 
ATOM     14  C   UNL     1      50.667   8.167  11.556  0.00  0.00    +0.000 C 
ATOM     15  O   UNL     1      49.307   7.716  11.370  0.00  0.00    +0.000 OA
ENDBRANCH  11  12
ENDBRANCH   9  11
ENDBRANCH   1   4
BRANCH   1  16
ATOM     16  C   UNL     1      43.347   4.468  11.222  0.00  0.00    +0.000 C 
BRANCH  16  21
ATOM     17  C   UNL     1      46.449   2.502   7.693  0.00  0.00    +0.000 A 
ATOM     18  C   UNL     1      45.543   1.852   8.526  0.00  0.00    +0.000 A 
ATOM     19  C   UNL     1      44.647   2.610   9.280  0.00  0.00    +0.000 A 
ATOM     20  C   UNL     1      44.682   4.001   9.204  0.00  0.00    +0.000 A 
ATOM     21  N   UNL     1      43.782   4.817   9.863  0.00  0.00    +0.000 N 
ATOM     22  N   UNL     1      45.568   4.640   8.418  0.00  0.00    +0.000 NA
ATOM     23  C   UNL     1      46.434   3.887   7.686  0.00  0.00    +0.000 A 
ATOM     24  H   UNL     1      44.084   5.783   9.739  0.00  0.00    +0.000 HD
BRANCH  17  26
ATOM     25  N   UNL     1      48.507   2.484   6.399  0.00  0.00    +0.000 N 
ATOM     26  C   UNL     1      47.419   1.783   6.842  0.00  0.00    +0.000 C 
ATOM     27  O   UNL     1      47.276   0.599   6.568  0.00  0.00    +0.000 OA
ATOM     28  H   UNL     1      49.214   1.950   5.907  0.00  0.00    +0.000 HD
ATOM     29  H   UNL     1      48.792   3.363   6.806  0.00  0.00    +0.000 HD
ENDBRANCH  17  26
ENDBRANCH  16  21
ENDBRANCH   1  16
TORSDOF 6
ENDMDL
MODEL 6
REMARK VINA RESULT:    -7.830      1.962      2.521
REMARK INTER + INTRA:         -11.576
REMARK INTER:                 -10.661
REMARK INTRA:                  -0.915
REMARK UNBOUND:                -1.000
REMARK  Name = 
REMARK  6 active torsions:
REMARK  status: ('A' for Active; 'I' for Inactive)
REMARK    1  A    between atoms: C_2  and  C_4
REMARK    2  A    between atoms: N_8  and  C_9
REMARK    3  A    between atoms: C_9  and  C_10
REMARK    4  A    between atoms: C_10  and  C_13
REMARK    5  A    between atoms: C_18  and  O_19
REMARK    6  A    between atoms: O_19  and  C_20
REMARK                            x       y       z     vdW  Elec       q    Type
REMARK                         _______ _______ _______ _____ _____    ______ ____
ROOT
ATOM      1  C   UNL     1      44.799   6.077  11.542  0.00  0.00    +0.000 C 
ATOM      2  F   UNL     1      45.553   6.663  10.563  0.00  0.00    +0.000 F 
ATOM      3  F   UNL     1      44.138   7.104  12.153  0.00  0.00    +0.000 F 
ENDROOT
BRANCH   1   4
ATOM      4  C   UNL     1      45.651   5.295  12.527  0.00  0.00    +0.000 A 
ATOM      5  C   UNL     1      45.478   3.922  12.705  0.00  0.00    +0.000 A 
ATOM      6  C   UNL     1      46.260   3.235  13.638  0.00  0.00    +0.000 A 
ATOM      7  C   UNL     1      47.227   3.901  14.410  0.00  0.00    +0.000 A 
ATOM      8 CL   UNL     1      48.125   2.904  15.494  0.00  0.00    +0.000 Cl
ATOM      9  C   UNL     1      47.418   5.276  14.242  0.00  0.00    +0.000 A 
ATOM     10  C   UNL     1      46.625   5.952  13.297  0.00  0.00    +0.000 A 
BRANCH   9  11
ATOM     11  O   UNL     1      48.331   6.120  14.824  0.00  0.00    +0.000 OA
BRANCH  11  12
ATOM     12  C   UNL     1      48.623   6.105  16.229  0.00  0.00    +0.000 C 
ATOM     13  C   UNL     1      48.894   7.452  16.922  0.00  0.00    +0.000 C 
ATOM     14  C   UNL     1      50.156   6.772  17.441  0.00  0.00    +0.000 C 
ATOM     15  O   UNL     1      50.006   5.698  16.486  0.00  0.00    +0.000 OA
ENDBRANCH  11  12
ENDBRANCH   9  11
ENDBRANCH   1   4
BRANCH   1  16
ATOM     16  C   UNL     1      43.763   5.140  10.861  0.00  0.00    +0.000 C 
BRANCH  16  21
ATOM     17  C   UNL     1      46.427   2.210   7.659  0.00  0.00    +0.000 A 
ATOM     18  C   UNL     1      45.722   1.846   8.802  0.00  0.00    +0.000 A 
ATOM     19  C   UNL     1      44.895   2.784   9.419  0.00  0.00    +0.000 A 
ATOM     20  C   UNL     1      44.799   4.072   8.897  0.00  0.00    +0.000 A 
ATOM     21  N   UNL     1      43.947   5.033   9.408  0.00  0.00    +0.000 N 
ATOM     22  N   UNL     1      45.492   4.441   7.804  0.00  0.00    +0.000 NA
ATOM     23  C   UNL     1      46.293   3.515   7.211  0.00  0.00    +0.000 A 
ATOM     24  H   UNL     1      44.143   5.913   8.929  0.00  0.00    +0.000 HD
BRANCH  17  26
ATOM     25  N   UNL     1      48.392   1.814   6.283  0.00  0.00    +0.000 N 
ATOM     26  C   UNL     1      47.309   1.280   6.925  0.00  0.00    +0.000 C 
ATOM     27  O   UNL     1      47.100   0.073   6.916  0.00  0.00    +0.000 OA
ATOM     28  H   UNL     1      49.043   1.151   5.877  0.00  0.00    +0.000 HD
ATOM     29  H   UNL     1      48.739   2.741   6.479  0.00  0.00    +0.000 HD
ENDBRANCH  17  26
ENDBRANCH  16  21
ENDBRANCH   1  16
TORSDOF 6
ENDMDL
MODEL 7
REMARK VINA RESULT:    -7.755      3.751      7.490
REMARK INTER + INTRA:         -11.475
REMARK INTER:                 -10.535
REMARK INTRA:                  -0.940
REMARK UNBOUND:                -1.000
REMARK  Name = 
REMARK  6 active torsions:
REMARK  status: ('A' for Active; 'I' for Inactive)
REMARK    1  A    between atoms: C_2  and  C_4
REMARK    2  A    between atoms: N_8  and  C_9
REMARK    3  A    between atoms: C_9  and  C_10
REMARK    4  A    between atoms: C_10  and  C_13
REMARK    5  A    between atoms: C_18  and  O_19
REMARK    6  A    between atoms: O_19  and  C_20
REMARK                            x       y       z     vdW  Elec       q    Type
REMARK                         _______ _______ _______ _____ _____    ______ ____
ROOT
ATOM      1  C   UNL     1      45.882   6.699  11.588  0.00  0.00    +0.000 C 
ATOM      2  F   UNL     1      45.022   7.715  11.275  0.00  0.00    +0.000 F 
ATOM      3  F   UNL     1      47.108   7.119  11.159  0.00  0.00    +0.000 F 
ENDROOT
BRANCH   1   4
ATOM      4  C   UNL     1      45.479   5.388  10.934  0.00  0.00    +0.000 A 
ATOM      5  C   UNL     1      44.911   4.352  11.677  0.00  0.00    +0.000 A 
ATOM      6  C   UNL     1      44.575   3.148  11.052  0.00  0.00    +0.000 A 
ATOM      7  C   UNL     1      44.796   2.953   9.677  0.00  0.00    +0.000 A 
ATOM      8 CL   UNL     1      44.300   1.423   9.056  0.00  0.00    +0.000 Cl
ATOM      9  C   UNL     1      45.359   3.983   8.916  0.00  0.00    +0.000 A 
ATOM     10  C   UNL     1      45.689   5.189   9.560  0.00  0.00    +0.000 A 
BRANCH   9  11
ATOM     11  O   UNL     1      45.606   4.051   7.567  0.00  0.00    +0.000 OA
BRANCH  11  12
ATOM     12  C   UNL     1      46.847   3.636   6.979  0.00  0.00    +0.000 C 
ATOM     13  C   UNL     1      46.801   2.989   5.584  0.00  0.00    +0.000 C 
ATOM     14  C   UNL     1      47.626   1.879   6.225  0.00  0.00    +0.000 C 
ATOM     15  O   UNL     1      47.314   2.370   7.547  0.00  0.00    +0.000 OA
ENDBRANCH  11  12
ENDBRANCH   9  11
ENDBRANCH   1   4
BRANCH   1  16
ATOM     16  C   UNL     1      45.910   6.545  13.134  0.00  0.00    +0.000 C 
BRANCH  16  21
ATOM     17  C   UNL     1      48.423   3.907  16.691  0.00  0.00    +0.000 A 
ATOM     18  C   UNL     1      47.514   3.453  15.741  0.00  0.00    +0.000 A 
ATOM     19  C   UNL     1      47.097   4.320  14.730  0.00  0.00    +0.000 A 
ATOM     20  C   UNL     1      47.579   5.626  14.696  0.00  0.00    +0.000 A 
ATOM     21  N   UNL     1      47.270   6.520  13.688  0.00  0.00    +0.000 N 
ATOM     22  N   UNL     1      48.442   6.081  15.623  0.00  0.00    +0.000 NA
ATOM     23  C   UNL     1      48.842   5.224  16.601  0.00  0.00    +0.000 A 
ATOM     24  H   UNL     1      47.649   7.431  13.948  0.00  0.00    +0.000 HD
BRANCH  17  26
ATOM     25  N   UNL     1      48.319   3.150  19.000  0.00  0.00    +0.000 N 
ATOM     26  C   UNL     1      48.939   3.056  17.784  0.00  0.00    +0.000 C 
ATOM     27  O   UNL     1      49.862   2.273  17.603  0.00  0.00    +0.000 OA
ATOM     28  H   UNL     1      48.615   2.485  19.705  0.00  0.00    +0.000 HD
ATOM     29  H   UNL     1      47.412   3.576  19.118  0.00  0.00    +0.000 HD
ENDBRANCH  17  26
ENDBRANCH  16  21
ENDBRANCH   1  16
TORSDOF 6
ENDMDL
MODEL 8
REMARK VINA RESULT:    -6.937      4.218      7.448
REMARK INTER + INTRA:         -10.370
REMARK INTER:                  -9.252
REMARK INTRA:                  -1.118
REMARK UNBOUND:                -1.000
REMARK  Name = 
REMARK  6 active torsions:
REMARK  status: ('A' for Active; 'I' for Inactive)
REMARK    1  A    between atoms: C_2  and  C_4
REMARK    2  A    between atoms: N_8  and  C_9
REMARK    3  A    between atoms: C_9  and  C_10
REMARK    4  A    between atoms: C_10  and  C_13
REMARK    5  A    between atoms: C_18  and  O_19
REMARK    6  A    between atoms: O_19  and  C_20
REMARK                            x       y       z     vdW  Elec       q    Type
REMARK                         _______ _______ _______ _____ _____    ______ ____
ROOT
ATOM      1  C   UNL     1      48.406   7.968  12.155  0.00  0.00    +0.000 C 
ATOM      2  F   UNL     1      48.720   9.072  11.412  0.00  0.00    +0.000 F 
ATOM      3  F   UNL     1      49.306   7.012  11.778  0.00  0.00    +0.000 F 
ENDROOT
BRANCH   1   4
ATOM      4  C   UNL     1      46.976   7.511  11.922  0.00  0.00    +0.000 A 
ATOM      5  C   UNL     1      45.891   8.301  12.308  0.00  0.00    +0.000 A 
ATOM      6  C   UNL     1      44.587   7.842  12.105  0.00  0.00    +0.000 A 
ATOM      7  C   UNL     1      44.337   6.591  11.514  0.00  0.00    +0.000 A 
ATOM      8 CL   UNL     1      42.674   6.187  11.309  0.00  0.00    +0.000 Cl
ATOM      9  C   UNL     1      45.411   5.789  11.116  0.00  0.00    +0.000 A 
ATOM     10  C   UNL     1      46.718   6.266  11.325  0.00  0.00    +0.000 A 
BRANCH   9  11
ATOM     11  O   UNL     1      45.419   4.578  10.470  0.00  0.00    +0.000 OA
BRANCH  11  12
ATOM     12  C   UNL     1      44.993   4.416   9.109  0.00  0.00    +0.000 C 
ATOM     13  C   UNL     1      44.963   2.991   8.529  0.00  0.00    +0.000 C 
ATOM     14  C   UNL     1      45.779   3.587   7.389  0.00  0.00    +0.000 C 
ATOM     15  O   UNL     1      46.056   4.772   8.168  0.00  0.00    +0.000 OA
ENDBRANCH  11  12
ENDBRANCH   9  11
ENDBRANCH   1   4
BRANCH   1  16
ATOM     16  C   UNL     1      48.627   8.312  13.653  0.00  0.00    +0.000 C 
BRANCH  16  21
ATOM     17  C   UNL     1      48.025   4.412  16.873  0.00  0.00    +0.000 A 
ATOM     18  C   UNL     1      47.274   4.748  15.751  0.00  0.00    +0.000 A 
ATOM     19  C   UNL     1      47.739   5.746  14.895  0.00  0.00    +0.000 A 
ATOM     20  C   UNL     1      48.933   6.403  15.182  0.00  0.00    +0.000 A 
ATOM     21  N   UNL     1      49.495   7.350  14.346  0.00  0.00    +0.000 N 
ATOM     22  N   UNL     1      49.657   6.101  16.276  0.00  0.00    +0.000 NA
ATOM     23  C   UNL     1      49.193   5.123  17.100  0.00  0.00    +0.000 A 
ATOM     24  H   UNL     1      50.297   7.758  14.827  0.00  0.00    +0.000 HD
BRANCH  17  26
ATOM     25  N   UNL     1      48.326   3.263  18.995  0.00  0.00    +0.000 N 
ATOM     26  C   UNL     1      47.625   3.354  17.823  0.00  0.00    +0.000 C 
ATOM     27  O   UNL     1      46.684   2.607  17.590  0.00  0.00    +0.000 OA
ATOM     28  H   UNL     1      47.971   2.605  19.678  0.00  0.00    +0.000 HD
ATOM     29  H   UNL     1      48.920   4.005  19.333  0.00  0.00    +0.000 HD
ENDBRANCH  17  26
ENDBRANCH  16  21
ENDBRANCH   1  16
TORSDOF 6
ENDMDL
MODEL 9
REMARK VINA RESULT:    -6.849      4.331      7.866
REMARK INTER + INTRA:         -10.251
REMARK INTER:                  -9.339
REMARK INTRA:                  -0.911
REMARK UNBOUND:                -1.000
REMARK  Name = 
REMARK  6 active torsions:
REMARK  status: ('A' for Active; 'I' for Inactive)
REMARK    1  A    between atoms: C_2  and  C_4
REMARK    2  A    between atoms: N_8  and  C_9
REMARK    3  A    between atoms: C_9  and  C_10
REMARK    4  A    between atoms: C_10  and  C_13
REMARK    5  A    between atoms: C_18  and  O_19
REMARK    6  A    between atoms: O_19  and  C_20
REMARK                            x       y       z     vdW  Elec       q    Type
REMARK                         _______ _______ _______ _____ _____    ______ ____
ROOT
ATOM      1  C   UNL     1      47.066   7.195  12.073  0.00  0.00    +0.000 C 
ATOM      2  F   UNL     1      46.565   8.354  11.547  0.00  0.00    +0.000 F 
ATOM      3  F   UNL     1      48.232   6.967  11.400  0.00  0.00    +0.000 F 
ENDROOT
BRANCH   1   4
ATOM      4  C   UNL     1      46.097   6.035  11.922  0.00  0.00    +0.000 A 
ATOM      5  C   UNL     1      45.723   5.255  13.017  0.00  0.00    +0.000 A 
ATOM      6  C   UNL     1      44.850   4.177  12.842  0.00  0.00    +0.000 A 
ATOM      7  C   UNL     1      44.332   3.857  11.575  0.00  0.00    +0.000 A 
ATOM      8 CL   UNL     1      43.247   2.518  11.534  0.00  0.00    +0.000 Cl
ATOM      9  C   UNL     1      44.690   4.632  10.467  0.00  0.00    +0.000 A 
ATOM     10  C   UNL     1      45.568   5.714  10.660  0.00  0.00    +0.000 A 
BRANCH   9  11
ATOM     11  O   UNL     1      44.270   4.556   9.162  0.00  0.00    +0.000 OA
BRANCH  11  12
ATOM     12  C   UNL     1      44.716   3.536   8.256  0.00  0.00    +0.000 C 
ATOM     13  C   UNL     1      45.657   2.449   8.802  0.00  0.00    +0.000 C 
ATOM     14  C   UNL     1      46.535   2.806   7.609  0.00  0.00    +0.000 C 
ATOM     15  O   UNL     1      45.787   4.021   7.385  0.00  0.00    +0.000 OA
ENDBRANCH  11  12
ENDBRANCH   9  11
ENDBRANCH   1   4
BRANCH   1  16
ATOM     16  C   UNL     1      47.385   7.440  13.573  0.00  0.00    +0.000 C 
BRANCH  16  21
ATOM     17  C   UNL     1      49.321   5.050  17.632  0.00  0.00    +0.000 A 
ATOM     18  C   UNL     1      48.098   4.853  16.997  0.00  0.00    +0.000 A 
ATOM     19  C   UNL     1      47.856   5.482  15.776  0.00  0.00    +0.000 A 
ATOM     20  C   UNL     1      48.828   6.310  15.219  0.00  0.00    +0.000 A 
ATOM     21  N   UNL     1      48.692   6.909  13.981  0.00  0.00    +0.000 N 
ATOM     22  N   UNL     1      50.005   6.524  15.835  0.00  0.00    +0.000 NA
ATOM     23  C   UNL     1      50.229   5.902  17.024  0.00  0.00    +0.000 A 
ATOM     24  H   UNL     1      49.479   7.546  13.852  0.00  0.00    +0.000 HD
BRANCH  17  26
ATOM     25  N   UNL     1      48.702   3.684  19.546  0.00  0.00    +0.000 N 
ATOM     26  C   UNL     1      49.675   4.408  18.914  0.00  0.00    +0.000 C 
ATOM     27  O   UNL     1      50.804   4.492  19.380  0.00  0.00    +0.000 OA
ATOM     28  H   UNL     1      48.993   3.165  20.367  0.00  0.00    +0.000 HD
ATOM     29  H   UNL     1      47.861   3.379  19.080  0.00  0.00    +0.000 HD
ENDBRANCH  17  26
ENDBRANCH  16  21
ENDBRANCH   1  16
TORSDOF 6
ENDMDL
