MODEL 1
REMARK VINA RESULT:    -9.307      0.000      0.000
REMARK INTER + INTRA:         -13.020
REMARK INTER:                 -12.028
REMARK INTRA:                  -0.992
REMARK UNBOUND:                -0.992
REMARK  Name = 
REMARK  6 active torsions:
REMARK  status: ('A' for Active; 'I' for Inactive)
REMARK    1  A    between atoms: C_1  and  O_2
REMARK    2  A    between atoms: O_2  and  C_3
REMARK    3  A    between atoms: C_7  and  C_8
REMARK    4  A    between atoms: C_12  and  C_13
REMARK    5  A    between atoms: C_13  and  N_14
REMARK    6  A    between atoms: C_18  and  C_19
REMARK                            x       y       z     vdW  Elec       q    Type
REMARK                         _______ _______ _______ _____ _____    ______ ____
ROOT
ATOM      1  C   UNL     1      43.875   5.111  11.167  0.00  0.00    +0.000 C 
ATOM      2  C   UNL     1      42.638   5.886  11.623  0.00  0.00    +0.000 C 
ATOM      3  C   UNL     1      42.657   4.400  11.726  0.00  0.00    +0.000 C 
ENDROOT
BRANCH   1   4
ATOM      4  N   UNL     1      44.165   5.118   9.721  0.00  0.00    +0.000 N 
ATOM      5  C   UNL     1      44.970   4.157   9.097  0.00  0.00    +0.000 A 
ATOM      6  C   UNL     1      44.938   2.809   9.437  0.00  0.00    +0.000 A 
ATOM      7  C   UNL     1      45.678   1.886   8.699  0.00  0.00    +0.000 A 
ATOM      8  C   UNL     1      46.451   2.334   7.634  0.00  0.00    +0.000 A 
ATOM      9  C   UNL     1      46.463   3.698   7.379  0.00  0.00    +0.000 A 
ATOM     10  N   UNL     1      45.730   4.606   8.076  0.00  0.00    +0.000 NA
ATOM     11  H   UNL     1      44.470   6.010   9.334  0.00  0.00    +0.000 HD
BRANCH   8  12
ATOM     12  C   UNL     1      47.247   1.429   6.780  0.00  0.00    +0.000 C 
ATOM     13  N   UNL     1      48.248   1.984   6.036  0.00  0.00    +0.000 N 
ATOM     14  O   UNL     1      47.038   0.222   6.766  0.00  0.00    +0.000 OA
ATOM     15  H   UNL     1      48.603   2.915   6.199  0.00  0.00    +0.000 HD
ATOM     16  H   UNL     1      48.843   1.342   5.532  0.00  0.00    +0.000 HD
ENDBRANCH   8  12
ENDBRANCH   1   4
BRANCH   1  21
ATOM     17  C   UNL     1      47.174   6.606  12.498  0.00  0.00    +0.000 A 
ATOM     18  C   UNL     1      47.400   5.786  13.613  0.00  0.00    +0.000 A 
ATOM     19  C   UNL     1      46.516   4.754  13.941  0.00  0.00    +0.000 A 
ATOM     20  C   UNL     1      45.382   4.524  13.162  0.00  0.00    +0.000 A 
ATOM     21  C   UNL     1      45.113   5.310  12.036  0.00  0.00    +0.000 A 
ATOM     22  C   UNL     1      46.039   6.324  11.717  0.00  0.00    +0.000 A 
BRANCH  17  27
ATOM     23  C   UNL     1      50.197   8.661  11.452  0.00  0.00    +0.000 A 
ATOM     24  C   UNL     1      49.609   9.918  11.494  0.00  0.00    +0.000 A 
ATOM     25  N   UNL     1      48.324  10.149  11.841  0.00  0.00    +0.000 NA
ATOM     26  C   UNL     1      47.586   9.060  12.162  0.00  0.00    +0.000 A 
ATOM     27  C   UNL     1      48.055   7.745  12.168  0.00  0.00    +0.000 A 
ATOM     28  C   UNL     1      49.401   7.570  11.799  0.00  0.00    +0.000 A 
BRANCH  23  30
ATOM     29  C   UNL     1      51.932   7.473  10.350  0.00  0.00    +0.000 C 
ATOM     30  O   UNL     1      51.509   8.621  11.075  0.00  0.00    +0.000 OA
ENDBRANCH  23  30
ENDBRANCH  17  27
ENDBRANCH   1  21
TORSDOF 5
ENDMDL
MODEL 2
REMARK VINA RESULT:    -9.181      2.775      4.247
REMARK INTER + INTRA:         -12.857
REMARK INTER:                 -11.970
REMARK INTRA:                  -0.888
REMARK UNBOUND:                -0.992
REMARK  Name = 
REMARK  6 active torsions:
REMARK  status: ('A' for Active; 'I' for Inactive)
REMARK    1  A    between atoms: C_1  and  O_2
REMARK    2  A    between atoms: O_2  and  C_3
REMARK    3  A    between atoms: C_7  and  C_8
REMARK    4  A    between atoms: C_12  and  C_13
REMARK    5  A    between atoms: C_13  and  N_14
REMARK    6  A    between atoms: C_18  and  C_19
REMARK                            x       y       z     vdW  Elec       q    Type
REMARK                         _______ _______ _______ _____ _____    ______ ____
ROOT
ATOM      1  C   UNL     1      43.964   5.065  11.253  0.00  0.00    +0.000 C 
ATOM      2  C   UNL     1      42.590   5.495  11.768  0.00  0.00    +0.000 C 
ATOM      3  C   UNL     1      43.042   4.088  11.957  0.00  0.00    +0.000 C 
ENDROOT
BRANCH   1   4
ATOM      4  N   UNL     1      44.144   5.035   9.790  0.00  0.00    +0.000 N 
ATOM      5  C   UNL     1      44.971   4.111   9.138  0.00  0.00    +0.000 A 
ATOM      6  C   UNL     1      45.066   2.779   9.527  0.00  0.00    +0.000 A 
ATOM      7  C   UNL     1      45.818   1.884   8.765  0.00  0.00    +0.000 A 
ATOM      8  C   UNL     1      46.471   2.344   7.628  0.00  0.00    +0.000 A 
ATOM      9  C   UNL     1      46.361   3.693   7.326  0.00  0.00    +0.000 A 
ATOM     10  N   UNL     1      45.615   4.573   8.046  0.00  0.00    +0.000 NA
ATOM     11  H   UNL     1      44.350   5.931   9.349  0.00  0.00    +0.000 HD
BRANCH   8  12
ATOM     12  C   UNL     1      47.268   1.466   6.747  0.00  0.00    +0.000 C 
ATOM     13  N   UNL     1      48.259   2.046   6.010  0.00  0.00    +0.000 N 
ATOM     14  O   UNL     1      47.068   0.258   6.705  0.00  0.00    +0.000 OA
ATOM     15  H   UNL     1      48.609   2.975   6.192  0.00  0.00    +0.000 HD
ATOM     16  H   UNL     1      48.856   1.421   5.486  0.00  0.00    +0.000 HD
ENDBRANCH   8  12
ENDBRANCH   1   4
BRANCH   1  21
ATOM     17  C   UNL     1      46.820   5.476  13.816  0.00  0.00    +0.000 A 
ATOM     18  C   UNL     1      47.367   6.699  13.402  0.00  0.00    +0.000 A 
ATOM     19  C   UNL     1      46.830   7.400  12.318  0.00  0.00    +0.000 A 
ATOM     20  C   UNL     1      45.734   6.889  11.622  0.00  0.00    +0.000 A 
ATOM     21  C   UNL     1      45.147   5.675  11.997  0.00  0.00    +0.000 A 
ATOM     22  C   UNL     1      45.697   5.007  13.111  0.00  0.00    +0.000 A 
BRANCH  17  27
ATOM     23  C   UNL     1      48.358   4.491  17.150  0.00  0.00    +0.000 A 
ATOM     24  C   UNL     1      48.428   3.120  16.942  0.00  0.00    +0.000 A 
ATOM     25  N   UNL     1      48.027   2.498  15.812  0.00  0.00    +0.000 NA
ATOM     26  C   UNL     1      47.527   3.293  14.836  0.00  0.00    +0.000 A 
ATOM     27  C   UNL     1      47.409   4.683  14.913  0.00  0.00    +0.000 A 
ATOM     28  C   UNL     1      47.844   5.271  16.115  0.00  0.00    +0.000 A 
BRANCH  23  30
ATOM     29  C   UNL     1      47.868   5.629  19.176  0.00  0.00    +0.000 C 
ATOM     30  O   UNL     1      48.808   4.941  18.359  0.00  0.00    +0.000 OA
ENDBRANCH  23  30
ENDBRANCH  17  27
ENDBRANCH   1  21
TORSDOF 5
ENDMDL
MODEL 3
REMARK VINA RESULT:    -9.014      1.189      1.751
REMARK INTER + INTRA:         -12.641
REMARK INTER:                 -11.585
REMARK INTRA:                  -1.056
REMARK UNBOUND:                -0.992
REMARK  Name = 
REMARK  6 active torsions:
REMARK  status: ('A' for Active; 'I' for Inactive)
REMARK    1  A    between atoms: C_1  and  O_2
REMARK    2  A    between atoms: O_2  and  C_3
REMARK    3  A    between atoms: C_7  and  C_8
REMARK    4  A    between atoms: C_12  and  C_13
REMARK    5  A    between atoms: C_13  and  N_14
REMARK    6  A    between atoms: C_18  and  C_19
REMARK                            x       y       z     vdW  Elec       q    Type
REMARK                         _______ _______ _______ _____ _____    ______ ____
ROOT
ATOM      1  C   UNL     1      43.917   5.168  11.092  0.00  0.00    +0.000 C 
ATOM      2  C   UNL     1      42.762   6.061  11.544  0.00  0.00    +0.000 C 
ATOM      3  C   UNL     1      42.635   4.581  11.649  0.00  0.00    +0.000 C 
ENDROOT
BRANCH   1   4
ATOM      4  N   UNL     1      44.211   5.144   9.647  0.00  0.00    +0.000 N 
ATOM      5  C   UNL     1      44.998   4.156   9.042  0.00  0.00    +0.000 A 
ATOM      6  C   UNL     1      44.939   2.815   9.406  0.00  0.00    +0.000 A 
ATOM      7  C   UNL     1      45.663   1.865   8.686  0.00  0.00    +0.000 A 
ATOM      8  C   UNL     1      46.446   2.279   7.615  0.00  0.00    +0.000 A 
ATOM      9  C   UNL     1      46.485   3.637   7.336  0.00  0.00    +0.000 A 
ATOM     10  N   UNL     1      45.768   4.572   8.015  0.00  0.00    +0.000 NA
ATOM     11  H   UNL     1      44.533   6.023   9.245  0.00  0.00    +0.000 HD
BRANCH   8  12
ATOM     12  C   UNL     1      47.226   1.344   6.779  0.00  0.00    +0.000 C 
ATOM     13  N   UNL     1      48.177   1.877   5.957  0.00  0.00    +0.000 N 
ATOM     14  O   UNL     1      47.049   0.133   6.846  0.00  0.00    +0.000 OA
ATOM     15  H   UNL     1      48.514   2.824   6.047  0.00  0.00    +0.000 HD
ATOM     16  H   UNL     1      48.765   1.220   5.464  0.00  0.00    +0.000 HD
ENDBRANCH   8  12
ENDBRANCH   1   4
BRANCH   1  21
ATOM     17  C   UNL     1      47.267   6.433  12.531  0.00  0.00    +0.000 A 
ATOM     18  C   UNL     1      47.478   5.500  13.557  0.00  0.00    +0.000 A 
ATOM     19  C   UNL     1      46.568   4.465  13.790  0.00  0.00    +0.000 A 
ATOM     20  C   UNL     1      45.423   4.344  13.003  0.00  0.00    +0.000 A 
ATOM     21  C   UNL     1      45.167   5.246  11.963  0.00  0.00    +0.000 A 
ATOM     22  C   UNL     1      46.119   6.261  11.738  0.00  0.00    +0.000 A 
BRANCH  17  27
ATOM     23  C   UNL     1      48.586   9.911  11.743  0.00  0.00    +0.000 A 
ATOM     24  C   UNL     1      49.932   9.674  11.986  0.00  0.00    +0.000 A 
ATOM     25  N   UNL     1      50.441   8.484  12.372  0.00  0.00    +0.000 NA
ATOM     26  C   UNL     1      49.552   7.474  12.526  0.00  0.00    +0.000 A 
ATOM     27  C   UNL     1      48.177   7.575  12.307  0.00  0.00    +0.000 A 
ATOM     28  C   UNL     1      47.708   8.839  11.906  0.00  0.00    +0.000 A 
BRANCH  23  30
ATOM     29  C   UNL     1      46.879  11.435  11.110  0.00  0.00    +0.000 C 
ATOM     30  O   UNL     1      48.256  11.180  11.363  0.00  0.00    +0.000 OA
ENDBRANCH  23  30
ENDBRANCH  17  27
ENDBRANCH   1  21
TORSDOF 5
ENDMDL
MODEL 4
REMARK VINA RESULT:    -7.838      2.049      2.602
REMARK INTER + INTRA:         -11.121
REMARK INTER:                 -10.795
REMARK INTRA:                  -0.326
REMARK UNBOUND:                -0.992
REMARK  Name = 
REMARK  6 active torsions:
REMARK  status: ('A' for Active; 'I' for Inactive)
REMARK    1  A    between atoms: C_1  and  O_2
REMARK    2  A    between atoms: O_2  and  C_3
REMARK    3  A    between atoms: C_7  and  C_8
REMARK    4  A    between atoms: C_12  and  C_13
REMARK    5  A    between atoms: C_13  and  N_14
REMARK    6  A    between atoms: C_18  and  C_19
REMARK                            x       y       z     vdW  Elec       q    Type
REMARK                         _______ _______ _______ _____ _____    ______ ____
ROOT
ATOM      1  C   UNL     1      43.917   5.415  11.185  0.00  0.00    +0.000 C 
ATOM      2  C   UNL     1      42.508   5.227  11.748  0.00  0.00    +0.000 C 
ATOM      3  C   UNL     1      43.594   4.287  12.146  0.00  0.00    +0.000 C 
ENDROOT
BRANCH   1   4
ATOM      4  N   UNL     1      44.093   5.171   9.742  0.00  0.00    +0.000 N 
ATOM      5  C   UNL     1      44.869   4.123   9.231  0.00  0.00    +0.000 A 
ATOM      6  C   UNL     1      44.896   2.856   9.804  0.00  0.00    +0.000 A 
ATOM      7  C   UNL     1      45.599   1.825   9.180  0.00  0.00    +0.000 A 
ATOM      8  C   UNL     1      46.274   2.086   7.993  0.00  0.00    +0.000 A 
ATOM      9  C   UNL     1      46.232   3.383   7.504  0.00  0.00    +0.000 A 
ATOM     10  N   UNL     1      45.534   4.393   8.089  0.00  0.00    +0.000 NA
ATOM     11  H   UNL     1      44.343   5.984   9.181  0.00  0.00    +0.000 HD
BRANCH   8  12
ATOM     12  C   UNL     1      47.022   1.052   7.249  0.00  0.00    +0.000 C 
ATOM     13  N   UNL     1      46.768  -0.253   7.557  0.00  0.00    +0.000 N 
ATOM     14  O   UNL     1      47.816   1.355   6.367  0.00  0.00    +0.000 OA
ATOM     15  H   UNL     1      45.965  -0.545   8.094  0.00  0.00    +0.000 HD
ATOM     16  H   UNL     1      47.217  -0.948   6.976  0.00  0.00    +0.000 HD
ENDBRANCH   8  12
ENDBRANCH   1   4
BRANCH   1  21
ATOM     17  C   UNL     1      46.538   7.624  12.960  0.00  0.00    +0.000 A 
ATOM     18  C   UNL     1      46.083   8.902  12.604  0.00  0.00    +0.000 A 
ATOM     19  C   UNL     1      44.944   9.070  11.812  0.00  0.00    +0.000 A 
ATOM     20  C   UNL     1      44.236   7.958  11.353  0.00  0.00    +0.000 A 
ATOM     21  C   UNL     1      44.645   6.660  11.682  0.00  0.00    +0.000 A 
ATOM     22  C   UNL     1      45.782   6.529  12.506  0.00  0.00    +0.000 A 
BRANCH  17  27
ATOM     23  C   UNL     1      49.974   8.143  14.500  0.00  0.00    +0.000 A 
ATOM     24  C   UNL     1      50.020   6.994  15.279  0.00  0.00    +0.000 A 
ATOM     25  N   UNL     1      49.037   6.070  15.335  0.00  0.00    +0.000 NA
ATOM     26  C   UNL     1      47.946   6.309  14.570  0.00  0.00    +0.000 A 
ATOM     27  C   UNL     1      47.776   7.417  13.738  0.00  0.00    +0.000 A 
ATOM     28  C   UNL     1      48.835   8.343  13.722  0.00  0.00    +0.000 A 
BRANCH  23  30
ATOM     29  C   UNL     1      52.248   8.517  13.927  0.00  0.00    +0.000 C 
ATOM     30  O   UNL     1      51.062   8.965  14.574  0.00  0.00    +0.000 OA
ENDBRANCH  23  30
ENDBRANCH  17  27
ENDBRANCH   1  21
TORSDOF 5
ENDMDL
MODEL 5
REMARK VINA RESULT:    -7.074      5.258      8.380
REMARK INTER + INTRA:         -10.134
REMARK INTER:                  -9.193
REMARK INTRA:                  -0.941
REMARK UNBOUND:                -0.992
REMARK  Name = 
REMARK  6 active torsions:
REMARK  status: ('A' for Active; 'I' for Inactive)
REMARK    1  A    between atoms: C_1  and  O_2
REMARK    2  A    between atoms: O_2  and  C_3
REMARK    3  A    between atoms: C_7  and  C_8
REMARK    4  A    between atoms: C_12  and  C_13
REMARK    5  A    between atoms: C_13  and  N_14
REMARK    6  A    between atoms: C_18  and  C_19
REMARK                            x       y       z     vdW  Elec       q    Type
REMARK                         _______ _______ _______ _____ _____    ______ ____
ROOT
ATOM      1  C   UNL     1      49.163   7.145  16.840  0.00  0.00    +0.000 C 
ATOM      2  C   UNL     1      48.473   8.337  17.504  0.00  0.00    +0.000 C 
ATOM      3  C   UNL     1      49.951   8.183  17.616  0.00  0.00    +0.000 C 
ENDROOT
BRANCH   1   4
ATOM      4  N   UNL     1      48.878   5.814  17.406  0.00  0.00    +0.000 N 
ATOM      5  C   UNL     1      49.804   4.763  17.396  0.00  0.00    +0.000 A 
ATOM      6  C   UNL     1      51.163   4.951  17.621  0.00  0.00    +0.000 A 
ATOM      7  C   UNL     1      52.013   3.850  17.713  0.00  0.00    +0.000 A 
ATOM      8  C   UNL     1      51.485   2.572  17.565  0.00  0.00    +0.000 A 
ATOM      9  C   UNL     1      50.127   2.465  17.304  0.00  0.00    +0.000 A 
ATOM     10  N   UNL     1      49.282   3.529  17.234  0.00  0.00    +0.000 NA
ATOM     11  H   UNL     1      47.994   5.392  17.125  0.00  0.00    +0.000 HD
BRANCH   8  12
ATOM     12  C   UNL     1      52.303   1.347  17.672  0.00  0.00    +0.000 C 
ATOM     13  N   UNL     1      51.683   0.212  18.110  0.00  0.00    +0.000 N 
ATOM     14  O   UNL     1      53.484   1.341  17.348  0.00  0.00    +0.000 OA
ATOM     15  H   UNL     1      50.679   0.116  18.154  0.00  0.00    +0.000 HD
ATOM     16  H   UNL     1      52.230  -0.637  18.087  0.00  0.00    +0.000 HD
ENDBRANCH   8  12
ENDBRANCH   1   4
BRANCH   1  21
ATOM     17  C   UNL     1      48.022   6.539  13.203  0.00  0.00    +0.000 A 
ATOM     18  C   UNL     1      49.035   7.206  12.499  0.00  0.00    +0.000 A 
ATOM     19  C   UNL     1      50.084   7.840  13.169  0.00  0.00    +0.000 A 
ATOM     20  C   UNL     1      50.140   7.824  14.564  0.00  0.00    +0.000 A 
ATOM     21  C   UNL     1      49.157   7.169  15.315  0.00  0.00    +0.000 A 
ATOM     22  C   UNL     1      48.128   6.517  14.605  0.00  0.00    +0.000 A 
BRANCH  17  27
ATOM     23  C   UNL     1      45.052   4.297  12.429  0.00  0.00    +0.000 A 
ATOM     24  C   UNL     1      44.674   4.873  11.223  0.00  0.00    +0.000 A 
ATOM     25  N   UNL     1      45.307   5.917  10.644  0.00  0.00    +0.000 NA
ATOM     26  C   UNL     1      46.378   6.411  11.309  0.00  0.00    +0.000 A 
ATOM     27  C   UNL     1      46.867   5.921  12.522  0.00  0.00    +0.000 A 
ATOM     28  C   UNL     1      46.165   4.833  13.074  0.00  0.00    +0.000 A 
BRANCH  23  30
ATOM     29  C   UNL     1      43.369   2.699  11.926  0.00  0.00    +0.000 C 
ATOM     30  O   UNL     1      44.288   3.250  12.861  0.00  0.00    +0.000 OA
ENDBRANCH  23  30
ENDBRANCH  17  27
ENDBRANCH   1  21
TORSDOF 5
ENDMDL
MODEL 6
REMARK VINA RESULT:    -6.737      3.420      8.155
REMARK INTER + INTRA:          -9.699
REMARK INTER:                  -8.733
REMARK INTRA:                  -0.966
REMARK UNBOUND:                -0.992
REMARK  Name = 
REMARK  6 active torsions:
REMARK  status: ('A' for Active; 'I' for Inactive)
REMARK    1  A    between atoms: C_1  and  O_2
REMARK    2  A    between atoms: O_2  and  C_3
REMARK    3  A    between atoms: C_7  and  C_8
REMARK    4  A    between atoms: C_12  and  C_13
REMARK    5  A    between atoms: C_13  and  N_14
REMARK    6  A    between atoms: C_18  and  C_19
REMARK                            x       y       z     vdW  Elec       q    Type
REMARK                         _______ _______ _______ _____ _____    ______ ____
ROOT
ATOM      1  C   UNL     1      49.146   8.347  12.602  0.00  0.00    +0.000 C 
ATOM      2  C   UNL     1      49.916   9.065  11.494  0.00  0.00    +0.000 C 
ATOM      3  C   UNL     1      50.166   7.619  11.747  0.00  0.00    +0.000 C 
ENDROOT
BRANCH   1   4
ATOM      4  N   UNL     1      49.450   8.748  13.988  0.00  0.00    +0.000 N 
ATOM      5  C   UNL     1      49.016   8.027  15.107  0.00  0.00    +0.000 A 
ATOM      6  C   UNL     1      48.990   6.637  15.147  0.00  0.00    +0.000 A 
ATOM      7  C   UNL     1      48.657   5.980  16.331  0.00  0.00    +0.000 A 
ATOM      8  C   UNL     1      48.344   6.731  17.457  0.00  0.00    +0.000 A 
ATOM      9  C   UNL     1      48.353   8.112  17.331  0.00  0.00    +0.000 A 
ATOM     10  N   UNL     1      48.696   8.767  16.189  0.00  0.00    +0.000 NA
ATOM     11  H   UNL     1      49.272   9.725  14.216  0.00  0.00    +0.000 HD
BRANCH   8  12
ATOM     12  C   UNL     1      48.004   6.124  18.761  0.00  0.00    +0.000 C 
ATOM     13  N   UNL     1      46.772   5.548  18.884  0.00  0.00    +0.000 N 
ATOM     14  O   UNL     1      48.808   6.109  19.684  0.00  0.00    +0.000 OA
ATOM     15  H   UNL     1      46.185   5.329  18.093  0.00  0.00    +0.000 HD
ATOM     16  H   UNL     1      46.591   5.055  19.747  0.00  0.00    +0.000 HD
ENDBRANCH   8  12
ENDBRANCH   1   4
BRANCH   1  21
ATOM     17  C   UNL     1      45.829   6.742  11.457  0.00  0.00    +0.000 A 
ATOM     18  C   UNL     1      44.913   7.730  11.849  0.00  0.00    +0.000 A 
ATOM     19  C   UNL     1      45.342   8.907  12.467  0.00  0.00    +0.000 A 
ATOM     20  C   UNL     1      46.700   9.120  12.710  0.00  0.00    +0.000 A 
ATOM     21  C   UNL     1      47.655   8.169  12.335  0.00  0.00    +0.000 A 
ATOM     22  C   UNL     1      47.190   7.004  11.690  0.00  0.00    +0.000 A 
BRANCH  17  27
ATOM     23  C   UNL     1      45.195   3.930   8.977  0.00  0.00    +0.000 A 
ATOM     24  C   UNL     1      44.631   3.013   9.854  0.00  0.00    +0.000 A 
ATOM     25  N   UNL     1      44.435   3.237  11.172  0.00  0.00    +0.000 NA
ATOM     26  C   UNL     1      44.826   4.446  11.638  0.00  0.00    +0.000 A 
ATOM     27  C   UNL     1      45.397   5.460  10.865  0.00  0.00    +0.000 A 
ATOM     28  C   UNL     1      45.574   5.166   9.500  0.00  0.00    +0.000 A 
BRANCH  23  30
ATOM     29  C   UNL     1      46.605   3.652   7.088  0.00  0.00    +0.000 C 
ATOM     30  O   UNL     1      45.317   3.526   7.679  0.00  0.00    +0.000 OA
ENDBRANCH  23  30
ENDBRANCH  17  27
ENDBRANCH   1  21
TORSDOF 5
ENDMDL
