MODEL 1
REMARK VINA RESULT:    -9.474      0.000      0.000
REMARK INTER + INTRA:         -13.068
REMARK INTER:                 -12.243
REMARK INTRA:                  -0.826
REMARK UNBOUND:                -0.826
REMARK  Name = 
REMARK  7 active torsions:
REMARK  status: ('A' for Active; 'I' for Inactive)
REMARK    1  A    between atoms: C_1  and  C_2
REMARK    2  A    between atoms: C_2  and  C_3
REMARK    3  A    between atoms: C_9  and  C_10
REMARK    4  A    between atoms: C_10  and  C_13
REMARK    5  A    between atoms: C_13  and  N_14
REMARK    6  A    between atoms: N_14  and  C_15
REMARK    7  A    between atoms: C_18  and  C_19
REMARK                            x       y       z     vdW  Elec       q    Type
REMARK                         _______ _______ _______ _____ _____    ______ ____
ROOT
ATOM      1  C   UNL     1      45.063   6.006  11.623  0.00  0.00    +0.000 C 
ATOM      2  F   UNL     1      44.610   7.195  12.127  0.00  0.00    +0.000 F 
ATOM      3  F   UNL     1      45.853   6.347  10.562  0.00  0.00    +0.000 F 
ENDROOT
BRANCH   1  12
ATOM      4  C   UNL     1      50.984   3.593  17.629  0.00  0.00    +0.000 C 
ATOM      5  C   UNL     1      49.743   4.383  18.020  0.00  0.00    +0.000 C 
ATOM      6  C   UNL     1      49.573   4.529  19.523  0.00  0.00    +0.000 C 
ATOM      7  C   UNL     1      48.476   4.018  17.247  0.00  0.00    +0.000 C 
ATOM      8  C   UNL     1      48.703   5.364  16.593  0.00  0.00    +0.000 C 
ATOM      9  N   UNL     1      47.996   5.967  15.615  0.00  0.00    +0.000 N 
ATOM     10  C   UNL     1      47.320   5.258  14.609  0.00  0.00    +0.000 A 
ATOM     11  C   UNL     1      46.581   5.950  13.649  0.00  0.00    +0.000 A 
ATOM     12  C   UNL     1      45.861   5.241  12.669  0.00  0.00    +0.000 A 
ATOM     13  C   UNL     1      45.915   3.842  12.711  0.00  0.00    +0.000 A 
ATOM     14  C   UNL     1      46.662   3.232  13.691  0.00  0.00    +0.000 A 
ATOM     15  N   UNL     1      47.345   3.911  14.625  0.00  0.00    +0.000 NA
ATOM     16  N   UNL     1      49.702   5.695  17.329  0.00  0.00    +0.000 NA
ATOM     17  H   UNL     1      48.425   6.822  15.285  0.00  0.00    +0.000 HD
ENDBRANCH   1  12
BRANCH   1  18
ATOM     18  C   UNL     1      43.832   5.218  11.094  0.00  0.00    +0.000 C 
BRANCH  18  19
ATOM     19  N   UNL     1      43.785   5.034   9.639  0.00  0.00    +0.000 N 
ATOM     20  H   UNL     1      42.877   5.215   9.214  0.00  0.00    +0.000 HD
BRANCH  19  21
ATOM     21  C   UNL     1      44.511   4.005   9.041  0.00  0.00    +0.000 A 
ATOM     22  C   UNL     1      44.437   2.662   9.433  0.00  0.00    +0.000 A 
ATOM     23  C   UNL     1      45.275   1.690   8.866  0.00  0.00    +0.000 A 
ATOM     24  C   UNL     1      46.223   2.051   7.907  0.00  0.00    +0.000 A 
ATOM     25  C   UNL     1      46.333   3.389   7.529  0.00  0.00    +0.000 A 
ATOM     26  C   UNL     1      45.487   4.351   8.095  0.00  0.00    +0.000 A 
BRANCH  24  27
ATOM     27  C   UNL     1      47.115   0.994   7.362  0.00  0.00    +0.000 C 
ATOM     28  N   UNL     1      46.828  -0.302   7.688  0.00  0.00    +0.000 N 
ATOM     29  O   UNL     1      48.089   1.269   6.675  0.00  0.00    +0.000 OA
ATOM     30  H   UNL     1      46.152  -0.563   8.390  0.00  0.00    +0.000 HD
ATOM     31  H   UNL     1      47.491  -1.003   7.382  0.00  0.00    +0.000 HD
ENDBRANCH  24  27
ENDBRANCH  19  21
ENDBRANCH  18  19
ENDBRANCH   1  18
TORSDOF 5
ENDMDL
MODEL 2
REMARK VINA RESULT:    -8.997      2.865      3.847
REMARK INTER + INTRA:         -12.452
REMARK INTER:                 -11.759
REMARK INTRA:                  -0.693
REMARK UNBOUND:                -0.826
REMARK  Name = 
REMARK  7 active torsions:
REMARK  status: ('A' for Active; 'I' for Inactive)
REMARK    1  A    between atoms: C_1  and  C_2
REMARK    2  A    between atoms: C_2  and  C_3
REMARK    3  A    between atoms: C_9  and  C_10
REMARK    4  A    between atoms: C_10  and  C_13
REMARK    5  A    between atoms: C_13  and  N_14
REMARK    6  A    between atoms: N_14  and  C_15
REMARK    7  A    between atoms: C_18  and  C_19
REMARK                            x       y       z     vdW  Elec       q    Type
REMARK                         _______ _______ _______ _____ _____    ______ ____
ROOT
ATOM      1  C   UNL     1      43.410   4.734  12.707  0.00  0.00    +0.000 C 
ATOM      2  F   UNL     1      43.023   3.951  13.761  0.00  0.00    +0.000 F 
ATOM      3  F   UNL     1      42.568   5.810  12.738  0.00  0.00    +0.000 F 
ENDROOT
BRANCH   1  12
ATOM      4  C   UNL     1      51.218   8.591  11.656  0.00  0.00    +0.000 C 
ATOM      5  C   UNL     1      50.114   9.255  12.468  0.00  0.00    +0.000 C 
ATOM      6  C   UNL     1      50.573  10.511  13.189  0.00  0.00    +0.000 C 
ATOM      7  C   UNL     1      49.255   8.298  13.293  0.00  0.00    +0.000 C 
ATOM      8  C   UNL     1      48.208   8.623  12.251  0.00  0.00    +0.000 C 
ATOM      9  N   UNL     1      46.951   8.148  12.128  0.00  0.00    +0.000 N 
ATOM     10  C   UNL     1      46.576   6.857  12.534  0.00  0.00    +0.000 A 
ATOM     11  C   UNL     1      45.248   6.448  12.406  0.00  0.00    +0.000 A 
ATOM     12  C   UNL     1      44.858   5.173  12.858  0.00  0.00    +0.000 A 
ATOM     13  C   UNL     1      45.843   4.361  13.436  0.00  0.00    +0.000 A 
ATOM     14  C   UNL     1      47.129   4.837  13.531  0.00  0.00    +0.000 A 
ATOM     15  N   UNL     1      47.497   6.054  13.101  0.00  0.00    +0.000 NA
ATOM     16  N   UNL     1      48.911   9.504  11.636  0.00  0.00    +0.000 NA
ATOM     17  H   UNL     1      46.495   8.450  11.277  0.00  0.00    +0.000 HD
ENDBRANCH   1  12
BRANCH   1  18
ATOM     18  C   UNL     1      43.144   3.932  11.402  0.00  0.00    +0.000 C 
BRANCH  18  19
ATOM     19  N   UNL     1      43.666   4.544  10.174  0.00  0.00    +0.000 N 
ATOM     20  H   UNL     1      43.015   5.163   9.694  0.00  0.00    +0.000 HD
BRANCH  19  21
ATOM     21  C   UNL     1      44.503   3.815   9.330  0.00  0.00    +0.000 A 
ATOM     22  C   UNL     1      44.687   2.429   9.415  0.00  0.00    +0.000 A 
ATOM     23  C   UNL     1      45.626   1.768   8.610  0.00  0.00    +0.000 A 
ATOM     24  C   UNL     1      46.420   2.490   7.716  0.00  0.00    +0.000 A 
ATOM     25  C   UNL     1      46.273   3.876   7.643  0.00  0.00    +0.000 A 
ATOM     26  C   UNL     1      45.327   4.525   8.446  0.00  0.00    +0.000 A 
BRANCH  24  27
ATOM     27  C   UNL     1      47.429   1.753   6.911  0.00  0.00    +0.000 C 
ATOM     28  N   UNL     1      48.527   2.448   6.488  0.00  0.00    +0.000 N 
ATOM     29  O   UNL     1      47.272   0.579   6.607  0.00  0.00    +0.000 OA
ATOM     30  H   UNL     1      48.613   3.450   6.559  0.00  0.00    +0.000 HD
ATOM     31  H   UNL     1      49.163   1.958   5.871  0.00  0.00    +0.000 HD
ENDBRANCH  24  27
ENDBRANCH  19  21
ENDBRANCH  18  19
ENDBRANCH   1  18
TORSDOF 5
ENDMDL
MODEL 3
REMARK VINA RESULT:    -8.877      3.398      4.179
REMARK INTER + INTRA:         -12.298
REMARK INTER:                 -11.503
REMARK INTRA:                  -0.795
REMARK UNBOUND:                -0.826
REMARK  Name = 
REMARK  7 active torsions:
REMARK  status: ('A' for Active; 'I' for Inactive)
REMARK    1  A    between atoms: C_1  and  C_2
REMARK    2  A    between atoms: C_2  and  C_3
REMARK    3  A    between atoms: C_9  and  C_10
REMARK    4  A    between atoms: C_10  and  C_13
REMARK    5  A    between atoms: C_13  and  N_14
REMARK    6  A    between atoms: N_14  and  C_15
REMARK    7  A    between atoms: C_18  and  C_19
REMARK                            x       y       z     vdW  Elec       q    Type
REMARK                         _______ _______ _______ _____ _____    ______ ____
ROOT
ATOM      1  C   UNL     1      44.287   4.279  12.517  0.00  0.00    +0.000 C 
ATOM      2  F   UNL     1      45.114   3.189  12.507  0.00  0.00    +0.000 F 
ATOM      3  F   UNL     1      43.608   4.199  13.700  0.00  0.00    +0.000 F 
ENDROOT
BRANCH   1  12
ATOM      4  C   UNL     1      50.464  10.453  13.336  0.00  0.00    +0.000 C 
ATOM      5  C   UNL     1      50.516   9.431  12.208  0.00  0.00    +0.000 C 
ATOM      6  C   UNL     1      51.607   9.717  11.190  0.00  0.00    +0.000 C 
ATOM      7  C   UNL     1      49.157   9.044  11.626  0.00  0.00    +0.000 C 
ATOM      8  C   UNL     1      49.419   7.741  12.350  0.00  0.00    +0.000 C 
ATOM      9  N   UNL     1      48.637   6.646  12.445  0.00  0.00    +0.000 N 
ATOM     10  C   UNL     1      47.234   6.702  12.431  0.00  0.00    +0.000 A 
ATOM     11  C   UNL     1      46.492   5.522  12.499  0.00  0.00    +0.000 A 
ATOM     12  C   UNL     1      45.086   5.570  12.435  0.00  0.00    +0.000 A 
ATOM     13  C   UNL     1      44.487   6.829  12.293  0.00  0.00    +0.000 A 
ATOM     14  C   UNL     1      45.286   7.945  12.229  0.00  0.00    +0.000 A 
ATOM     15  N   UNL     1      46.626   7.895  12.288  0.00  0.00    +0.000 NA
ATOM     16  N   UNL     1      50.604   8.048  12.739  0.00  0.00    +0.000 NA
ATOM     17  H   UNL     1      49.005   5.950  13.080  0.00  0.00    +0.000 HD
ENDBRANCH   1  12
BRANCH   1  18
ATOM     18  C   UNL     1      43.273   4.110  11.350  0.00  0.00    +0.000 C 
BRANCH  18  19
ATOM     19  N   UNL     1      43.714   4.643  10.056  0.00  0.00    +0.000 N 
ATOM     20  H   UNL     1      43.013   5.189   9.556  0.00  0.00    +0.000 HD
BRANCH  19  21
ATOM     21  C   UNL     1      44.553   3.887   9.237  0.00  0.00    +0.000 A 
ATOM     22  C   UNL     1      44.660   2.492   9.301  0.00  0.00    +0.000 A 
ATOM     23  C   UNL     1      45.603   1.798   8.527  0.00  0.00    +0.000 A 
ATOM     24  C   UNL     1      46.476   2.495   7.689  0.00  0.00    +0.000 A 
ATOM     25  C   UNL     1      46.405   3.888   7.639  0.00  0.00    +0.000 A 
ATOM     26  C   UNL     1      45.455   4.570   8.409  0.00  0.00    +0.000 A 
BRANCH  24  27
ATOM     27  C   UNL     1      47.484   1.721   6.918  0.00  0.00    +0.000 C 
ATOM     28  N   UNL     1      48.555   2.407   6.416  0.00  0.00    +0.000 N 
ATOM     29  O   UNL     1      47.349   0.524   6.708  0.00  0.00    +0.000 OA
ATOM     30  H   UNL     1      48.617   3.413   6.407  0.00  0.00    +0.000 HD
ATOM     31  H   UNL     1      49.188   1.886   5.822  0.00  0.00    +0.000 HD
ENDBRANCH  24  27
ENDBRANCH  19  21
ENDBRANCH  18  19
ENDBRANCH   1  18
TORSDOF 5
ENDMDL
MODEL 4
REMARK VINA RESULT:    -8.540      1.238      1.804
REMARK INTER + INTRA:         -11.862
REMARK INTER:                 -11.570
REMARK INTRA:                  -0.291
REMARK UNBOUND:                -0.826
REMARK  Name = 
REMARK  7 active torsions:
REMARK  status: ('A' for Active; 'I' for Inactive)
REMARK    1  A    between atoms: C_1  and  C_2
REMARK    2  A    between atoms: C_2  and  C_3
REMARK    3  A    between atoms: C_9  and  C_10
REMARK    4  A    between atoms: C_10  and  C_13
REMARK    5  A    between atoms: C_13  and  N_14
REMARK    6  A    between atoms: N_14  and  C_15
REMARK    7  A    between atoms: C_18  and  C_19
REMARK                            x       y       z     vdW  Elec       q    Type
REMARK                         _______ _______ _______ _____ _____    ______ ____
ROOT
ATOM      1  C   UNL     1      45.283   6.342  11.223  0.00  0.00    +0.000 C 
ATOM      2  F   UNL     1      44.655   7.558  11.208  0.00  0.00    +0.000 F 
ATOM      3  F   UNL     1      45.992   6.295  10.056  0.00  0.00    +0.000 F 
ENDROOT
BRANCH   1  12
ATOM      4  C   UNL     1      48.768   4.393  19.033  0.00  0.00    +0.000 C 
ATOM      5  C   UNL     1      48.894   3.438  17.854  0.00  0.00    +0.000 C 
ATOM      6  C   UNL     1      49.811   2.259  18.132  0.00  0.00    +0.000 C 
ATOM      7  C   UNL     1      49.084   4.113  16.496  0.00  0.00    +0.000 C 
ATOM      8  C   UNL     1      47.661   3.651  16.269  0.00  0.00    +0.000 C 
ATOM      9  N   UNL     1      46.860   3.848  15.201  0.00  0.00    +0.000 N 
ATOM     10  C   UNL     1      46.937   4.988  14.384  0.00  0.00    +0.000 A 
ATOM     11  C   UNL     1      46.098   5.104  13.275  0.00  0.00    +0.000 A 
ATOM     12  C   UNL     1      46.207   6.221  12.425  0.00  0.00    +0.000 A 
ATOM     13  C   UNL     1      47.181   7.179  12.735  0.00  0.00    +0.000 A 
ATOM     14  C   UNL     1      47.973   6.991  13.843  0.00  0.00    +0.000 A 
ATOM     15  N   UNL     1      47.868   5.924  14.650  0.00  0.00    +0.000 NA
ATOM     16  N   UNL     1      47.562   3.000  17.371  0.00  0.00    +0.000 NA
ATOM     17  H   UNL     1      45.914   3.523  15.350  0.00  0.00    +0.000 HD
ENDBRANCH   1  12
BRANCH   1  18
ATOM     18  C   UNL     1      44.184   5.244  11.181  0.00  0.00    +0.000 C 
BRANCH  18  19
ATOM     19  N   UNL     1      43.772   4.821   9.838  0.00  0.00    +0.000 N 
ATOM     20  H   UNL     1      42.766   4.721   9.710  0.00  0.00    +0.000 HD
BRANCH  19  21
ATOM     21  C   UNL     1      44.542   3.900   9.127  0.00  0.00    +0.000 A 
ATOM     22  C   UNL     1      44.675   2.552   9.481  0.00  0.00    +0.000 A 
ATOM     23  C   UNL     1      45.552   1.701   8.791  0.00  0.00    +0.000 A 
ATOM     24  C   UNL     1      46.333   2.194   7.743  0.00  0.00    +0.000 A 
ATOM     25  C   UNL     1      46.238   3.543   7.400  0.00  0.00    +0.000 A 
ATOM     26  C   UNL     1      45.353   4.382   8.090  0.00  0.00    +0.000 A 
BRANCH  24  27
ATOM     27  C   UNL     1      47.276   1.265   7.067  0.00  0.00    +0.000 C 
ATOM     28  N   UNL     1      48.340   1.816   6.410  0.00  0.00    +0.000 N 
ATOM     29  O   UNL     1      47.094   0.056   7.066  0.00  0.00    +0.000 OA
ATOM     30  H   UNL     1      48.433   2.805   6.231  0.00  0.00    +0.000 HD
ATOM     31  H   UNL     1      48.926   1.181   5.883  0.00  0.00    +0.000 HD
ENDBRANCH  24  27
ENDBRANCH  19  21
ENDBRANCH  18  19
ENDBRANCH   1  18
TORSDOF 5
ENDMDL
MODEL 5
REMARK VINA RESULT:    -8.510      1.581      2.034
REMARK INTER + INTRA:         -11.824
REMARK INTER:                 -11.556
REMARK INTRA:                  -0.267
REMARK UNBOUND:                -0.826
REMARK  Name = 
REMARK  7 active torsions:
REMARK  status: ('A' for Active; 'I' for Inactive)
REMARK    1  A    between atoms: C_1  and  C_2
REMARK    2  A    between atoms: C_2  and  C_3
REMARK    3  A    between atoms: C_9  and  C_10
REMARK    4  A    between atoms: C_10  and  C_13
REMARK    5  A    between atoms: C_13  and  N_14
REMARK    6  A    between atoms: N_14  and  C_15
REMARK    7  A    between atoms: C_18  and  C_19
REMARK                            x       y       z     vdW  Elec       q    Type
REMARK                         _______ _______ _______ _____ _____    ______ ____
ROOT
ATOM      1  C   UNL     1      45.068   4.545  12.520  0.00  0.00    +0.000 C 
ATOM      2  F   UNL     1      45.350   3.297  12.035  0.00  0.00    +0.000 F 
ATOM      3  F   UNL     1      43.959   4.380  13.301  0.00  0.00    +0.000 F 
ENDROOT
BRANCH   1  12
ATOM      4  C   UNL     1      50.400   6.967  19.050  0.00  0.00    +0.000 C 
ATOM      5  C   UNL     1      50.437   5.552  18.487  0.00  0.00    +0.000 C 
ATOM      6  C   UNL     1      51.579   4.717  19.038  0.00  0.00    +0.000 C 
ATOM      7  C   UNL     1      50.218   5.454  16.978  0.00  0.00    +0.000 C 
ATOM      8  C   UNL     1      48.879   4.882  17.390  0.00  0.00    +0.000 C 
ATOM      9  N   UNL     1      47.850   4.477  16.617  0.00  0.00    +0.000 N 
ATOM     10  C   UNL     1      47.557   5.048  15.368  0.00  0.00    +0.000 A 
ATOM     11  C   UNL     1      46.496   4.552  14.610  0.00  0.00    +0.000 A 
ATOM     12  C   UNL     1      46.231   5.089  13.335  0.00  0.00    +0.000 A 
ATOM     13  C   UNL     1      47.071   6.112  12.876  0.00  0.00    +0.000 A 
ATOM     14  C   UNL     1      48.098   6.543  13.680  0.00  0.00    +0.000 A 
ATOM     15  N   UNL     1      48.350   6.028  14.893  0.00  0.00    +0.000 NA
ATOM     16  N   UNL     1      49.127   4.875  18.650  0.00  0.00    +0.000 NA
ATOM     17  H   UNL     1      47.026   4.233  17.151  0.00  0.00    +0.000 HD
ENDBRANCH   1  12
BRANCH   1  18
ATOM     18  C   UNL     1      44.693   5.447  11.310  0.00  0.00    +0.000 C 
BRANCH  18  19
ATOM     19  N   UNL     1      44.018   4.759  10.203  0.00  0.00    +0.000 N 
ATOM     20  H   UNL     1      43.093   4.396  10.425  0.00  0.00    +0.000 HD
BRANCH  19  21
ATOM     21  C   UNL     1      44.753   3.973   9.316  0.00  0.00    +0.000 A 
ATOM     22  C   UNL     1      44.733   2.572   9.309  0.00  0.00    +0.000 A 
ATOM     23  C   UNL     1      45.579   1.836   8.466  0.00  0.00    +0.000 A 
ATOM     24  C   UNL     1      46.481   2.492   7.626  0.00  0.00    +0.000 A 
ATOM     25  C   UNL     1      46.536   3.886   7.644  0.00  0.00    +0.000 A 
ATOM     26  C   UNL     1      45.683   4.612   8.484  0.00  0.00    +0.000 A 
BRANCH  24  27
ATOM     27  C   UNL     1      47.383   1.670   6.778  0.00  0.00    +0.000 C 
ATOM     28  N   UNL     1      48.445   2.301   6.192  0.00  0.00    +0.000 N 
ATOM     29  O   UNL     1      47.172   0.482   6.581  0.00  0.00    +0.000 OA
ATOM     30  H   UNL     1      48.558   3.304   6.178  0.00  0.00    +0.000 HD
ATOM     31  H   UNL     1      49.002   1.751   5.551  0.00  0.00    +0.000 HD
ENDBRANCH  24  27
ENDBRANCH  19  21
ENDBRANCH  18  19
ENDBRANCH   1  18
TORSDOF 5
ENDMDL
MODEL 6
REMARK VINA RESULT:    -8.487      2.620      3.389
REMARK INTER + INTRA:         -11.794
REMARK INTER:                 -11.112
REMARK INTRA:                  -0.681
REMARK UNBOUND:                -0.826
REMARK  Name = 
REMARK  7 active torsions:
REMARK  status: ('A' for Active; 'I' for Inactive)
REMARK    1  A    between atoms: C_1  and  C_2
REMARK    2  A    between atoms: C_2  and  C_3
REMARK    3  A    between atoms: C_9  and  C_10
REMARK    4  A    between atoms: C_10  and  C_13
REMARK    5  A    between atoms: C_13  and  N_14
REMARK    6  A    between atoms: N_14  and  C_15
REMARK    7  A    between atoms: C_18  and  C_19
REMARK                            x       y       z     vdW  Elec       q    Type
REMARK                         _______ _______ _______ _____ _____    ______ ____
ROOT
ATOM      1  C   UNL     1      43.506   4.926  12.234  0.00  0.00    +0.000 C 
ATOM      2  F   UNL     1      42.803   4.766  13.397  0.00  0.00    +0.000 F 
ATOM      3  F   UNL     1      42.588   5.360  11.321  0.00  0.00    +0.000 F 
ENDROOT
BRANCH   1  12
ATOM      4  C   UNL     1      50.113   9.754  15.393  0.00  0.00    +0.000 C 
ATOM      5  C   UNL     1      50.372   8.427  14.692  0.00  0.00    +0.000 C 
ATOM      6  C   UNL     1      51.847   8.152  14.455  0.00  0.00    +0.000 C 
ATOM      7  C   UNL     1      49.449   8.131  13.511  0.00  0.00    +0.000 C 
ATOM      8  C   UNL     1      48.854   7.116  14.462  0.00  0.00    +0.000 C 
ATOM      9  N   UNL     1      47.812   6.279  14.274  0.00  0.00    +0.000 N 
ATOM     10  C   UNL     1      46.719   6.589  13.448  0.00  0.00    +0.000 A 
ATOM     11  C   UNL     1      45.694   5.658  13.276  0.00  0.00    +0.000 A 
ATOM     12  C   UNL     1      44.622   5.944  12.410  0.00  0.00    +0.000 A 
ATOM     13  C   UNL     1      44.642   7.174  11.739  0.00  0.00    +0.000 A 
ATOM     14  C   UNL     1      45.690   8.037  11.958  0.00  0.00    +0.000 A 
ATOM     15  N   UNL     1      46.711   7.760  12.783  0.00  0.00    +0.000 NA
ATOM     16  N   UNL     1      49.708   7.307  15.402  0.00  0.00    +0.000 NA
ATOM     17  H   UNL     1      47.552   5.776  15.113  0.00  0.00    +0.000 HD
ENDBRANCH   1  12
BRANCH   1  18
ATOM     18  C   UNL     1      44.018   3.524  11.796  0.00  0.00    +0.000 C 
BRANCH  18  19
ATOM     19  N   UNL     1      43.688   3.140  10.419  0.00  0.00    +0.000 N 
ATOM     20  H   UNL     1      42.934   2.460  10.334  0.00  0.00    +0.000 HD
BRANCH  19  21
ATOM     21  C   UNL     1      44.699   3.008   9.468  0.00  0.00    +0.000 A 
ATOM     22  C   UNL     1      45.181   4.063   8.684  0.00  0.00    +0.000 A 
ATOM     23  C   UNL     1      46.122   3.845   7.667  0.00  0.00    +0.000 A 
ATOM     24  C   UNL     1      46.583   2.554   7.399  0.00  0.00    +0.000 A 
ATOM     25  C   UNL     1      46.088   1.486   8.149  0.00  0.00    +0.000 A 
ATOM     26  C   UNL     1      45.155   1.716   9.167  0.00  0.00    +0.000 A 
BRANCH  24  27
ATOM     27  C   UNL     1      47.550   2.365   6.287  0.00  0.00    +0.000 C 
ATOM     28  N   UNL     1      47.496   3.251   5.247  0.00  0.00    +0.000 N 
ATOM     29  O   UNL     1      48.345   1.436   6.281  0.00  0.00    +0.000 OA
ATOM     30  H   UNL     1      46.748   3.917   5.122  0.00  0.00    +0.000 HD
ATOM     31  H   UNL     1      48.101   3.061   4.459  0.00  0.00    +0.000 HD
ENDBRANCH  24  27
ENDBRANCH  19  21
ENDBRANCH  18  19
ENDBRANCH   1  18
TORSDOF 5
ENDMDL
