MODEL 1
REMARK VINA RESULT:    -9.270      0.000      0.000
REMARK INTER + INTRA:         -13.337
REMARK INTER:                 -12.521
REMARK INTRA:                  -0.815
REMARK UNBOUND:                -0.815
REMARK  Name = 
REMARK  6 active torsions:
REMARK  status: ('A' for Active; 'I' for Inactive)
REMARK    1  A    between atoms: C_2  and  C_4
REMARK    2  A    between atoms: N_8  and  C_9
REMARK    3  A    between atoms: C_9  and  C_10
REMARK    4  A    between atoms: C_10  and  C_13
REMARK    5  A    between atoms: C_18  and  S_19
REMARK    6  A    between atoms: S_19  and  C_20
REMARK                            x       y       z     vdW  Elec       q    Type
REMARK                         _______ _______ _______ _____ _____    ______ ____
ROOT
ATOM      1  C   UNL     1      43.466   5.648  12.075  0.00  0.00    +0.000 C 
ATOM      2  F   UNL     1      43.061   6.785  11.436  0.00  0.00    +0.000 F 
ATOM      3  F   UNL     1      42.630   5.517  13.147  0.00  0.00    +0.000 F 
ENDROOT
BRANCH   1   4
ATOM      4  C   UNL     1      44.918   5.717  12.509  0.00  0.00    +0.000 A 
ATOM      5  C   UNL     1      45.777   6.660  11.930  0.00  0.00    +0.000 A 
ATOM      6  C   UNL     1      47.102   6.728  12.338  0.00  0.00    +0.000 A 
ATOM      7  F   UNL     1      47.923   7.609  11.750  0.00  0.00    +0.000 F 
ATOM      8  C   UNL     1      47.597   5.876  13.320  0.00  0.00    +0.000 A 
ATOM      9  C   UNL     1      46.763   4.919  13.910  0.00  0.00    +0.000 A 
ATOM     10  C   UNL     1      45.430   4.840  13.487  0.00  0.00    +0.000 A 
BRANCH   9  11
ATOM     11  S   UNL     1      47.505   3.675  14.939  0.00  0.00    +0.000 S 
BRANCH  11  12
ATOM     12  C   UNL     1      47.077   4.048  16.654  0.00  0.00    +0.000 C 
ATOM     13  C   UNL     1      47.950   5.085  17.375  0.00  0.00    +0.000 C 
ATOM     14  N   UNL     1      47.758   4.306  18.628  0.00  0.00    +0.000 NA
ATOM     15  C   UNL     1      47.503   3.102  17.781  0.00  0.00    +0.000 C 
ATOM     16  H   UNL     1      46.940   4.609  19.161  0.00  0.00    +0.000 HD
ENDBRANCH  11  12
ENDBRANCH   9  11
ENDBRANCH   1   4
BRANCH   1  17
ATOM     17  C   UNL     1      43.254   4.445  11.117  0.00  0.00    +0.000 C 
BRANCH  17  22
ATOM     18  C   UNL     1      46.471   2.494   7.679  0.00  0.00    +0.000 A 
ATOM     19  C   UNL     1      45.652   1.836   8.589  0.00  0.00    +0.000 A 
ATOM     20  C   UNL     1      44.715   2.572   9.315  0.00  0.00    +0.000 A 
ATOM     21  C   UNL     1      44.623   3.949   9.130  0.00  0.00    +0.000 A 
ATOM     22  N   UNL     1      43.658   4.730   9.735  0.00  0.00    +0.000 N 
ATOM     23  N   UNL     1      45.436   4.599   8.277  0.00  0.00    +0.000 NA
ATOM     24  C   UNL     1      46.343   3.869   7.576  0.00  0.00    +0.000 A 
ATOM     25  H   UNL     1      43.873   5.707   9.536  0.00  0.00    +0.000 HD
BRANCH  18  27
ATOM     26  N   UNL     1      48.522   2.519   6.379  0.00  0.00    +0.000 N 
ATOM     27  C   UNL     1      47.451   1.792   6.820  0.00  0.00    +0.000 C 
ATOM     28  O   UNL     1      47.328   0.605   6.546  0.00  0.00    +0.000 OA
ATOM     29  H   UNL     1      49.244   1.999   5.894  0.00  0.00    +0.000 HD
ATOM     30  H   UNL     1      48.786   3.403   6.790  0.00  0.00    +0.000 HD
ENDBRANCH  18  27
ENDBRANCH  17  22
ENDBRANCH   1  17
TORSDOF 6
ENDMDL
MODEL 2
REMARK VINA RESULT:    -9.132      2.486      3.228
REMARK INTER + INTRA:         -13.150
REMARK INTER:                 -12.315
REMARK INTRA:                  -0.835
REMARK UNBOUND:                -0.815
REMARK  Name = 
REMARK  6 active torsions:
REMARK  status: ('A' for Active; 'I' for Inactive)
REMARK    1  A    between atoms: C_2  and  C_4
REMARK    2  A    between atoms: N_8  and  C_9
REMARK    3  A    between atoms: C_9  and  C_10
REMARK    4  A    between atoms: C_10  and  C_13
REMARK    5  A    between atoms: C_18  and  S_19
REMARK    6  A    between atoms: S_19  and  C_20
REMARK                            x       y       z     vdW  Elec       q    Type
REMARK                         _______ _______ _______ _____ _____    ______ ____
ROOT
ATOM      1  C   UNL     1      43.315   5.622  12.040  0.00  0.00    +0.000 C 
ATOM      2  F   UNL     1      42.974   6.759  11.363  0.00  0.00    +0.000 F 
ATOM      3  F   UNL     1      42.361   5.476  13.006  0.00  0.00    +0.000 F 
ENDROOT
BRANCH   1   4
ATOM      4  C   UNL     1      44.705   5.705  12.641  0.00  0.00    +0.000 A 
ATOM      5  C   UNL     1      45.328   4.548  13.127  0.00  0.00    +0.000 A 
ATOM      6  C   UNL     1      46.605   4.626  13.666  0.00  0.00    +0.000 A 
ATOM      7  F   UNL     1      47.175   3.520  14.161  0.00  0.00    +0.000 F 
ATOM      8  C   UNL     1      47.285   5.838  13.731  0.00  0.00    +0.000 A 
ATOM      9  C   UNL     1      46.684   7.011  13.259  0.00  0.00    +0.000 A 
ATOM     10  C   UNL     1      45.389   6.935  12.730  0.00  0.00    +0.000 A 
BRANCH   9  11
ATOM     11  S   UNL     1      47.467   8.565  13.623  0.00  0.00    +0.000 S 
BRANCH  11  12
ATOM     12  C   UNL     1      49.032   8.619  12.722  0.00  0.00    +0.000 C 
ATOM     13  C   UNL     1      49.130   7.757  11.455  0.00  0.00    +0.000 C 
ATOM     14  N   UNL     1      50.565   7.529  11.779  0.00  0.00    +0.000 NA
ATOM     15  C   UNL     1      50.234   7.803  13.210  0.00  0.00    +0.000 C 
ATOM     16  H   UNL     1      51.182   8.231  11.363  0.00  0.00    +0.000 HD
ENDBRANCH  11  12
ENDBRANCH   9  11
ENDBRANCH   1   4
BRANCH   1  17
ATOM     17  C   UNL     1      43.230   4.423  11.058  0.00  0.00    +0.000 C 
BRANCH  17  22
ATOM     18  C   UNL     1      46.520   2.494   7.676  0.00  0.00    +0.000 A 
ATOM     19  C   UNL     1      45.640   1.831   8.523  0.00  0.00    +0.000 A 
ATOM     20  C   UNL     1      44.699   2.572   9.241  0.00  0.00    +0.000 A 
ATOM     21  C   UNL     1      44.665   3.958   9.110  0.00  0.00    +0.000 A 
ATOM     22  N   UNL     1      43.703   4.749   9.707  0.00  0.00    +0.000 N 
ATOM     23  N   UNL     1      45.537   4.611   8.320  0.00  0.00    +0.000 NA
ATOM     24  C   UNL     1      46.447   3.876   7.628  0.00  0.00    +0.000 A 
ATOM     25  H   UNL     1      43.962   5.725   9.559  0.00  0.00    +0.000 HD
BRANCH  18  27
ATOM     26  N   UNL     1      48.569   2.527   6.374  0.00  0.00    +0.000 N 
ATOM     27  C   UNL     1      47.510   1.791   6.830  0.00  0.00    +0.000 C 
ATOM     28  O   UNL     1      47.406   0.598   6.578  0.00  0.00    +0.000 OA
ATOM     29  H   UNL     1      49.299   2.009   5.899  0.00  0.00    +0.000 HD
ATOM     30  H   UNL     1      48.820   3.423   6.769  0.00  0.00    +0.000 HD
ENDBRANCH  18  27
ENDBRANCH  17  22
ENDBRANCH   1  17
TORSDOF 6
ENDMDL
MODEL 3
REMARK VINA RESULT:    -8.466      3.197      4.873
REMARK INTER + INTRA:         -12.251
REMARK INTER:                 -11.613
REMARK INTRA:                  -0.637
REMARK UNBOUND:                -0.815
REMARK  Name = 
REMARK  6 active torsions:
REMARK  status: ('A' for Active; 'I' for Inactive)
REMARK    1  A    between atoms: C_2  and  C_4
REMARK    2  A    between atoms: N_8  and  C_9
REMARK    3  A    between atoms: C_9  and  C_10
REMARK    4  A    between atoms: C_10  and  C_13
REMARK    5  A    between atoms: C_18  and  S_19
REMARK    6  A    between atoms: S_19  and  C_20
REMARK                            x       y       z     vdW  Elec       q    Type
REMARK                         _______ _______ _______ _____ _____    ______ ____
ROOT
ATOM      1  C   UNL     1      44.355   4.628  12.314  0.00  0.00    +0.000 C 
ATOM      2  F   UNL     1      43.699   4.577  13.511  0.00  0.00    +0.000 F 
ATOM      3  F   UNL     1      45.135   3.506  12.281  0.00  0.00    +0.000 F 
ENDROOT
BRANCH   1   4
ATOM      4  C   UNL     1      45.188   5.887  12.167  0.00  0.00    +0.000 A 
ATOM      5  C   UNL     1      46.586   5.812  12.225  0.00  0.00    +0.000 A 
ATOM      6  C   UNL     1      47.345   6.966  12.079  0.00  0.00    +0.000 A 
ATOM      7  F   UNL     1      48.678   6.887  12.174  0.00  0.00    +0.000 F 
ATOM      8  C   UNL     1      46.742   8.202  11.869  0.00  0.00    +0.000 A 
ATOM      9  C   UNL     1      45.346   8.306  11.813  0.00  0.00    +0.000 A 
ATOM     10  C   UNL     1      44.580   7.145  11.978  0.00  0.00    +0.000 A 
BRANCH   9  11
ATOM     11  S   UNL     1      44.622   9.929  11.834  0.00  0.00    +0.000 S 
BRANCH  11  12
ATOM     12  C   UNL     1      43.468  10.036  10.448  0.00  0.00    +0.000 C 
ATOM     13  C   UNL     1      43.312  11.412   9.783  0.00  0.00    +0.000 C 
ATOM     14  N   UNL     1      41.879  11.084   9.551  0.00  0.00    +0.000 NA
ATOM     15  C   UNL     1      41.960  10.137  10.703  0.00  0.00    +0.000 C 
ATOM     16  H   UNL     1      41.719  10.620   8.654  0.00  0.00    +0.000 HD
ENDBRANCH  11  12
ENDBRANCH   9  11
ENDBRANCH   1   4
BRANCH   1  17
ATOM     17  C   UNL     1      43.304   4.548  11.175  0.00  0.00    +0.000 C 
BRANCH  17  22
ATOM     18  C   UNL     1      46.464   2.484   7.750  0.00  0.00    +0.000 A 
ATOM     19  C   UNL     1      45.492   1.870   8.531  0.00  0.00    +0.000 A 
ATOM     20  C   UNL     1      44.616   2.664   9.274  0.00  0.00    +0.000 A 
ATOM     21  C   UNL     1      44.737   4.050   9.234  0.00  0.00    +0.000 A 
ATOM     22  N   UNL     1      43.850   4.904   9.860  0.00  0.00    +0.000 N 
ATOM     23  N   UNL     1      45.699   4.652   8.509  0.00  0.00    +0.000 NA
ATOM     24  C   UNL     1      46.543   3.866   7.791  0.00  0.00    +0.000 A 
ATOM     25  H   UNL     1      44.218   5.852   9.783  0.00  0.00    +0.000 HD
BRANCH  18  27
ATOM     26  N   UNL     1      48.482   2.410   6.401  0.00  0.00    +0.000 N 
ATOM     27  C   UNL     1      47.397   1.731   6.882  0.00  0.00    +0.000 C 
ATOM     28  O   UNL     1      47.225   0.544   6.634  0.00  0.00    +0.000 OA
ATOM     29  H   UNL     1      49.172   1.855   5.909  0.00  0.00    +0.000 HD
ATOM     30  H   UNL     1      48.788   3.292   6.788  0.00  0.00    +0.000 HD
ENDBRANCH  18  27
ENDBRANCH  17  22
ENDBRANCH   1  17
TORSDOF 6
ENDMDL
MODEL 4
REMARK VINA RESULT:    -8.373      1.995      2.493
REMARK INTER + INTRA:         -12.125
REMARK INTER:                 -11.799
REMARK INTRA:                  -0.326
REMARK UNBOUND:                -0.815
REMARK  Name = 
REMARK  6 active torsions:
REMARK  status: ('A' for Active; 'I' for Inactive)
REMARK    1  A    between atoms: C_2  and  C_4
REMARK    2  A    between atoms: N_8  and  C_9
REMARK    3  A    between atoms: C_9  and  C_10
REMARK    4  A    between atoms: C_10  and  C_13
REMARK    5  A    between atoms: C_18  and  S_19
REMARK    6  A    between atoms: S_19  and  C_20
REMARK                            x       y       z     vdW  Elec       q    Type
REMARK                         _______ _______ _______ _____ _____    ______ ____
ROOT
ATOM      1  C   UNL     1      44.365   4.478  12.277  0.00  0.00    +0.000 C 
ATOM      2  F   UNL     1      43.741   4.293  13.478  0.00  0.00    +0.000 F 
ATOM      3  F   UNL     1      45.184   3.396  12.124  0.00  0.00    +0.000 F 
ENDROOT
BRANCH   1   4
ATOM      4  C   UNL     1      45.147   5.777  12.229  0.00  0.00    +0.000 A 
ATOM      5  C   UNL     1      44.518   6.958  11.813  0.00  0.00    +0.000 A 
ATOM      6  C   UNL     1      45.235   8.146  11.780  0.00  0.00    +0.000 A 
ATOM      7  F   UNL     1      44.633   9.261  11.346  0.00  0.00    +0.000 F 
ATOM      8  C   UNL     1      46.573   8.190  12.159  0.00  0.00    +0.000 A 
ATOM      9  C   UNL     1      47.228   7.024  12.572  0.00  0.00    +0.000 A 
ATOM     10  C   UNL     1      46.510   5.821  12.589  0.00  0.00    +0.000 A 
BRANCH   9  11
ATOM     11  S   UNL     1      48.994   7.074  12.767  0.00  0.00    +0.000 S 
BRANCH  11  12
ATOM     12  C   UNL     1      49.350   7.359  14.515  0.00  0.00    +0.000 C 
ATOM     13  C   UNL     1      48.656   6.430  15.522  0.00  0.00    +0.000 C 
ATOM     14  N   UNL     1      48.578   7.583  16.459  0.00  0.00    +0.000 NA
ATOM     15  C   UNL     1      48.645   8.488  15.273  0.00  0.00    +0.000 C 
ATOM     16  H   UNL     1      49.395   7.652  17.070  0.00  0.00    +0.000 HD
ENDBRANCH  11  12
ENDBRANCH   9  11
ENDBRANCH   1   4
BRANCH   1  17
ATOM     17  C   UNL     1      43.289   4.462  11.158  0.00  0.00    +0.000 C 
BRANCH  17  22
ATOM     18  C   UNL     1      46.474   2.518   7.686  0.00  0.00    +0.000 A 
ATOM     19  C   UNL     1      45.521   1.871   8.466  0.00  0.00    +0.000 A 
ATOM     20  C   UNL     1      44.632   2.634   9.224  0.00  0.00    +0.000 A 
ATOM     21  C   UNL     1      44.720   4.024   9.202  0.00  0.00    +0.000 A 
ATOM     22  N   UNL     1      43.817   4.849   9.844  0.00  0.00    +0.000 N 
ATOM     23  N   UNL     1      45.662   4.657   8.478  0.00  0.00    +0.000 NA
ATOM     24  C   UNL     1      46.520   3.901   7.744  0.00  0.00    +0.000 A 
ATOM     25  H   UNL     1      44.162   5.806   9.777  0.00  0.00    +0.000 HD
BRANCH  18  27
ATOM     26  N   UNL     1      48.486   2.508   6.327  0.00  0.00    +0.000 N 
ATOM     27  C   UNL     1      47.418   1.798   6.803  0.00  0.00    +0.000 C 
ATOM     28  O   UNL     1      47.270   0.612   6.537  0.00  0.00    +0.000 OA
ATOM     29  H   UNL     1      49.186   1.975   5.824  0.00  0.00    +0.000 HD
ATOM     30  H   UNL     1      48.775   3.390   6.727  0.00  0.00    +0.000 HD
ENDBRANCH  18  27
ENDBRANCH  17  22
ENDBRANCH   1  17
TORSDOF 6
ENDMDL
MODEL 5
REMARK VINA RESULT:    -8.051      3.395      7.868
REMARK INTER + INTRA:         -11.690
REMARK INTER:                 -10.905
REMARK INTRA:                  -0.785
REMARK UNBOUND:                -0.815
REMARK  Name = 
REMARK  6 active torsions:
REMARK  status: ('A' for Active; 'I' for Inactive)
REMARK    1  A    between atoms: C_2  and  C_4
REMARK    2  A    between atoms: N_8  and  C_9
REMARK    3  A    between atoms: C_9  and  C_10
REMARK    4  A    between atoms: C_10  and  C_13
REMARK    5  A    between atoms: C_18  and  S_19
REMARK    6  A    between atoms: S_19  and  C_20
REMARK                            x       y       z     vdW  Elec       q    Type
REMARK                         _______ _______ _______ _____ _____    ______ ____
ROOT
ATOM      1  C   UNL     1      45.958   6.545  11.596  0.00  0.00    +0.000 C 
ATOM      2  F   UNL     1      45.266   7.652  11.191  0.00  0.00    +0.000 F 
ATOM      3  F   UNL     1      47.228   6.720  11.125  0.00  0.00    +0.000 F 
ENDROOT
BRANCH   1   4
ATOM      4  C   UNL     1      45.344   5.260  11.075  0.00  0.00    +0.000 A 
ATOM      5  C   UNL     1      44.724   4.370  11.962  0.00  0.00    +0.000 A 
ATOM      6  C   UNL     1      44.154   3.200  11.479  0.00  0.00    +0.000 A 
ATOM      7  F   UNL     1      43.597   2.340  12.342  0.00  0.00    +0.000 F 
ATOM      8  C   UNL     1      44.182   2.893  10.123  0.00  0.00    +0.000 A 
ATOM      9  C   UNL     1      44.801   3.761   9.215  0.00  0.00    +0.000 A 
ATOM     10  C   UNL     1      45.391   4.933   9.704  0.00  0.00    +0.000 A 
BRANCH   9  11
ATOM     11  S   UNL     1      45.063   3.192   7.551  0.00  0.00    +0.000 S 
BRANCH  11  12
ATOM     12  C   UNL     1      46.813   2.781   7.377  0.00  0.00    +0.000 C 
ATOM     13  C   UNL     1      47.407   2.868   5.964  0.00  0.00    +0.000 C 
ATOM     14  N   UNL     1      48.278   1.712   6.310  0.00  0.00    +0.000 NA
ATOM     15  C   UNL     1      47.263   1.317   7.332  0.00  0.00    +0.000 C 
ATOM     16  H   UNL     1      49.173   1.998   6.715  0.00  0.00    +0.000 HD
ENDBRANCH  11  12
ENDBRANCH   9  11
ENDBRANCH   1   4
BRANCH   1  17
ATOM     17  C   UNL     1      45.990   6.529  13.148  0.00  0.00    +0.000 C 
BRANCH  17  22
ATOM     18  C   UNL     1      48.442   3.988  16.823  0.00  0.00    +0.000 A 
ATOM     19  C   UNL     1      47.474   3.533  15.935  0.00  0.00    +0.000 A 
ATOM     20  C   UNL     1      47.069   4.363  14.888  0.00  0.00    +0.000 A 
ATOM     21  C   UNL     1      47.625   5.633  14.758  0.00  0.00    +0.000 A 
ATOM     22  N   UNL     1      47.351   6.472  13.696  0.00  0.00    +0.000 N 
ATOM     23  N   UNL     1      48.536   6.095  15.635  0.00  0.00    +0.000 NA
ATOM     24  C   UNL     1      48.921   5.275  16.648  0.00  0.00    +0.000 A 
ATOM     25  H   UNL     1      47.782   7.376  13.889  0.00  0.00    +0.000 HD
BRANCH  18  27
ATOM     26  N   UNL     1      48.295   3.183  19.109  0.00  0.00    +0.000 N 
ATOM     27  C   UNL     1      48.979   3.159  17.926  0.00  0.00    +0.000 C 
ATOM     28  O   UNL     1      49.970   2.456  17.775  0.00  0.00    +0.000 OA
ATOM     29  H   UNL     1      48.601   2.523  19.814  0.00  0.00    +0.000 HD
ATOM     30  H   UNL     1      47.350   3.535  19.185  0.00  0.00    +0.000 HD
ENDBRANCH  18  27
ENDBRANCH  17  22
ENDBRANCH   1  17
TORSDOF 6
ENDMDL
MODEL 6
REMARK VINA RESULT:    -7.387      3.422      8.186
REMARK INTER + INTRA:         -10.793
REMARK INTER:                 -10.310
REMARK INTRA:                  -0.483
REMARK UNBOUND:                -0.815
REMARK  Name = 
REMARK  6 active torsions:
REMARK  status: ('A' for Active; 'I' for Inactive)
REMARK    1  A    between atoms: C_2  and  C_4
REMARK    2  A    between atoms: N_8  and  C_9
REMARK    3  A    between atoms: C_9  and  C_10
REMARK    4  A    between atoms: C_10  and  C_13
REMARK    5  A    between atoms: C_18  and  S_19
REMARK    6  A    between atoms: S_19  and  C_20
REMARK                            x       y       z     vdW  Elec       q    Type
REMARK                         _______ _______ _______ _____ _____    ______ ____
ROOT
ATOM      1  C   UNL     1      46.652   6.694  12.236  0.00  0.00    +0.000 C 
ATOM      2  F   UNL     1      46.256   7.772  12.975  0.00  0.00    +0.000 F 
ATOM      3  F   UNL     1      47.432   7.206  11.238  0.00  0.00    +0.000 F 
ENDROOT
BRANCH   1   4
ATOM      4  C   UNL     1      45.476   5.915  11.677  0.00  0.00    +0.000 A 
ATOM      5  C   UNL     1      44.169   6.276  12.027  0.00  0.00    +0.000 A 
ATOM      6  C   UNL     1      43.095   5.568  11.505  0.00  0.00    +0.000 A 
ATOM      7  F   UNL     1      41.851   5.899  11.876  0.00  0.00    +0.000 F 
ATOM      8  C   UNL     1      43.291   4.502  10.633  0.00  0.00    +0.000 A 
ATOM      9  C   UNL     1      44.588   4.115  10.273  0.00  0.00    +0.000 A 
ATOM     10  C   UNL     1      45.672   4.819  10.812  0.00  0.00    +0.000 A 
BRANCH   9  11
ATOM     11  S   UNL     1      44.796   2.583   9.395  0.00  0.00    +0.000 S 
BRANCH  11  12
ATOM     12  C   UNL     1      45.568   2.957   7.806  0.00  0.00    +0.000 C 
ATOM     13  C   UNL     1      46.840   2.172   7.452  0.00  0.00    +0.000 C 
ATOM     14  N   UNL     1      47.345   3.392   6.764  0.00  0.00    +0.000 NA
ATOM     15  C   UNL     1      46.452   4.199   7.648  0.00  0.00    +0.000 C 
ATOM     16  H   UNL     1      47.080   3.427   5.777  0.00  0.00    +0.000 HD
ENDBRANCH  11  12
ENDBRANCH   9  11
ENDBRANCH   1   4
BRANCH   1  17
ATOM     17  C   UNL     1      47.521   5.775  13.136  0.00  0.00    +0.000 C 
BRANCH  17  22
ATOM     18  C   UNL     1      48.452   4.448  17.968  0.00  0.00    +0.000 A 
ATOM     19  C   UNL     1      48.902   5.555  17.258  0.00  0.00    +0.000 A 
ATOM     20  C   UNL     1      48.372   5.812  15.993  0.00  0.00    +0.000 A 
ATOM     21  C   UNL     1      47.416   4.953  15.456  0.00  0.00    +0.000 A 
ATOM     22  N   UNL     1      46.773   5.193  14.257  0.00  0.00    +0.000 N 
ATOM     23  N   UNL     1      47.001   3.859  16.122  0.00  0.00    +0.000 NA
ATOM     24  C   UNL     1      47.526   3.623  17.353  0.00  0.00    +0.000 A 
ATOM     25  H   UNL     1      46.215   4.371  14.030  0.00  0.00    +0.000 HD
BRANCH  18  27
ATOM     26  N   UNL     1      48.315   3.063  19.958  0.00  0.00    +0.000 N 
ATOM     27  C   UNL     1      48.908   4.129  19.339  0.00  0.00    +0.000 C 
ATOM     28  O   UNL     1      49.802   4.766  19.883  0.00  0.00    +0.000 OA
ATOM     29  H   UNL     1      48.717   2.782  20.844  0.00  0.00    +0.000 HD
ATOM     30  H   UNL     1      47.776   2.372  19.454  0.00  0.00    +0.000 HD
ENDBRANCH  18  27
ENDBRANCH  17  22
ENDBRANCH   1  17
TORSDOF 6
ENDMDL
MODEL 7
REMARK VINA RESULT:    -6.985      3.777      8.356
REMARK INTER + INTRA:         -10.250
REMARK INTER:                  -9.579
REMARK INTRA:                  -0.671
REMARK UNBOUND:                -0.815
REMARK  Name = 
REMARK  6 active torsions:
REMARK  status: ('A' for Active; 'I' for Inactive)
REMARK    1  A    between atoms: C_2  and  C_4
REMARK    2  A    between atoms: N_8  and  C_9
REMARK    3  A    between atoms: C_9  and  C_10
REMARK    4  A    between atoms: C_10  and  C_13
REMARK    5  A    between atoms: C_18  and  S_19
REMARK    6  A    between atoms: S_19  and  C_20
REMARK                            x       y       z     vdW  Elec       q    Type
REMARK                         _______ _______ _______ _____ _____    ______ ____
ROOT
ATOM      1  C   UNL     1      46.873   4.400  13.629  0.00  0.00    +0.000 C 
ATOM      2  F   UNL     1      47.726   5.392  13.236  0.00  0.00    +0.000 F 
ATOM      3  F   UNL     1      47.606   3.248  13.572  0.00  0.00    +0.000 F 
ENDROOT
BRANCH   1   4
ATOM      4  C   UNL     1      45.640   4.318  12.749  0.00  0.00    +0.000 A 
ATOM      5  C   UNL     1      44.454   4.946  13.148  0.00  0.00    +0.000 A 
ATOM      6  C   UNL     1      43.331   4.878  12.334  0.00  0.00    +0.000 A 
ATOM      7  F   UNL     1      42.191   5.450  12.743  0.00  0.00    +0.000 F 
ATOM      8  C   UNL     1      43.361   4.198  11.121  0.00  0.00    +0.000 A 
ATOM      9  C   UNL     1      44.533   3.555  10.702  0.00  0.00    +0.000 A 
ATOM     10  C   UNL     1      45.661   3.610  11.530  0.00  0.00    +0.000 A 
BRANCH   9  11
ATOM     11  S   UNL     1      44.440   2.467   9.299  0.00  0.00    +0.000 S 
BRANCH  11  12
ATOM     12  C   UNL     1      45.168   3.325   7.886  0.00  0.00    +0.000 C 
ATOM     13  C   UNL     1      46.468   2.738   7.315  0.00  0.00    +0.000 C 
ATOM     14  N   UNL     1      46.906   4.128   7.012  0.00  0.00    +0.000 NA
ATOM     15  C   UNL     1      45.993   4.599   8.096  0.00  0.00    +0.000 C 
ATOM     16  H   UNL     1      46.624   4.438   6.078  0.00  0.00    +0.000 HD
ENDBRANCH  11  12
ENDBRANCH   9  11
ENDBRANCH   1   4
BRANCH   1  17
ATOM     17  C   UNL     1      46.460   4.665  15.102  0.00  0.00    +0.000 C 
BRANCH  17  22
ATOM     18  C   UNL     1      50.720   3.629  17.702  0.00  0.00    +0.000 A 
ATOM     19  C   UNL     1      50.110   4.856  17.467  0.00  0.00    +0.000 A 
ATOM     20  C   UNL     1      48.845   4.883  16.878  0.00  0.00    +0.000 A 
ATOM     21  C   UNL     1      48.222   3.690  16.522  0.00  0.00    +0.000 A 
ATOM     22  N   UNL     1      46.933   3.628  16.028  0.00  0.00    +0.000 N 
ATOM     23  N   UNL     1      48.821   2.500  16.713  0.00  0.00    +0.000 NA
ATOM     24  C   UNL     1      50.052   2.489  17.288  0.00  0.00    +0.000 A 
ATOM     25  H   UNL     1      46.752   2.668  15.738  0.00  0.00    +0.000 HD
BRANCH  18  27
ATOM     26  N   UNL     1      52.498   2.226  18.577  0.00  0.00    +0.000 N 
ATOM     27  C   UNL     1      52.031   3.496  18.375  0.00  0.00    +0.000 C 
ATOM     28  O   UNL     1      52.685   4.477  18.706  0.00  0.00    +0.000 OA
ATOM     29  H   UNL     1      53.446   2.151  18.929  0.00  0.00    +0.000 HD
ATOM     30  H   UNL     1      52.119   1.423  18.095  0.00  0.00    +0.000 HD
ENDBRANCH  18  27
ENDBRANCH  17  22
ENDBRANCH   1  17
TORSDOF 6
ENDMDL
MODEL 8
REMARK VINA RESULT:    -6.939      3.004      3.788
REMARK INTER + INTRA:         -10.189
REMARK INTER:                  -9.965
REMARK INTRA:                  -0.224
REMARK UNBOUND:                -0.815
REMARK  Name = 
REMARK  6 active torsions:
REMARK  status: ('A' for Active; 'I' for Inactive)
REMARK    1  A    between atoms: C_2  and  C_4
REMARK    2  A    between atoms: N_8  and  C_9
REMARK    3  A    between atoms: C_9  and  C_10
REMARK    4  A    between atoms: C_10  and  C_13
REMARK    5  A    between atoms: C_18  and  S_19
REMARK    6  A    between atoms: S_19  and  C_20
REMARK                            x       y       z     vdW  Elec       q    Type
REMARK                         _______ _______ _______ _____ _____    ______ ____
ROOT
ATOM      1  C   UNL     1      45.317   5.205  12.616  0.00  0.00    +0.000 C 
ATOM      2  F   UNL     1      44.939   4.751  13.848  0.00  0.00    +0.000 F 
ATOM      3  F   UNL     1      46.340   4.389  12.228  0.00  0.00    +0.000 F 
ENDROOT
BRANCH   1   4
ATOM      4  C   UNL     1      45.747   6.660  12.646  0.00  0.00    +0.000 A 
ATOM      5  C   UNL     1      44.970   7.632  12.004  0.00  0.00    +0.000 A 
ATOM      6  C   UNL     1      45.361   8.964  12.043  0.00  0.00    +0.000 A 
ATOM      7  F   UNL     1      44.630   9.880  11.394  0.00  0.00    +0.000 F 
ATOM      8  C   UNL     1      46.515   9.355  12.715  0.00  0.00    +0.000 A 
ATOM      9  C   UNL     1      47.314   8.402  13.359  0.00  0.00    +0.000 A 
ATOM     10  C   UNL     1      46.928   7.057  13.305  0.00  0.00    +0.000 A 
BRANCH   9  11
ATOM     11  S   UNL     1      48.913   8.906  13.950  0.00  0.00    +0.000 S 
BRANCH  11  12
ATOM     12  C   UNL     1      50.056   8.867  12.551  0.00  0.00    +0.000 C 
ATOM     13  C   UNL     1      50.042   7.602  11.681  0.00  0.00    +0.000 C 
ATOM     14  N   UNL     1      51.507   7.777  11.487  0.00  0.00    +0.000 NA
ATOM     15  C   UNL     1      51.536   8.539  12.771  0.00  0.00    +0.000 C 
ATOM     16  H   UNL     1      51.732   8.349  10.669  0.00  0.00    +0.000 HD
ENDBRANCH  11  12
ENDBRANCH   9  11
ENDBRANCH   1   4
BRANCH   1  17
ATOM     17  C   UNL     1      44.124   5.022  11.639  0.00  0.00    +0.000 C 
BRANCH  17  22
ATOM     18  C   UNL     1      46.399   2.957   7.573  0.00  0.00    +0.000 A 
ATOM     19  C   UNL     1      45.543   2.366   8.496  0.00  0.00    +0.000 A 
ATOM     20  C   UNL     1      44.893   3.173   9.432  0.00  0.00    +0.000 A 
ATOM     21  C   UNL     1      45.119   4.546   9.437  0.00  0.00    +0.000 A 
ATOM     22  N   UNL     1      44.440   5.421  10.263  0.00  0.00    +0.000 N 
ATOM     23  N   UNL     1      45.973   5.122   8.570  0.00  0.00    +0.000 NA
ATOM     24  C   UNL     1      46.599   4.324   7.664  0.00  0.00    +0.000 A 
ATOM     25  H   UNL     1      44.864   6.343  10.162  0.00  0.00    +0.000 HD
BRANCH  18  27
ATOM     26  N   UNL     1      47.389   2.872   5.357  0.00  0.00    +0.000 N 
ATOM     27  C   UNL     1      47.085   2.195   6.506  0.00  0.00    +0.000 C 
ATOM     28  O   UNL     1      47.398   1.020   6.656  0.00  0.00    +0.000 OA
ATOM     29  H   UNL     1      47.962   2.375   4.686  0.00  0.00    +0.000 HD
ATOM     30  H   UNL     1      47.382   3.881   5.303  0.00  0.00    +0.000 HD
ENDBRANCH  18  27
ENDBRANCH  17  22
ENDBRANCH   1  17
TORSDOF 6
ENDMDL
MODEL 9
REMARK VINA RESULT:    -6.839      4.445      7.628
REMARK INTER + INTRA:         -10.053
REMARK INTER:                  -9.358
REMARK INTRA:                  -0.695
REMARK UNBOUND:                -0.815
REMARK  Name = 
REMARK  6 active torsions:
REMARK  status: ('A' for Active; 'I' for Inactive)
REMARK    1  A    between atoms: C_2  and  C_4
REMARK    2  A    between atoms: N_8  and  C_9
REMARK    3  A    between atoms: C_9  and  C_10
REMARK    4  A    between atoms: C_10  and  C_13
REMARK    5  A    between atoms: C_18  and  S_19
REMARK    6  A    between atoms: S_19  and  C_20
REMARK                            x       y       z     vdW  Elec       q    Type
REMARK                         _______ _______ _______ _____ _____    ______ ____
ROOT
ATOM      1  C   UNL     1      45.853   6.339  12.264  0.00  0.00    +0.000 C 
ATOM      2  F   UNL     1      45.006   6.912  13.170  0.00  0.00    +0.000 F 
ATOM      3  F   UNL     1      46.155   7.331  11.375  0.00  0.00    +0.000 F 
ENDROOT
BRANCH   1   4
ATOM      4  C   UNL     1      45.230   5.142  11.571  0.00  0.00    +0.000 A 
ATOM      5  C   UNL     1      44.550   4.174  12.322  0.00  0.00    +0.000 A 
ATOM      6  C   UNL     1      43.973   3.086  11.682  0.00  0.00    +0.000 A 
ATOM      7  F   UNL     1      43.357   2.148  12.414  0.00  0.00    +0.000 F 
ATOM      8  C   UNL     1      44.051   2.938  10.301  0.00  0.00    +0.000 A 
ATOM      9  C   UNL     1      44.731   3.887   9.527  0.00  0.00    +0.000 A 
ATOM     10  C   UNL     1      45.328   4.976  10.174  0.00  0.00    +0.000 A 
BRANCH   9  11
ATOM     11  S   UNL     1      45.050   3.509   7.820  0.00  0.00    +0.000 S 
BRANCH  11  12
ATOM     12  C   UNL     1      46.652   2.678   7.729  0.00  0.00    +0.000 C 
ATOM     13  C   UNL     1      47.301   2.578   6.341  0.00  0.00    +0.000 C 
ATOM     14  N   UNL     1      47.849   1.254   6.744  0.00  0.00    +0.000 NA
ATOM     15  C   UNL     1      46.731   1.148   7.729  0.00  0.00    +0.000 C 
ATOM     16  H   UNL     1      48.771   1.324   7.182  0.00  0.00    +0.000 HD
ENDBRANCH  11  12
ENDBRANCH   9  11
ENDBRANCH   1   4
BRANCH   1  17
ATOM     17  C   UNL     1      47.147   5.911  13.006  0.00  0.00    +0.000 C 
BRANCH  17  22
ATOM     18  C   UNL     1      51.491   8.490  12.326  0.00  0.00    +0.000 A 
ATOM     19  C   UNL     1      50.602   7.998  11.376  0.00  0.00    +0.000 A 
ATOM     20  C   UNL     1      49.378   7.476  11.798  0.00  0.00    +0.000 A 
ATOM     21  C   UNL     1      49.071   7.443  13.156  0.00  0.00    +0.000 A 
ATOM     22  N   UNL     1      47.845   7.035  13.643  0.00  0.00    +0.000 N 
ATOM     23  N   UNL     1      49.941   7.884  14.084  0.00  0.00    +0.000 NA
ATOM     24  C   UNL     1      51.128   8.390  13.658  0.00  0.00    +0.000 A 
ATOM     25  H   UNL     1      47.909   6.989  14.660  0.00  0.00    +0.000 HD
BRANCH  18  27
ATOM     26  N   UNL     1      53.397   8.674  10.834  0.00  0.00    +0.000 N 
ATOM     27  C   UNL     1      52.784   9.118  11.973  0.00  0.00    +0.000 C 
ATOM     28  O   UNL     1      53.266  10.017  12.649  0.00  0.00    +0.000 OA
ATOM     29  H   UNL     1      54.217   9.191  10.539  0.00  0.00    +0.000 HD
ATOM     30  H   UNL     1      52.914   8.134  10.129  0.00  0.00    +0.000 HD
ENDBRANCH  18  27
ENDBRANCH  17  22
ENDBRANCH   1  17
TORSDOF 6
ENDMDL
