MODEL 1
REMARK VINA RESULT:    -9.561      0.000      0.000
REMARK INTER + INTRA:         -13.448
REMARK INTER:                 -12.356
REMARK INTRA:                  -1.093
REMARK UNBOUND:                -1.093
REMARK  Name = 
REMARK  5 active torsions:
REMARK  status: ('A' for Active; 'I' for Inactive)
REMARK    1  A    between atoms: C_2  and  C_4
REMARK    2  A    between atoms: N_8  and  C_9
REMARK    3  A    between atoms: C_9  and  C_10
REMARK    4  A    between atoms: C_10  and  C_13
REMARK    5  A    between atoms: C_17  and  C_18
REMARK                            x       y       z     vdW  Elec       q    Type
REMARK                         _______ _______ _______ _____ _____    ______ ____
ROOT
ATOM      1  C   UNL     1      43.281   5.762  11.942  0.00  0.00    +0.000 C 
ATOM      2  F   UNL     1      42.925   7.018  11.543  0.00  0.00    +0.000 F 
ATOM      3  F   UNL     1      42.338   5.393  12.860  0.00  0.00    +0.000 F 
ENDROOT
BRANCH   1   4
ATOM      4  C   UNL     1      44.686   5.721  12.517  0.00  0.00    +0.000 A 
ATOM      5  C   UNL     1      45.111   4.616  13.264  0.00  0.00    +0.000 A 
ATOM      6  C   UNL     1      46.411   4.561  13.755  0.00  0.00    +0.000 A 
ATOM      7  C   UNL     1      47.307   5.598  13.484  0.00  0.00    +0.000 A 
ATOM      8  C   UNL     1      46.938   6.706  12.697  0.00  0.00    +0.000 A 
ATOM      9  C   UNL     1      45.603   6.758  12.250  0.00  0.00    +0.000 A 
BRANCH   8  10
ATOM     10  C   UNL     1      47.936   7.723  12.286  0.00  0.00    +0.000 A 
ATOM     11  C   UNL     1      49.277   7.358  12.047  0.00  0.00    +0.000 A 
ATOM     12  C   UNL     1      50.219   8.279  11.578  0.00  0.00    +0.000 A 
ATOM     13  C   UNL     1      49.838   9.591  11.334  0.00  0.00    +0.000 A 
ATOM     14 CL   UNL     1      50.982  10.716  10.716  0.00  0.00    +0.000 Cl
ATOM     15  C   UNL     1      48.529   9.990  11.576  0.00  0.00    +0.000 A 
ATOM     16  C   UNL     1      47.589   9.068  12.058  0.00  0.00    +0.000 A 
ENDBRANCH   8  10
ENDBRANCH   1   4
BRANCH   1  17
ATOM     17  C   UNL     1      43.189   4.807  10.725  0.00  0.00    +0.000 C 
BRANCH  17  22
ATOM     18  C   UNL     1      46.454   2.295   7.649  0.00  0.00    +0.000 A 
ATOM     19  C   UNL     1      45.653   1.852   8.695  0.00  0.00    +0.000 A 
ATOM     20  C   UNL     1      44.866   2.776   9.384  0.00  0.00    +0.000 A 
ATOM     21  C   UNL     1      44.896   4.124   9.027  0.00  0.00    +0.000 A 
ATOM     22  N   UNL     1      44.158   5.081   9.669  0.00  0.00    +0.000 N 
ATOM     23  N   UNL     1      45.676   4.560   8.022  0.00  0.00    +0.000 NA
ATOM     24  C   UNL     1      46.445   3.648   7.363  0.00  0.00    +0.000 A 
ATOM     25  H   UNL     1      44.254   6.018   9.292  0.00  0.00    +0.000 HD
BRANCH  18  27
ATOM     26  N   UNL     1      48.431   1.935   6.283  0.00  0.00    +0.000 N 
ATOM     27  C   UNL     1      47.320   1.390   6.868  0.00  0.00    +0.000 C 
ATOM     28  O   UNL     1      47.077   0.195   6.771  0.00  0.00    +0.000 OA
ATOM     29  H   UNL     1      49.068   1.284   5.840  0.00  0.00    +0.000 HD
ATOM     30  H   UNL     1      48.792   2.842   6.539  0.00  0.00    +0.000 HD
ENDBRANCH  18  27
ENDBRANCH  17  22
ENDBRANCH   1  17
TORSDOF 5
ENDMDL
MODEL 2
REMARK VINA RESULT:    -9.422      2.868      4.014
REMARK INTER + INTRA:         -13.268
REMARK INTER:                 -12.133
REMARK INTRA:                  -1.135
REMARK UNBOUND:                -1.093
REMARK  Name = 
REMARK  5 active torsions:
REMARK  status: ('A' for Active; 'I' for Inactive)
REMARK    1  A    between atoms: C_2  and  C_4
REMARK    2  A    between atoms: N_8  and  C_9
REMARK    3  A    between atoms: C_9  and  C_10
REMARK    4  A    between atoms: C_10  and  C_13
REMARK    5  A    between atoms: C_17  and  C_18
REMARK                            x       y       z     vdW  Elec       q    Type
REMARK                         _______ _______ _______ _____ _____    ______ ____
ROOT
ATOM      1  C   UNL     1      43.582   4.649  12.465  0.00  0.00    +0.000 C 
ATOM      2  F   UNL     1      42.654   5.540  12.925  0.00  0.00    +0.000 F 
ATOM      3  F   UNL     1      43.352   3.496  13.162  0.00  0.00    +0.000 F 
ENDROOT
BRANCH   1   4
ATOM      4  C   UNL     1      45.002   5.156  12.651  0.00  0.00    +0.000 A 
ATOM      5  C   UNL     1      45.567   6.031  11.716  0.00  0.00    +0.000 A 
ATOM      6  C   UNL     1      46.851   6.528  11.909  0.00  0.00    +0.000 A 
ATOM      7  C   UNL     1      47.574   6.176  13.051  0.00  0.00    +0.000 A 
ATOM      8  C   UNL     1      47.028   5.338  14.042  0.00  0.00    +0.000 A 
ATOM      9  C   UNL     1      45.743   4.814  13.800  0.00  0.00    +0.000 A 
BRANCH   8  10
ATOM     10  C   UNL     1      47.739   5.095  15.321  0.00  0.00    +0.000 A 
ATOM     11  C   UNL     1      48.655   6.042  15.824  0.00  0.00    +0.000 A 
ATOM     12  C   UNL     1      49.275   5.878  17.067  0.00  0.00    +0.000 A 
ATOM     13  C   UNL     1      48.991   4.759  17.837  0.00  0.00    +0.000 A 
ATOM     14 CL   UNL     1      49.719   4.575  19.384  0.00  0.00    +0.000 Cl
ATOM     15  C   UNL     1      48.108   3.796  17.363  0.00  0.00    +0.000 A 
ATOM     16  C   UNL     1      47.496   3.957  16.111  0.00  0.00    +0.000 A 
ENDBRANCH   8  10
ENDBRANCH   1   4
BRANCH   1  17
ATOM     17  C   UNL     1      43.317   4.383  10.962  0.00  0.00    +0.000 C 
BRANCH  17  22
ATOM     18  C   UNL     1      46.595   2.639   7.406  0.00  0.00    +0.000 A 
ATOM     19  C   UNL     1      46.123   3.920   7.671  0.00  0.00    +0.000 A 
ATOM     20  C   UNL     1      45.204   4.103   8.705  0.00  0.00    +0.000 A 
ATOM     21  C   UNL     1      44.764   3.010   9.451  0.00  0.00    +0.000 A 
ATOM     22  N   UNL     1      43.857   3.119  10.469  0.00  0.00    +0.000 N 
ATOM     23  N   UNL     1      45.211   1.768   9.193  0.00  0.00    +0.000 NA
ATOM     24  C   UNL     1      46.102   1.602   8.176  0.00  0.00    +0.000 A 
ATOM     25  H   UNL     1      43.644   2.250  10.947  0.00  0.00    +0.000 HD
BRANCH  18  27
ATOM     26  N   UNL     1      47.533   3.160   5.226  0.00  0.00    +0.000 N 
ATOM     27  C   UNL     1      47.565   2.353   6.330  0.00  0.00    +0.000 C 
ATOM     28  O   UNL     1      48.387   1.452   6.432  0.00  0.00    +0.000 OA
ATOM     29  H   UNL     1      48.269   3.018   4.546  0.00  0.00    +0.000 HD
ATOM     30  H   UNL     1      47.049   4.046   5.212  0.00  0.00    +0.000 HD
ENDBRANCH  18  27
ENDBRANCH  17  22
ENDBRANCH   1  17
TORSDOF 5
ENDMDL
MODEL 3
REMARK VINA RESULT:    -9.123      1.857      2.481
REMARK INTER + INTRA:         -12.883
REMARK INTER:                 -11.580
REMARK INTRA:                  -1.303
REMARK UNBOUND:                -1.093
REMARK  Name = 
REMARK  5 active torsions:
REMARK  status: ('A' for Active; 'I' for Inactive)
REMARK    1  A    between atoms: C_2  and  C_4
REMARK    2  A    between atoms: N_8  and  C_9
REMARK    3  A    between atoms: C_9  and  C_10
REMARK    4  A    between atoms: C_10  and  C_13
REMARK    5  A    between atoms: C_17  and  C_18
REMARK                            x       y       z     vdW  Elec       q    Type
REMARK                         _______ _______ _______ _____ _____    ______ ____
ROOT
ATOM      1  C   UNL     1      44.215   3.941  12.475  0.00  0.00    +0.000 C 
ATOM      2  F   UNL     1      43.390   3.972  13.563  0.00  0.00    +0.000 F 
ATOM      3  F   UNL     1      45.191   3.036  12.787  0.00  0.00    +0.000 F 
ENDROOT
BRANCH   1   4
ATOM      4  C   UNL     1      44.787   5.310  12.152  0.00  0.00    +0.000 A 
ATOM      5  C   UNL     1      43.952   6.331  11.683  0.00  0.00    +0.000 A 
ATOM      6  C   UNL     1      44.468   7.597  11.427  0.00  0.00    +0.000 A 
ATOM      7  C   UNL     1      45.820   7.863  11.662  0.00  0.00    +0.000 A 
ATOM      8  C   UNL     1      46.686   6.880  12.178  0.00  0.00    +0.000 A 
ATOM      9  C   UNL     1      46.147   5.595  12.386  0.00  0.00    +0.000 A 
BRANCH   8  10
ATOM     10  C   UNL     1      48.078   7.213  12.569  0.00  0.00    +0.000 A 
ATOM     11  C   UNL     1      48.989   7.720  11.620  0.00  0.00    +0.000 A 
ATOM     12  C   UNL     1      50.280   8.120  11.979  0.00  0.00    +0.000 A 
ATOM     13  C   UNL     1      50.690   8.022  13.301  0.00  0.00    +0.000 A 
ATOM     14 CL   UNL     1      52.262   8.553  13.753  0.00  0.00    +0.000 Cl
ATOM     15  C   UNL     1      49.825   7.509  14.260  0.00  0.00    +0.000 A 
ATOM     16  C   UNL     1      48.535   7.097  13.895  0.00  0.00    +0.000 A 
ENDBRANCH   8  10
ENDBRANCH   1   4
BRANCH   1  17
ATOM     17  C   UNL     1      43.417   3.409  11.258  0.00  0.00    +0.000 C 
BRANCH  17  22
ATOM     18  C   UNL     1      46.569   2.692   7.260  0.00  0.00    +0.000 A 
ATOM     19  C   UNL     1      45.960   3.840   7.756  0.00  0.00    +0.000 A 
ATOM     20  C   UNL     1      45.120   3.736   8.865  0.00  0.00    +0.000 A 
ATOM     21  C   UNL     1      44.892   2.493   9.455  0.00  0.00    +0.000 A 
ATOM     22  N   UNL     1      44.071   2.322  10.536  0.00  0.00    +0.000 N 
ATOM     23  N   UNL     1      45.471   1.379   8.975  0.00  0.00    +0.000 NA
ATOM     24  C   UNL     1      46.284   1.494   7.887  0.00  0.00    +0.000 A 
ATOM     25  H   UNL     1      44.014   1.370  10.883  0.00  0.00    +0.000 HD
BRANCH  18  27
ATOM     26  N   UNL     1      48.788   2.416   6.311  0.00  0.00    +0.000 N 
ATOM     27  C   UNL     1      47.470   2.708   6.091  0.00  0.00    +0.000 C 
ATOM     28  O   UNL     1      47.054   2.941   4.964  0.00  0.00    +0.000 OA
ATOM     29  H   UNL     1      49.371   2.328   5.488  0.00  0.00    +0.000 HD
ATOM     30  H   UNL     1      49.116   1.985   7.163  0.00  0.00    +0.000 HD
ENDBRANCH  18  27
ENDBRANCH  17  22
ENDBRANCH   1  17
TORSDOF 5
ENDMDL
MODEL 4
REMARK VINA RESULT:    -8.646      1.845      2.518
REMARK INTER + INTRA:         -12.266
REMARK INTER:                 -11.525
REMARK INTRA:                  -0.741
REMARK UNBOUND:                -1.093
REMARK  Name = 
REMARK  5 active torsions:
REMARK  status: ('A' for Active; 'I' for Inactive)
REMARK    1  A    between atoms: C_2  and  C_4
REMARK    2  A    between atoms: N_8  and  C_9
REMARK    3  A    between atoms: C_9  and  C_10
REMARK    4  A    between atoms: C_10  and  C_13
REMARK    5  A    between atoms: C_17  and  C_18
REMARK                            x       y       z     vdW  Elec       q    Type
REMARK                         _______ _______ _______ _____ _____    ______ ____
ROOT
ATOM      1  C   UNL     1      43.723   4.957  12.366  0.00  0.00    +0.000 C 
ATOM      2  F   UNL     1      42.656   5.176  13.189  0.00  0.00    +0.000 F 
ATOM      3  F   UNL     1      44.343   3.845  12.865  0.00  0.00    +0.000 F 
ENDROOT
BRANCH   1   4
ATOM      4  C   UNL     1      44.656   6.155  12.308  0.00  0.00    +0.000 A 
ATOM      5  C   UNL     1      44.226   7.357  11.733  0.00  0.00    +0.000 A 
ATOM      6  C   UNL     1      45.065   8.465  11.719  0.00  0.00    +0.000 A 
ATOM      7  C   UNL     1      46.333   8.392  12.301  0.00  0.00    +0.000 A 
ATOM      8  C   UNL     1      46.788   7.219  12.933  0.00  0.00    +0.000 A 
ATOM      9  C   UNL     1      45.936   6.098  12.894  0.00  0.00    +0.000 A 
BRANCH   8  10
ATOM     10  C   UNL     1      48.069   7.197  13.682  0.00  0.00    +0.000 A 
ATOM     11  C   UNL     1      49.194   7.896  13.200  0.00  0.00    +0.000 A 
ATOM     12  C   UNL     1      50.387   7.962  13.927  0.00  0.00    +0.000 A 
ATOM     13  C   UNL     1      50.480   7.328  15.158  0.00  0.00    +0.000 A 
ATOM     14 CL   UNL     1      51.931   7.443  16.075  0.00  0.00    +0.000 Cl
ATOM     15  C   UNL     1      49.396   6.615  15.655  0.00  0.00    +0.000 A 
ATOM     16  C   UNL     1      48.205   6.539  14.918  0.00  0.00    +0.000 A 
ENDBRANCH   8  10
ENDBRANCH   1   4
BRANCH   1  17
ATOM     17  C   UNL     1      43.199   4.636  10.943  0.00  0.00    +0.000 C 
BRANCH  17  22
ATOM     18  C   UNL     1      46.425   2.326   7.674  0.00  0.00    +0.000 A 
ATOM     19  C   UNL     1      45.669   1.824   8.727  0.00  0.00    +0.000 A 
ATOM     20  C   UNL     1      44.882   2.701   9.475  0.00  0.00    +0.000 A 
ATOM     21  C   UNL     1      44.867   4.062   9.168  0.00  0.00    +0.000 A 
ATOM     22  N   UNL     1      44.127   4.975   9.868  0.00  0.00    +0.000 N 
ATOM     23  N   UNL     1      45.603   4.554   8.156  0.00  0.00    +0.000 NA
ATOM     24  C   UNL     1      46.373   3.688   7.439  0.00  0.00    +0.000 A 
ATOM     25  H   UNL     1      44.186   5.927   9.524  0.00  0.00    +0.000 HD
BRANCH  18  27
ATOM     26  N   UNL     1      48.326   2.081   6.182  0.00  0.00    +0.000 N 
ATOM     27  C   UNL     1      47.288   1.473   6.833  0.00  0.00    +0.000 C 
ATOM     28  O   UNL     1      47.105   0.267   6.743  0.00  0.00    +0.000 OA
ATOM     29  H   UNL     1      48.969   1.469   5.694  0.00  0.00    +0.000 HD
ATOM     30  H   UNL     1      48.653   3.006   6.421  0.00  0.00    +0.000 HD
ENDBRANCH  18  27
ENDBRANCH  17  22
ENDBRANCH   1  17
TORSDOF 5
ENDMDL
MODEL 5
REMARK VINA RESULT:    -8.367      4.225      7.019
REMARK INTER + INTRA:         -11.905
REMARK INTER:                 -10.777
REMARK INTRA:                  -1.128
REMARK UNBOUND:                -1.093
REMARK  Name = 
REMARK  5 active torsions:
REMARK  status: ('A' for Active; 'I' for Inactive)
REMARK    1  A    between atoms: C_2  and  C_4
REMARK    2  A    between atoms: N_8  and  C_9
REMARK    3  A    between atoms: C_9  and  C_10
REMARK    4  A    between atoms: C_10  and  C_13
REMARK    5  A    between atoms: C_17  and  C_18
REMARK                            x       y       z     vdW  Elec       q    Type
REMARK                         _______ _______ _______ _____ _____    ______ ____
ROOT
ATOM      1  C   UNL     1      45.643   8.047  12.043  0.00  0.00    +0.000 C 
ATOM      2  F   UNL     1      45.274   8.447  13.295  0.00  0.00    +0.000 F 
ATOM      3  F   UNL     1      45.428   9.131  11.239  0.00  0.00    +0.000 F 
ENDROOT
BRANCH   1   4
ATOM      4  C   UNL     1      44.864   6.828  11.580  0.00  0.00    +0.000 A 
ATOM      5  C   UNL     1      43.514   6.681  11.923  0.00  0.00    +0.000 A 
ATOM      6  C   UNL     1      42.791   5.586  11.463  0.00  0.00    +0.000 A 
ATOM      7  C   UNL     1      43.401   4.640  10.636  0.00  0.00    +0.000 A 
ATOM      8  C   UNL     1      44.741   4.772  10.226  0.00  0.00    +0.000 A 
ATOM      9  C   UNL     1      45.464   5.866  10.742  0.00  0.00    +0.000 A 
BRANCH   8  10
ATOM     10  C   UNL     1      45.334   3.850   9.227  0.00  0.00    +0.000 A 
ATOM     11  C   UNL     1      46.066   4.353   8.132  0.00  0.00    +0.000 A 
ATOM     12  C   UNL     1      46.707   3.505   7.222  0.00  0.00    +0.000 A 
ATOM     13  C   UNL     1      46.629   2.130   7.390  0.00  0.00    +0.000 A 
ATOM     14 CL   UNL     1      47.451   1.085   6.299  0.00  0.00    +0.000 Cl
ATOM     15  C   UNL     1      45.901   1.599   8.448  0.00  0.00    +0.000 A 
ATOM     16  C   UNL     1      45.249   2.451   9.351  0.00  0.00    +0.000 A 
ENDBRANCH   8  10
ENDBRANCH   1   4
BRANCH   1  17
ATOM     17  C   UNL     1      47.159   7.725  12.048  0.00  0.00    +0.000 C 
BRANCH  17  22
ATOM     18  C   UNL     1      47.648   4.350  15.895  0.00  0.00    +0.000 A 
ATOM     19  C   UNL     1      46.942   4.284  14.698  0.00  0.00    +0.000 A 
ATOM     20  C   UNL     1      46.970   5.378  13.834  0.00  0.00    +0.000 A 
ATOM     21  C   UNL     1      47.692   6.522  14.176  0.00  0.00    +0.000 A 
ATOM     22  N   UNL     1      47.751   7.632  13.379  0.00  0.00    +0.000 N 
ATOM     23  N   UNL     1      48.369   6.594  15.336  0.00  0.00    +0.000 NA
ATOM     24  C   UNL     1      48.327   5.521  16.174  0.00  0.00    +0.000 A 
ATOM     25  H   UNL     1      48.332   8.383  13.735  0.00  0.00    +0.000 HD
BRANCH  18  27
ATOM     26  N   UNL     1      48.888   2.682  17.153  0.00  0.00    +0.000 N 
ATOM     27  C   UNL     1      47.672   3.242  16.870  0.00  0.00    +0.000 C 
ATOM     28  O   UNL     1      46.653   2.857  17.428  0.00  0.00    +0.000 OA
ATOM     29  H   UNL     1      48.902   1.997  17.898  0.00  0.00    +0.000 HD
ATOM     30  H   UNL     1      49.761   3.124  16.908  0.00  0.00    +0.000 HD
ENDBRANCH  18  27
ENDBRANCH  17  22
ENDBRANCH   1  17
TORSDOF 5
ENDMDL
MODEL 6
REMARK VINA RESULT:    -7.934      4.712      7.721
REMARK INTER + INTRA:         -11.345
REMARK INTER:                 -10.559
REMARK INTRA:                  -0.786
REMARK UNBOUND:                -1.093
REMARK  Name = 
REMARK  5 active torsions:
REMARK  status: ('A' for Active; 'I' for Inactive)
REMARK    1  A    between atoms: C_2  and  C_4
REMARK    2  A    between atoms: N_8  and  C_9
REMARK    3  A    between atoms: C_9  and  C_10
REMARK    4  A    between atoms: C_10  and  C_13
REMARK    5  A    between atoms: C_17  and  C_18
REMARK                            x       y       z     vdW  Elec       q    Type
REMARK                         _______ _______ _______ _____ _____    ______ ____
ROOT
ATOM      1  C   UNL     1      44.859   6.181  12.503  0.00  0.00    +0.000 C 
ATOM      2  F   UNL     1      43.854   6.549  13.353  0.00  0.00    +0.000 F 
ATOM      3  F   UNL     1      44.973   7.211  11.612  0.00  0.00    +0.000 F 
ENDROOT
BRANCH   1   4
ATOM      4  C   UNL     1      44.570   4.858  11.815  0.00  0.00    +0.000 A 
ATOM      5  C   UNL     1      43.532   4.037  12.272  0.00  0.00    +0.000 A 
ATOM      6  C   UNL     1      43.241   2.846  11.616  0.00  0.00    +0.000 A 
ATOM      7  C   UNL     1      43.967   2.475  10.481  0.00  0.00    +0.000 A 
ATOM      8  C   UNL     1      44.987   3.293   9.958  0.00  0.00    +0.000 A 
ATOM      9  C   UNL     1      45.291   4.472  10.668  0.00  0.00    +0.000 A 
BRANCH   8  10
ATOM     10  C   UNL     1      45.646   2.969   8.669  0.00  0.00    +0.000 A 
ATOM     11  C   UNL     1      45.889   3.978   7.713  0.00  0.00    +0.000 A 
ATOM     12  C   UNL     1      46.583   3.717   6.527  0.00  0.00    +0.000 A 
ATOM     13  C   UNL     1      47.051   2.436   6.271  0.00  0.00    +0.000 A 
ATOM     14 CL   UNL     1      47.942   2.121   4.834  0.00  0.00    +0.000 Cl
ATOM     15  C   UNL     1      46.814   1.414   7.181  0.00  0.00    +0.000 A 
ATOM     16  C   UNL     1      46.107   1.675   8.364  0.00  0.00    +0.000 A 
ENDBRANCH   8  10
ENDBRANCH   1   4
BRANCH   1  17
ATOM     17  C   UNL     1      46.179   6.072  13.308  0.00  0.00    +0.000 C 
BRANCH  17  22
ATOM     18  C   UNL     1      48.640   4.289  17.455  0.00  0.00    +0.000 A 
ATOM     19  C   UNL     1      48.711   5.514  16.800  0.00  0.00    +0.000 A 
ATOM     20  C   UNL     1      47.929   5.721  15.663  0.00  0.00    +0.000 A 
ATOM     21  C   UNL     1      47.099   4.704  15.191  0.00  0.00    +0.000 A 
ATOM     22  N   UNL     1      46.316   4.839  14.076  0.00  0.00    +0.000 N 
ATOM     23  N   UNL     1      47.032   3.515  15.815  0.00  0.00    +0.000 NA
ATOM     24  C   UNL     1      47.806   3.324  16.920  0.00  0.00    +0.000 A 
ATOM     25  H   UNL     1      45.741   4.033  13.859  0.00  0.00    +0.000 HD
BRANCH  18  27
ATOM     26  N   UNL     1      48.742   3.679  19.804  0.00  0.00    +0.000 N 
ATOM     27  C   UNL     1      49.432   3.982  18.662  0.00  0.00    +0.000 C 
ATOM     28  O   UNL     1      50.655   3.966  18.639  0.00  0.00    +0.000 OA
ATOM     29  H   UNL     1      49.297   3.370  20.593  0.00  0.00    +0.000 HD
ATOM     30  H   UNL     1      47.761   3.444  19.802  0.00  0.00    +0.000 HD
ENDBRANCH  18  27
ENDBRANCH  17  22
ENDBRANCH   1  17
TORSDOF 5
ENDMDL
MODEL 7
REMARK VINA RESULT:    -7.898      1.447      2.343
REMARK INTER + INTRA:         -11.299
REMARK INTER:                 -10.228
REMARK INTRA:                  -1.072
REMARK UNBOUND:                -1.093
REMARK  Name = 
REMARK  5 active torsions:
REMARK  status: ('A' for Active; 'I' for Inactive)
REMARK    1  A    between atoms: C_2  and  C_4
REMARK    2  A    between atoms: N_8  and  C_9
REMARK    3  A    between atoms: C_9  and  C_10
REMARK    4  A    between atoms: C_10  and  C_13
REMARK    5  A    between atoms: C_17  and  C_18
REMARK                            x       y       z     vdW  Elec       q    Type
REMARK                         _______ _______ _______ _____ _____    ______ ____
ROOT
ATOM      1  C   UNL     1      44.739   5.916  12.217  0.00  0.00    +0.000 C 
ATOM      2  F   UNL     1      43.903   5.818  13.292  0.00  0.00    +0.000 F 
ATOM      3  F   UNL     1      45.690   4.952  12.410  0.00  0.00    +0.000 F 
ENDROOT
BRANCH   1   4
ATOM      4  C   UNL     1      45.347   7.302  12.090  0.00  0.00    +0.000 A 
ATOM      5  C   UNL     1      44.570   8.439  12.341  0.00  0.00    +0.000 A 
ATOM      6  C   UNL     1      45.139   9.706  12.266  0.00  0.00    +0.000 A 
ATOM      7  C   UNL     1      46.495   9.849  11.964  0.00  0.00    +0.000 A 
ATOM      8  C   UNL     1      47.326   8.732  11.751  0.00  0.00    +0.000 A 
ATOM      9  C   UNL     1      46.715   7.463  11.789  0.00  0.00    +0.000 A 
BRANCH   8  10
ATOM     10  C   UNL     1      48.792   8.885  11.585  0.00  0.00    +0.000 A 
ATOM     11  C   UNL     1      49.634   7.754  11.566  0.00  0.00    +0.000 A 
ATOM     12  C   UNL     1      51.008   7.863  11.326  0.00  0.00    +0.000 A 
ATOM     13  C   UNL     1      51.571   9.111  11.099  0.00  0.00    +0.000 A 
ATOM     14 CL   UNL     1      53.252   9.244  10.761  0.00  0.00    +0.000 Cl
ATOM     15  C   UNL     1      50.774  10.248  11.128  0.00  0.00    +0.000 A 
ATOM     16  C   UNL     1      49.398  10.138  11.381  0.00  0.00    +0.000 A 
ENDBRANCH   8  10
ENDBRANCH   1   4
BRANCH   1  17
ATOM     17  C   UNL     1      43.943   5.577  10.931  0.00  0.00    +0.000 C 
BRANCH  17  22
ATOM     18  C   UNL     1      46.489   2.496   7.698  0.00  0.00    +0.000 A 
ATOM     19  C   UNL     1      46.515   3.877   7.864  0.00  0.00    +0.000 A 
ATOM     20  C   UNL     1      45.686   4.459   8.823  0.00  0.00    +0.000 A 
ATOM     21  C   UNL     1      44.840   3.662   9.594  0.00  0.00    +0.000 A 
ATOM     22  N   UNL     1      43.996   4.171  10.542  0.00  0.00    +0.000 N 
ATOM     23  N   UNL     1      44.804   2.327   9.431  0.00  0.00    +0.000 NA
ATOM     24  C   UNL     1      45.614   1.772   8.486  0.00  0.00    +0.000 A 
ATOM     25  H   UNL     1      43.455   3.478  11.048  0.00  0.00    +0.000 HD
BRANCH  18  27
ATOM     26  N   UNL     1      48.333   2.513   6.117  0.00  0.00    +0.000 N 
ATOM     27  C   UNL     1      47.328   1.795   6.706  0.00  0.00    +0.000 C 
ATOM     28  O   UNL     1      47.157   0.613   6.441  0.00  0.00    +0.000 OA
ATOM     29  H   UNL     1      48.963   1.993   5.518  0.00  0.00    +0.000 HD
ATOM     30  H   UNL     1      48.657   3.397   6.480  0.00  0.00    +0.000 HD
ENDBRANCH  18  27
ENDBRANCH  17  22
ENDBRANCH   1  17
TORSDOF 5
ENDMDL
MODEL 8
REMARK VINA RESULT:    -7.399      4.923      7.623
REMARK INTER + INTRA:         -10.654
REMARK INTER:                  -9.348
REMARK INTRA:                  -1.306
REMARK UNBOUND:                -1.093
REMARK  Name = 
REMARK  5 active torsions:
REMARK  status: ('A' for Active; 'I' for Inactive)
REMARK    1  A    between atoms: C_2  and  C_4
REMARK    2  A    between atoms: N_8  and  C_9
REMARK    3  A    between atoms: C_9  and  C_10
REMARK    4  A    between atoms: C_10  and  C_13
REMARK    5  A    between atoms: C_17  and  C_18
REMARK                            x       y       z     vdW  Elec       q    Type
REMARK                         _______ _______ _______ _____ _____    ______ ____
ROOT
ATOM      1  C   UNL     1      48.788   8.870  12.378  0.00  0.00    +0.000 C 
ATOM      2  F   UNL     1      48.924   9.722  13.437  0.00  0.00    +0.000 F 
ATOM      3  F   UNL     1      49.320   9.534  11.308  0.00  0.00    +0.000 F 
ENDROOT
BRANCH   1   4
ATOM      4  C   UNL     1      47.340   8.475  12.144  0.00  0.00    +0.000 A 
ATOM      5  C   UNL     1      46.317   9.416  12.309  0.00  0.00    +0.000 A 
ATOM      6  C   UNL     1      44.996   9.066  12.053  0.00  0.00    +0.000 A 
ATOM      7  C   UNL     1      44.686   7.779  11.606  0.00  0.00    +0.000 A 
ATOM      8  C   UNL     1      45.687   6.815  11.380  0.00  0.00    +0.000 A 
ATOM      9  C   UNL     1      47.011   7.182  11.689  0.00  0.00    +0.000 A 
BRANCH   8  10
ATOM     10  C   UNL     1      45.367   5.506  10.760  0.00  0.00    +0.000 A 
ATOM     11  C   UNL     1      45.596   5.287   9.386  0.00  0.00    +0.000 A 
ATOM     12  C   UNL     1      45.384   4.038   8.793  0.00  0.00    +0.000 A 
ATOM     13  C   UNL     1      44.936   2.976   9.566  0.00  0.00    +0.000 A 
ATOM     14 CL   UNL     1      44.715   1.428   8.850  0.00  0.00    +0.000 Cl
ATOM     15  C   UNL     1      44.682   3.160  10.919  0.00  0.00    +0.000 A 
ATOM     16  C   UNL     1      44.885   4.417  11.509  0.00  0.00    +0.000 A 
ENDBRANCH   8  10
ENDBRANCH   1   4
BRANCH   1  17
ATOM     17  C   UNL     1      49.637   7.601  12.647  0.00  0.00    +0.000 C 
BRANCH  17  22
ATOM     18  C   UNL     1      48.002   4.732  16.587  0.00  0.00    +0.000 A 
ATOM     19  C   UNL     1      47.506   4.890  15.297  0.00  0.00    +0.000 A 
ATOM     20  C   UNL     1      48.151   5.769  14.426  0.00  0.00    +0.000 A 
ATOM     21  C   UNL     1      49.271   6.482  14.855  0.00  0.00    +0.000 A 
ATOM     22  N   UNL     1      49.941   7.366  14.055  0.00  0.00    +0.000 N 
ATOM     23  N   UNL     1      49.749   6.340  16.104  0.00  0.00    +0.000 NA
ATOM     24  C   UNL     1      49.105   5.484  16.946  0.00  0.00    +0.000 A 
ATOM     25  H   UNL     1      50.754   7.798  14.482  0.00  0.00    +0.000 HD
BRANCH  18  27
ATOM     26  N   UNL     1      47.928   3.802  18.830  0.00  0.00    +0.000 N 
ATOM     27  C   UNL     1      47.382   3.827  17.575  0.00  0.00    +0.000 C 
ATOM     28  O   UNL     1      46.401   3.150  17.298  0.00  0.00    +0.000 OA
ATOM     29  H   UNL     1      47.430   3.257  19.523  0.00  0.00    +0.000 HD
ATOM     30  H   UNL     1      48.565   4.510  19.162  0.00  0.00    +0.000 HD
ENDBRANCH  18  27
ENDBRANCH  17  22
ENDBRANCH   1  17
TORSDOF 5
ENDMDL
MODEL 9
REMARK VINA RESULT:    -7.263      3.992      6.977
REMARK INTER + INTRA:         -10.478
REMARK INTER:                  -9.427
REMARK INTRA:                  -1.051
REMARK UNBOUND:                -1.093
REMARK  Name = 
REMARK  5 active torsions:
REMARK  status: ('A' for Active; 'I' for Inactive)
REMARK    1  A    between atoms: C_2  and  C_4
REMARK    2  A    between atoms: N_8  and  C_9
REMARK    3  A    between atoms: C_9  and  C_10
REMARK    4  A    between atoms: C_10  and  C_13
REMARK    5  A    between atoms: C_17  and  C_18
REMARK                            x       y       z     vdW  Elec       q    Type
REMARK                         _______ _______ _______ _____ _____    ______ ____
ROOT
ATOM      1  C   UNL     1      44.751   5.816  12.734  0.00  0.00    +0.000 C 
ATOM      2  F   UNL     1      45.766   5.689  13.638  0.00  0.00    +0.000 F 
ATOM      3  F   UNL     1      43.659   6.190  13.468  0.00  0.00    +0.000 F 
ENDROOT
BRANCH   1   4
ATOM      4  C   UNL     1      44.508   4.531  11.961  0.00  0.00    +0.000 A 
ATOM      5  C   UNL     1      43.487   3.655  12.351  0.00  0.00    +0.000 A 
ATOM      6  C   UNL     1      43.239   2.500  11.619  0.00  0.00    +0.000 A 
ATOM      7  C   UNL     1      43.989   2.220  10.474  0.00  0.00    +0.000 A 
ATOM      8  C   UNL     1      44.993   3.096  10.017  0.00  0.00    +0.000 A 
ATOM      9  C   UNL     1      45.254   4.236  10.803  0.00  0.00    +0.000 A 
BRANCH   8  10
ATOM     10  C   UNL     1      45.678   2.871   8.721  0.00  0.00    +0.000 A 
ATOM     11  C   UNL     1      45.910   3.944   7.836  0.00  0.00    +0.000 A 
ATOM     12  C   UNL     1      46.627   3.776   6.647  0.00  0.00    +0.000 A 
ATOM     13  C   UNL     1      47.130   2.525   6.316  0.00  0.00    +0.000 A 
ATOM     14 CL   UNL     1      48.048   2.324   4.876  0.00  0.00    +0.000 Cl
ATOM     15  C   UNL     1      46.904   1.442   7.156  0.00  0.00    +0.000 A 
ATOM     16  C   UNL     1      46.174   1.610   8.342  0.00  0.00    +0.000 A 
ENDBRANCH   8  10
ENDBRANCH   1   4
BRANCH   1  17
ATOM     17  C   UNL     1      45.100   6.959  11.747  0.00  0.00    +0.000 C 
BRANCH  17  22
ATOM     18  C   UNL     1      49.860   8.834  12.251  0.00  0.00    +0.000 A 
ATOM     19  C   UNL     1      49.394   7.649  11.693  0.00  0.00    +0.000 A 
ATOM     20  C   UNL     1      48.024   7.383  11.713  0.00  0.00    +0.000 A 
ATOM     21  C   UNL     1      47.144   8.296  12.294  0.00  0.00    +0.000 A 
ATOM     22  N   UNL     1      45.792   8.090  12.356  0.00  0.00    +0.000 N 
ATOM     23  N   UNL     1      47.590   9.439  12.843  0.00  0.00    +0.000 NA
ATOM     24  C   UNL     1      48.931   9.682  12.823  0.00  0.00    +0.000 A 
ATOM     25  H   UNL     1      45.265   8.845  12.782  0.00  0.00    +0.000 HD
BRANCH  18  27
ATOM     26  N   UNL     1      51.630  10.368  12.894  0.00  0.00    +0.000 N 
ATOM     27  C   UNL     1      51.292   9.195  12.277  0.00  0.00    +0.000 C 
ATOM     28  O   UNL     1      52.146   8.464  11.796  0.00  0.00    +0.000 OA
ATOM     29  H   UNL     1      52.621  10.551  12.995  0.00  0.00    +0.000 HD
ATOM     30  H   UNL     1      50.999  10.865  13.505  0.00  0.00    +0.000 HD
ENDBRANCH  18  27
ENDBRANCH  17  22
ENDBRANCH   1  17
TORSDOF 5
ENDMDL
