MODEL 1
REMARK VINA RESULT:    -9.549      0.000      0.000
REMARK INTER + INTRA:         -13.395
REMARK INTER:                 -12.340
REMARK INTRA:                  -1.055
REMARK UNBOUND:                -1.055
REMARK  Name = 
REMARK  5 active torsions:
REMARK  status: ('A' for Active; 'I' for Inactive)
REMARK    1  A    between atoms: C_2  and  C_4
REMARK    2  A    between atoms: N_8  and  C_9
REMARK    3  A    between atoms: C_9  and  C_10
REMARK    4  A    between atoms: C_10  and  C_13
REMARK    5  A    between atoms: C_17  and  C_18
REMARK                            x       y       z     vdW  Elec       q    Type
REMARK                         _______ _______ _______ _____ _____    ______ ____
ROOT
ATOM      1  C   UNL     1      43.382   5.533  12.135  0.00  0.00    +0.000 C 
ATOM      2  F   UNL     1      42.960   6.700  11.560  0.00  0.00    +0.000 F 
ATOM      3  F   UNL     1      42.527   5.311  13.176  0.00  0.00    +0.000 F 
ENDROOT
BRANCH   1   4
ATOM      4  C   UNL     1      44.827   5.612  12.594  0.00  0.00    +0.000 A 
ATOM      5  C   UNL     1      45.425   4.545  13.275  0.00  0.00    +0.000 A 
ATOM      6  C   UNL     1      46.770   4.606  13.632  0.00  0.00    +0.000 A 
ATOM      7  C   UNL     1      47.534   5.722  13.288  0.00  0.00    +0.000 A 
ATOM      8  C   UNL     1      46.977   6.801  12.578  0.00  0.00    +0.000 A 
ATOM      9  C   UNL     1      45.606   6.734  12.269  0.00  0.00    +0.000 A 
BRANCH   8  10
ATOM     10  C   UNL     1      47.804   7.940  12.133  0.00  0.00    +0.000 A 
ATOM     11  C   UNL     1      49.142   7.789  11.745  0.00  0.00    +0.000 A 
ATOM     12  C   UNL     1      49.896   8.894  11.351  0.00  0.00    +0.000 A 
ATOM     13  C   UNL     1      49.288  10.136  11.348  0.00  0.00    +0.000 A 
ATOM     14  N   UNL     1      48.011  10.342  11.722  0.00  0.00    +0.000 NA
ATOM     15  C   UNL     1      47.311   9.248  12.108  0.00  0.00    +0.000 A 
ENDBRANCH   8  10
ENDBRANCH   1   4
BRANCH   1  16
ATOM     16  C   UNL     1      43.225   4.392  11.094  0.00  0.00    +0.000 C 
BRANCH  16  21
ATOM     17  C   UNL     1      46.529   2.528   7.683  0.00  0.00    +0.000 A 
ATOM     18  C   UNL     1      45.669   1.861   8.545  0.00  0.00    +0.000 A 
ATOM     19  C   UNL     1      44.739   2.596   9.280  0.00  0.00    +0.000 A 
ATOM     20  C   UNL     1      44.683   3.981   9.146  0.00  0.00    +0.000 A 
ATOM     21  N   UNL     1      43.714   4.752   9.757  0.00  0.00    +0.000 N 
ATOM     22  N   UNL     1      45.535   4.640   8.336  0.00  0.00    +0.000 NA
ATOM     23  C   UNL     1      46.446   3.910   7.635  0.00  0.00    +0.000 A 
ATOM     24  H   UNL     1      43.916   5.739   9.605  0.00  0.00    +0.000 HD
BRANCH  17  26
ATOM     25  N   UNL     1      48.594   2.553   6.405  0.00  0.00    +0.000 N 
ATOM     26  C   UNL     1      47.520   1.823   6.844  0.00  0.00    +0.000 C 
ATOM     27  O   UNL     1      47.400   0.640   6.571  0.00  0.00    +0.000 OA
ATOM     28  H   UNL     1      49.313   2.040   5.912  0.00  0.00    +0.000 HD
ATOM     29  H   UNL     1      48.855   3.434   6.825  0.00  0.00    +0.000 HD
ENDBRANCH  17  26
ENDBRANCH  16  21
ENDBRANCH   1  16
TORSDOF 5
ENDMDL
MODEL 2
REMARK VINA RESULT:    -9.463      1.893      3.262
REMARK INTER + INTRA:         -13.284
REMARK INTER:                 -12.421
REMARK INTRA:                  -0.863
REMARK UNBOUND:                -1.055
REMARK  Name = 
REMARK  5 active torsions:
REMARK  status: ('A' for Active; 'I' for Inactive)
REMARK    1  A    between atoms: C_2  and  C_4
REMARK    2  A    between atoms: N_8  and  C_9
REMARK    3  A    between atoms: C_9  and  C_10
REMARK    4  A    between atoms: C_10  and  C_13
REMARK    5  A    between atoms: C_17  and  C_18
REMARK                            x       y       z     vdW  Elec       q    Type
REMARK                         _______ _______ _______ _____ _____    ______ ____
ROOT
ATOM      1  C   UNL     1      43.290   5.542  12.093  0.00  0.00    +0.000 C 
ATOM      2  F   UNL     1      42.566   6.578  11.570  0.00  0.00    +0.000 F 
ATOM      3  F   UNL     1      42.660   5.210  13.257  0.00  0.00    +0.000 F 
ENDROOT
BRANCH   1   4
ATOM      4  C   UNL     1      44.743   5.920  12.322  0.00  0.00    +0.000 A 
ATOM      5  C   UNL     1      45.358   6.914  11.552  0.00  0.00    +0.000 A 
ATOM      6  C   UNL     1      46.672   7.295  11.816  0.00  0.00    +0.000 A 
ATOM      7  C   UNL     1      47.371   6.705  12.870  0.00  0.00    +0.000 A 
ATOM      8  C   UNL     1      46.777   5.724  13.685  0.00  0.00    +0.000 A 
ATOM      9  C   UNL     1      45.466   5.325  13.368  0.00  0.00    +0.000 A 
BRANCH   8  10
ATOM     10  C   UNL     1      47.482   5.165  14.856  0.00  0.00    +0.000 A 
ATOM     11  C   UNL     1      47.145   3.925  15.414  0.00  0.00    +0.000 A 
ATOM     12  C   UNL     1      47.821   3.443  16.534  0.00  0.00    +0.000 A 
ATOM     13  C   UNL     1      48.833   4.215  17.073  0.00  0.00    +0.000 A 
ATOM     14  N   UNL     1      49.192   5.418  16.587  0.00  0.00    +0.000 NA
ATOM     15  C   UNL     1      48.508   5.861  15.504  0.00  0.00    +0.000 A 
ENDBRANCH   8  10
ENDBRANCH   1   4
BRANCH   1  16
ATOM     16  C   UNL     1      43.209   4.344  11.109  0.00  0.00    +0.000 C 
BRANCH  16  21
ATOM     17  C   UNL     1      46.515   2.500   7.689  0.00  0.00    +0.000 A 
ATOM     18  C   UNL     1      45.703   1.828   8.594  0.00  0.00    +0.000 A 
ATOM     19  C   UNL     1      44.759   2.550   9.324  0.00  0.00    +0.000 A 
ATOM     20  C   UNL     1      44.641   3.925   9.143  0.00  0.00    +0.000 A 
ATOM     21  N   UNL     1      43.653   4.676   9.749  0.00  0.00    +0.000 N 
ATOM     22  N   UNL     1      45.446   4.590   8.291  0.00  0.00    +0.000 NA
ATOM     23  C   UNL     1      46.372   3.874   7.595  0.00  0.00    +0.000 A 
ATOM     24  H   UNL     1      43.810   5.664   9.558  0.00  0.00    +0.000 HD
BRANCH  17  26
ATOM     25  N   UNL     1      48.593   2.545   6.433  0.00  0.00    +0.000 N 
ATOM     26  C   UNL     1      47.516   1.807   6.852  0.00  0.00    +0.000 C 
ATOM     27  O   UNL     1      47.403   0.627   6.565  0.00  0.00    +0.000 OA
ATOM     28  H   UNL     1      49.318   2.039   5.941  0.00  0.00    +0.000 HD
ATOM     29  H   UNL     1      48.847   3.422   6.865  0.00  0.00    +0.000 HD
ENDBRANCH  17  26
ENDBRANCH  16  21
ENDBRANCH   1  16
TORSDOF 5
ENDMDL
MODEL 3
REMARK VINA RESULT:    -8.730      1.693      2.412
REMARK INTER + INTRA:         -12.337
REMARK INTER:                 -11.515
REMARK INTRA:                  -0.823
REMARK UNBOUND:                -1.055
REMARK  Name = 
REMARK  5 active torsions:
REMARK  status: ('A' for Active; 'I' for Inactive)
REMARK    1  A    between atoms: C_2  and  C_4
REMARK    2  A    between atoms: N_8  and  C_9
REMARK    3  A    between atoms: C_9  and  C_10
REMARK    4  A    between atoms: C_10  and  C_13
REMARK    5  A    between atoms: C_17  and  C_18
REMARK                            x       y       z     vdW  Elec       q    Type
REMARK                         _______ _______ _______ _____ _____    ______ ____
ROOT
ATOM      1  C   UNL     1      42.991   5.530  12.182  0.00  0.00    +0.000 C 
ATOM      2  F   UNL     1      41.773   5.983  11.755  0.00  0.00    +0.000 F 
ATOM      3  F   UNL     1      42.796   5.121  13.469  0.00  0.00    +0.000 F 
ENDROOT
BRANCH   1   4
ATOM      4  C   UNL     1      44.065   6.600  12.082  0.00  0.00    +0.000 A 
ATOM      5  C   UNL     1      43.845   7.775  11.353  0.00  0.00    +0.000 A 
ATOM      6  C   UNL     1      44.813   8.775  11.324  0.00  0.00    +0.000 A 
ATOM      7  C   UNL     1      45.998   8.620  12.046  0.00  0.00    +0.000 A 
ATOM      8  C   UNL     1      46.243   7.468  12.814  0.00  0.00    +0.000 A 
ATOM      9  C   UNL     1      45.268   6.454  12.789  0.00  0.00    +0.000 A 
BRANCH   8  10
ATOM     10  C   UNL     1      47.453   7.342  13.651  0.00  0.00    +0.000 A 
ATOM     11  C   UNL     1      48.370   8.391  13.807  0.00  0.00    +0.000 A 
ATOM     12  C   UNL     1      49.512   8.225  14.589  0.00  0.00    +0.000 A 
ATOM     13  C   UNL     1      49.711   7.005  15.209  0.00  0.00    +0.000 A 
ATOM     14  N   UNL     1      48.871   5.960  15.087  0.00  0.00    +0.000 NA
ATOM     15  C   UNL     1      47.777   6.152  14.311  0.00  0.00    +0.000 A 
ENDBRANCH   8  10
ENDBRANCH   1   4
BRANCH   1  16
ATOM     16  C   UNL     1      43.389   4.307  11.313  0.00  0.00    +0.000 C 
BRANCH  16  21
ATOM     17  C   UNL     1      46.482   2.480   7.691  0.00  0.00    +0.000 A 
ATOM     18  C   UNL     1      45.697   1.803   8.614  0.00  0.00    +0.000 A 
ATOM     19  C   UNL     1      44.806   2.526   9.407  0.00  0.00    +0.000 A 
ATOM     20  C   UNL     1      44.716   3.909   9.270  0.00  0.00    +0.000 A 
ATOM     21  N   UNL     1      43.777   4.666   9.943  0.00  0.00    +0.000 N 
ATOM     22  N   UNL     1      45.497   4.577   8.400  0.00  0.00    +0.000 NA
ATOM     23  C   UNL     1      46.370   3.860   7.642  0.00  0.00    +0.000 A 
ATOM     24  H   UNL     1      43.950   5.656   9.772  0.00  0.00    +0.000 HD
BRANCH  17  26
ATOM     25  N   UNL     1      48.519   2.498   6.369  0.00  0.00    +0.000 N 
ATOM     26  C   UNL     1      47.425   1.787   6.789  0.00  0.00    +0.000 C 
ATOM     27  O   UNL     1      47.251   0.629   6.450  0.00  0.00    +0.000 OA
ATOM     28  H   UNL     1      49.206   1.987   5.830  0.00  0.00    +0.000 HD
ATOM     29  H   UNL     1      48.825   3.341   6.834  0.00  0.00    +0.000 HD
ENDBRANCH  17  26
ENDBRANCH  16  21
ENDBRANCH   1  16
TORSDOF 5
ENDMDL
MODEL 4
REMARK VINA RESULT:    -7.732      4.232      7.714
REMARK INTER + INTRA:         -11.047
REMARK INTER:                 -10.348
REMARK INTRA:                  -0.699
REMARK UNBOUND:                -1.055
REMARK  Name = 
REMARK  5 active torsions:
REMARK  status: ('A' for Active; 'I' for Inactive)
REMARK    1  A    between atoms: C_2  and  C_4
REMARK    2  A    between atoms: N_8  and  C_9
REMARK    3  A    between atoms: C_9  and  C_10
REMARK    4  A    between atoms: C_10  and  C_13
REMARK    5  A    between atoms: C_17  and  C_18
REMARK                            x       y       z     vdW  Elec       q    Type
REMARK                         _______ _______ _______ _____ _____    ______ ____
ROOT
ATOM      1  C   UNL     1      45.187   5.832  12.169  0.00  0.00    +0.000 C 
ATOM      2  F   UNL     1      44.162   6.273  12.959  0.00  0.00    +0.000 F 
ATOM      3  F   UNL     1      45.430   6.847  11.289  0.00  0.00    +0.000 F 
ENDROOT
BRANCH   1   4
ATOM      4  C   UNL     1      44.844   4.535  11.458  0.00  0.00    +0.000 A 
ATOM      5  C   UNL     1      43.757   3.754  11.870  0.00  0.00    +0.000 A 
ATOM      6  C   UNL     1      43.415   2.601  11.168  0.00  0.00    +0.000 A 
ATOM      7  C   UNL     1      44.139   2.234  10.033  0.00  0.00    +0.000 A 
ATOM      8  C   UNL     1      45.218   3.008   9.570  0.00  0.00    +0.000 A 
ATOM      9  C   UNL     1      45.571   4.143  10.323  0.00  0.00    +0.000 A 
BRANCH   8  10
ATOM     10  C   UNL     1      45.926   2.673   8.319  0.00  0.00    +0.000 A 
ATOM     11  C   UNL     1      46.124   3.608   7.294  0.00  0.00    +0.000 A 
ATOM     12  C   UNL     1      46.779   3.245   6.118  0.00  0.00    +0.000 A 
ATOM     13  C   UNL     1      47.232   1.945   5.993  0.00  0.00    +0.000 A 
ATOM     14  N   UNL     1      47.061   1.001   6.939  0.00  0.00    +0.000 NA
ATOM     15  C   UNL     1      46.411   1.385   8.065  0.00  0.00    +0.000 A 
ENDBRANCH   8  10
ENDBRANCH   1   4
BRANCH   1  16
ATOM     16  C   UNL     1      46.438   5.623  13.064  0.00  0.00    +0.000 C 
BRANCH  16  21
ATOM     17  C   UNL     1      48.898   4.307  17.336  0.00  0.00    +0.000 A 
ATOM     18  C   UNL     1      48.901   5.509  16.642  0.00  0.00    +0.000 A 
ATOM     19  C   UNL     1      48.017   5.681  15.577  0.00  0.00    +0.000 A 
ATOM     20  C   UNL     1      47.148   4.653  15.220  0.00  0.00    +0.000 A 
ATOM     21  N   UNL     1      46.174   4.802  14.252  0.00  0.00    +0.000 N 
ATOM     22  N   UNL     1      47.160   3.472  15.867  0.00  0.00    +0.000 NA
ATOM     23  C   UNL     1      48.037   3.314  16.896  0.00  0.00    +0.000 A 
ATOM     24  H   UNL     1      45.720   3.905  14.084  0.00  0.00    +0.000 HD
BRANCH  17  26
ATOM     25  N   UNL     1      49.173   3.950  19.722  0.00  0.00    +0.000 N 
ATOM     26  C   UNL     1      49.777   4.055  18.496  0.00  0.00    +0.000 C 
ATOM     27  O   UNL     1      50.983   3.923  18.367  0.00  0.00    +0.000 OA
ATOM     28  H   UNL     1      49.770   3.685  20.494  0.00  0.00    +0.000 HD
ATOM     29  H   UNL     1      48.181   3.788  19.823  0.00  0.00    +0.000 HD
ENDBRANCH  17  26
ENDBRANCH  16  21
ENDBRANCH   1  16
TORSDOF 5
ENDMDL
MODEL 5
REMARK VINA RESULT:    -7.545      2.978      6.957
REMARK INTER + INTRA:         -10.806
REMARK INTER:                  -9.897
REMARK INTRA:                  -0.908
REMARK UNBOUND:                -1.055
REMARK  Name = 
REMARK  5 active torsions:
REMARK  status: ('A' for Active; 'I' for Inactive)
REMARK    1  A    between atoms: C_2  and  C_4
REMARK    2  A    between atoms: N_8  and  C_9
REMARK    3  A    between atoms: C_9  and  C_10
REMARK    4  A    between atoms: C_10  and  C_13
REMARK    5  A    between atoms: C_17  and  C_18
REMARK                            x       y       z     vdW  Elec       q    Type
REMARK                         _______ _______ _______ _____ _____    ______ ____
ROOT
ATOM      1  C   UNL     1      44.169   6.210  11.396  0.00  0.00    +0.000 C 
ATOM      2  F   UNL     1      42.888   6.690  11.392  0.00  0.00    +0.000 F 
ATOM      3  F   UNL     1      44.861   7.015  10.538  0.00  0.00    +0.000 F 
ENDROOT
BRANCH   1   4
ATOM      4  C   UNL     1      44.233   4.751  10.980  0.00  0.00    +0.000 A 
ATOM      5  C   UNL     1      43.421   3.790  11.597  0.00  0.00    +0.000 A 
ATOM      6  C   UNL     1      43.444   2.468  11.162  0.00  0.00    +0.000 A 
ATOM      7  C   UNL     1      44.257   2.100  10.089  0.00  0.00    +0.000 A 
ATOM      8  C   UNL     1      45.064   3.041   9.424  0.00  0.00    +0.000 A 
ATOM      9  C   UNL     1      45.057   4.361   9.913  0.00  0.00    +0.000 A 
BRANCH   8  10
ATOM     10  C   UNL     1      45.854   2.674   8.232  0.00  0.00    +0.000 A 
ATOM     11  C   UNL     1      46.082   3.569   7.178  0.00  0.00    +0.000 A 
ATOM     12  C   UNL     1      46.816   3.176   6.059  0.00  0.00    +0.000 A 
ATOM     13  C   UNL     1      47.314   1.887   6.021  0.00  0.00    +0.000 A 
ATOM     14  N   UNL     1      47.117   0.982   6.997  0.00  0.00    +0.000 NA
ATOM     15  C   UNL     1      46.392   1.394   8.066  0.00  0.00    +0.000 A 
ENDBRANCH   8  10
ENDBRANCH   1   4
BRANCH   1  16
ATOM     16  C   UNL     1      44.747   6.372  12.827  0.00  0.00    +0.000 C 
BRANCH  16  21
ATOM     17  C   UNL     1      49.497   8.169  13.311  0.00  0.00    +0.000 A 
ATOM     18  C   UNL     1      49.007   7.158  12.495  0.00  0.00    +0.000 A 
ATOM     19  C   UNL     1      47.630   6.952  12.423  0.00  0.00    +0.000 A 
ATOM     20  C   UNL     1      46.766   7.752  13.166  0.00  0.00    +0.000 A 
ATOM     21  N   UNL     1      45.392   7.673  13.051  0.00  0.00    +0.000 N 
ATOM     22  N   UNL     1      47.234   8.713  13.985  0.00  0.00    +0.000 NA
ATOM     23  C   UNL     1      48.581   8.895  14.055  0.00  0.00    +0.000 A 
ATOM     24  H   UNL     1      44.956   8.274  13.749  0.00  0.00    +0.000 HD
BRANCH  17  26
ATOM     25  N   UNL     1      51.684   7.676  14.244  0.00  0.00    +0.000 N 
ATOM     26  C   UNL     1      50.938   8.477  13.419  0.00  0.00    +0.000 C 
ATOM     27  O   UNL     1      51.446   9.388  12.787  0.00  0.00    +0.000 OA
ATOM     28  H   UNL     1      52.684   7.834  14.239  0.00  0.00    +0.000 HD
ATOM     29  H   UNL     1      51.358   6.774  14.560  0.00  0.00    +0.000 HD
ENDBRANCH  17  26
ENDBRANCH  16  21
ENDBRANCH   1  16
TORSDOF 5
ENDMDL
MODEL 6
REMARK VINA RESULT:    -7.437      3.529      6.936
REMARK INTER + INTRA:         -10.666
REMARK INTER:                  -9.514
REMARK INTRA:                  -1.152
REMARK UNBOUND:                -1.055
REMARK  Name = 
REMARK  5 active torsions:
REMARK  status: ('A' for Active; 'I' for Inactive)
REMARK    1  A    between atoms: C_2  and  C_4
REMARK    2  A    between atoms: N_8  and  C_9
REMARK    3  A    between atoms: C_9  and  C_10
REMARK    4  A    between atoms: C_10  and  C_13
REMARK    5  A    between atoms: C_17  and  C_18
REMARK                            x       y       z     vdW  Elec       q    Type
REMARK                         _______ _______ _______ _____ _____    ______ ____
ROOT
ATOM      1  C   UNL     1      45.962   7.691  11.665  0.00  0.00    +0.000 C 
ATOM      2  F   UNL     1      45.418   8.854  11.193  0.00  0.00    +0.000 F 
ATOM      3  F   UNL     1      47.239   7.666  11.186  0.00  0.00    +0.000 F 
ENDROOT
BRANCH   1   4
ATOM      4  C   UNL     1      45.168   6.471  11.231  0.00  0.00    +0.000 A 
ATOM      5  C   UNL     1      43.824   6.321  11.592  0.00  0.00    +0.000 A 
ATOM      6  C   UNL     1      43.091   5.229  11.133  0.00  0.00    +0.000 A 
ATOM      7  C   UNL     1      43.689   4.295  10.286  0.00  0.00    +0.000 A 
ATOM      8  C   UNL     1      45.028   4.427   9.876  0.00  0.00    +0.000 A 
ATOM      9  C   UNL     1      45.758   5.514  10.391  0.00  0.00    +0.000 A 
BRANCH   8  10
ATOM     10  C   UNL     1      45.634   3.492   8.908  0.00  0.00    +0.000 A 
ATOM     11  C   UNL     1      46.269   3.929   7.738  0.00  0.00    +0.000 A 
ATOM     12  C   UNL     1      46.810   3.012   6.838  0.00  0.00    +0.000 A 
ATOM     13  C   UNL     1      46.708   1.665   7.133  0.00  0.00    +0.000 A 
ATOM     14  N   UNL     1      46.099   1.186   8.234  0.00  0.00    +0.000 NA
ATOM     15  C   UNL     1      45.576   2.105   9.082  0.00  0.00    +0.000 A 
ENDBRANCH   8  10
ENDBRANCH   1   4
BRANCH   1  16
ATOM     16  C   UNL     1      46.000   7.765  13.215  0.00  0.00    +0.000 C 
BRANCH  16  21
ATOM     17  C   UNL     1      47.931   3.877  15.895  0.00  0.00    +0.000 A 
ATOM     18  C   UNL     1      46.977   3.875  14.885  0.00  0.00    +0.000 A 
ATOM     19  C   UNL     1      46.725   5.056  14.188  0.00  0.00    +0.000 A 
ATOM     20  C   UNL     1      47.422   6.218  14.510  0.00  0.00    +0.000 A 
ATOM     21  N   UNL     1      47.299   7.387  13.785  0.00  0.00    +0.000 N 
ATOM     22  N   UNL     1      48.324   6.237  15.510  0.00  0.00    +0.000 NA
ATOM     23  C   UNL     1      48.552   5.079  16.190  0.00  0.00    +0.000 A 
ATOM     24  H   UNL     1      47.819   8.131  14.248  0.00  0.00    +0.000 HD
BRANCH  17  26
ATOM     25  N   UNL     1      47.688   2.503  17.883  0.00  0.00    +0.000 N 
ATOM     26  C   UNL     1      48.283   2.662  16.658  0.00  0.00    +0.000 C 
ATOM     27  O   UNL     1      49.052   1.827  16.212  0.00  0.00    +0.000 OA
ATOM     28  H   UNL     1      47.862   1.625  18.355  0.00  0.00    +0.000 HD
ATOM     29  H   UNL     1      46.865   3.023  18.154  0.00  0.00    +0.000 HD
ENDBRANCH  17  26
ENDBRANCH  16  21
ENDBRANCH   1  16
TORSDOF 5
ENDMDL
MODEL 7
REMARK VINA RESULT:    -7.378      4.225      7.539
REMARK INTER + INTRA:         -10.590
REMARK INTER:                  -9.470
REMARK INTRA:                  -1.120
REMARK UNBOUND:                -1.055
REMARK  Name = 
REMARK  5 active torsions:
REMARK  status: ('A' for Active; 'I' for Inactive)
REMARK    1  A    between atoms: C_2  and  C_4
REMARK    2  A    between atoms: N_8  and  C_9
REMARK    3  A    between atoms: C_9  and  C_10
REMARK    4  A    between atoms: C_10  and  C_13
REMARK    5  A    between atoms: C_17  and  C_18
REMARK                            x       y       z     vdW  Elec       q    Type
REMARK                         _______ _______ _______ _____ _____    ______ ____
ROOT
ATOM      1  C   UNL     1      48.814   8.084  12.229  0.00  0.00    +0.000 C 
ATOM      2  F   UNL     1      49.256   9.108  11.438  0.00  0.00    +0.000 F 
ATOM      3  F   UNL     1      49.612   7.019  11.924  0.00  0.00    +0.000 F 
ENDROOT
BRANCH   1   4
ATOM      4  C   UNL     1      47.345   7.776  11.998  0.00  0.00    +0.000 A 
ATOM      5  C   UNL     1      46.358   8.729  12.278  0.00  0.00    +0.000 A 
ATOM      6  C   UNL     1      45.021   8.457  12.000  0.00  0.00    +0.000 A 
ATOM      7  C   UNL     1      44.663   7.242  11.415  0.00  0.00    +0.000 A 
ATOM      8  C   UNL     1      45.628   6.271  11.091  0.00  0.00    +0.000 A 
ATOM      9  C   UNL     1      46.966   6.553  11.424  0.00  0.00    +0.000 A 
BRANCH   8  10
ATOM     10  C   UNL     1      45.264   5.025  10.389  0.00  0.00    +0.000 A 
ATOM     11  C   UNL     1      45.574   4.805   9.040  0.00  0.00    +0.000 A 
ATOM     12  C   UNL     1      45.192   3.623   8.407  0.00  0.00    +0.000 A 
ATOM     13  C   UNL     1      44.507   2.675   9.145  0.00  0.00    +0.000 A 
ATOM     14  N   UNL     1      44.172   2.836  10.439  0.00  0.00    +0.000 NA
ATOM     15  C   UNL     1      44.550   4.001  11.020  0.00  0.00    +0.000 A 
ENDBRANCH   8  10
ENDBRANCH   1   4
BRANCH   1  16
ATOM     16  C   UNL     1      49.039   8.481  13.713  0.00  0.00    +0.000 C 
BRANCH  16  21
ATOM     17  C   UNL     1      48.066   4.523  16.782  0.00  0.00    +0.000 A 
ATOM     18  C   UNL     1      47.390   4.959  15.650  0.00  0.00    +0.000 A 
ATOM     19  C   UNL     1      47.943   5.981  14.880  0.00  0.00    +0.000 A 
ATOM     20  C   UNL     1      49.157   6.554  15.251  0.00  0.00    +0.000 A 
ATOM     21  N   UNL     1      49.810   7.488  14.472  0.00  0.00    +0.000 N 
ATOM     22  N   UNL     1      49.804   6.160  16.365  0.00  0.00    +0.000 NA
ATOM     23  C   UNL     1      49.246   5.170  17.113  0.00  0.00    +0.000 A 
ATOM     24  H   UNL     1      50.624   7.842  14.973  0.00  0.00    +0.000 HD
BRANCH  17  26
ATOM     25  N   UNL     1      48.335   3.080  18.717  0.00  0.00    +0.000 N 
ATOM     26  C   UNL     1      47.568   3.423  17.633  0.00  0.00    +0.000 C 
ATOM     27  O   UNL     1      46.513   2.860  17.396  0.00  0.00    +0.000 OA
ATOM     28  H   UNL     1      47.939   2.392  19.345  0.00  0.00    +0.000 HD
ATOM     29  H   UNL     1      49.052   3.688  19.084  0.00  0.00    +0.000 HD
ENDBRANCH  17  26
ENDBRANCH  16  21
ENDBRANCH   1  16
TORSDOF 5
ENDMDL
MODEL 8
REMARK VINA RESULT:    -7.356      2.351      2.773
REMARK INTER + INTRA:         -10.561
REMARK INTER:                  -9.579
REMARK INTRA:                  -0.982
REMARK UNBOUND:                -1.055
REMARK  Name = 
REMARK  5 active torsions:
REMARK  status: ('A' for Active; 'I' for Inactive)
REMARK    1  A    between atoms: C_2  and  C_4
REMARK    2  A    between atoms: N_8  and  C_9
REMARK    3  A    between atoms: C_9  and  C_10
REMARK    4  A    between atoms: C_10  and  C_13
REMARK    5  A    between atoms: C_17  and  C_18
REMARK                            x       y       z     vdW  Elec       q    Type
REMARK                         _______ _______ _______ _____ _____    ______ ____
ROOT
ATOM      1  C   UNL     1      45.272   6.579  11.679  0.00  0.00    +0.000 C 
ATOM      2  F   UNL     1      46.130   7.028  10.713  0.00  0.00    +0.000 F 
ATOM      3  F   UNL     1      44.543   7.671  12.053  0.00  0.00    +0.000 F 
ENDROOT
BRANCH   1   4
ATOM      4  C   UNL     1      46.009   5.959  12.853  0.00  0.00    +0.000 A 
ATOM      5  C   UNL     1      45.766   4.634  13.236  0.00  0.00    +0.000 A 
ATOM      6  C   UNL     1      46.496   4.058  14.273  0.00  0.00    +0.000 A 
ATOM      7  C   UNL     1      47.492   4.793  14.918  0.00  0.00    +0.000 A 
ATOM      8  C   UNL     1      47.785   6.117  14.542  0.00  0.00    +0.000 A 
ATOM      9  C   UNL     1      47.003   6.689  13.522  0.00  0.00    +0.000 A 
BRANCH   8  10
ATOM     10  C   UNL     1      48.899   6.864  15.159  0.00  0.00    +0.000 A 
ATOM     11  C   UNL     1      48.962   7.116  16.537  0.00  0.00    +0.000 A 
ATOM     12  C   UNL     1      50.020   7.845  17.077  0.00  0.00    +0.000 A 
ATOM     13  C   UNL     1      51.005   8.304  16.223  0.00  0.00    +0.000 A 
ATOM     14  N   UNL     1      50.991   8.103  14.892  0.00  0.00    +0.000 NA
ATOM     15  C   UNL     1      49.943   7.399  14.398  0.00  0.00    +0.000 A 
ENDBRANCH   8  10
ENDBRANCH   1   4
BRANCH   1  16
ATOM     16  C   UNL     1      44.325   5.528  11.041  0.00  0.00    +0.000 C 
BRANCH  16  21
ATOM     17  C   UNL     1      46.387   2.066   7.912  0.00  0.00    +0.000 A 
ATOM     18  C   UNL     1      45.669   1.887   9.087  0.00  0.00    +0.000 A 
ATOM     19  C   UNL     1      45.066   2.992   9.688  0.00  0.00    +0.000 A 
ATOM     20  C   UNL     1      45.191   4.253   9.113  0.00  0.00    +0.000 A 
ATOM     21  N   UNL     1      44.526   5.363   9.596  0.00  0.00    +0.000 N 
ATOM     22  N   UNL     1      45.913   4.441   7.991  0.00  0.00    +0.000 NA
ATOM     23  C   UNL     1      46.506   3.356   7.422  0.00  0.00    +0.000 A 
ATOM     24  H   UNL     1      44.833   6.193   9.089  0.00  0.00    +0.000 HD
BRANCH  17  26
ATOM     25  N   UNL     1      46.759  -0.319   7.648  0.00  0.00    +0.000 N 
ATOM     26  C   UNL     1      47.027   0.946   7.192  0.00  0.00    +0.000 C 
ATOM     27  O   UNL     1      47.743   1.134   6.223  0.00  0.00    +0.000 OA
ATOM     28  H   UNL     1      47.125  -1.082   7.093  0.00  0.00    +0.000 HD
ATOM     29  H   UNL     1      45.980  -0.519   8.258  0.00  0.00    +0.000 HD
ENDBRANCH  17  26
ENDBRANCH  16  21
ENDBRANCH   1  16
TORSDOF 5
ENDMDL
MODEL 9
REMARK VINA RESULT:    -7.115      3.255      6.814
REMARK INTER + INTRA:         -10.251
REMARK INTER:                  -9.026
REMARK INTRA:                  -1.225
REMARK UNBOUND:                -1.055
REMARK  Name = 
REMARK  5 active torsions:
REMARK  status: ('A' for Active; 'I' for Inactive)
REMARK    1  A    between atoms: C_2  and  C_4
REMARK    2  A    between atoms: N_8  and  C_9
REMARK    3  A    between atoms: C_9  and  C_10
REMARK    4  A    between atoms: C_10  and  C_13
REMARK    5  A    between atoms: C_17  and  C_18
REMARK                            x       y       z     vdW  Elec       q    Type
REMARK                         _______ _______ _______ _____ _____    ______ ____
ROOT
ATOM      1  C   UNL     1      46.387   4.259  13.668  0.00  0.00    +0.000 C 
ATOM      2  F   UNL     1      47.246   3.286  14.098  0.00  0.00    +0.000 F 
ATOM      3  F   UNL     1      45.697   4.651  14.778  0.00  0.00    +0.000 F 
ENDROOT
BRANCH   1   4
ATOM      4  C   UNL     1      45.462   3.761  12.571  0.00  0.00    +0.000 A 
ATOM      5  C   UNL     1      44.084   3.642  12.791  0.00  0.00    +0.000 A 
ATOM      6  C   UNL     1      43.241   3.246  11.756  0.00  0.00    +0.000 A 
ATOM      7  C   UNL     1      43.763   2.993  10.487  0.00  0.00    +0.000 A 
ATOM      8  C   UNL     1      45.137   3.130  10.219  0.00  0.00    +0.000 A 
ATOM      9  C   UNL     1      45.974   3.487  11.293  0.00  0.00    +0.000 A 
BRANCH   8  10
ATOM     10  C   UNL     1      45.679   2.953   8.858  0.00  0.00    +0.000 A 
ATOM     11  C   UNL     1      46.069   1.701   8.362  0.00  0.00    +0.000 A 
ATOM     12  C   UNL     1      46.596   1.579   7.077  0.00  0.00    +0.000 A 
ATOM     13  C   UNL     1      46.717   2.721   6.306  0.00  0.00    +0.000 A 
ATOM     14  N   UNL     1      46.370   3.949   6.733  0.00  0.00    +0.000 NA
ATOM     15  C   UNL     1      45.870   4.033   7.990  0.00  0.00    +0.000 A 
ENDBRANCH   8  10
ENDBRANCH   1   4
BRANCH   1  16
ATOM     16  C   UNL     1      47.228   5.454  13.142  0.00  0.00    +0.000 C 
BRANCH  16  21
ATOM     17  C   UNL     1      44.335   9.311  11.473  0.00  0.00    +0.000 A 
ATOM     18  C   UNL     1      44.194   7.943  11.277  0.00  0.00    +0.000 A 
ATOM     19  C   UNL     1      45.029   7.068  11.971  0.00  0.00    +0.000 A 
ATOM     20  C   UNL     1      45.991   7.569  12.845  0.00  0.00    +0.000 A 
ATOM     21  N   UNL     1      46.769   6.755  13.644  0.00  0.00    +0.000 N 
ATOM     22  N   UNL     1      46.157   8.895  13.016  0.00  0.00    +0.000 NA
ATOM     23  C   UNL     1      45.343   9.737  12.322  0.00  0.00    +0.000 A 
ATOM     24  H   UNL     1      47.467   7.318  14.129  0.00  0.00    +0.000 HD
BRANCH  17  26
ATOM     25  N   UNL     1      42.687  11.089  11.610  0.00  0.00    +0.000 N 
ATOM     26  C   UNL     1      43.470  10.304  10.804  0.00  0.00    +0.000 C 
ATOM     27  O   UNL     1      43.469  10.437   9.591  0.00  0.00    +0.000 OA
ATOM     28  H   UNL     1      42.170  11.828  11.150  0.00  0.00    +0.000 HD
ATOM     29  H   UNL     1      42.861  11.188  12.600  0.00  0.00    +0.000 HD
ENDBRANCH  17  26
ENDBRANCH  16  21
ENDBRANCH   1  16
TORSDOF 5
ENDMDL
