MODEL 1
REMARK VINA RESULT:    -9.345      0.000      0.000
REMARK INTER + INTRA:         -12.792
REMARK INTER:                 -12.076
REMARK INTRA:                  -0.716
REMARK UNBOUND:                -0.716
REMARK  Name = 
REMARK  6 active torsions:
REMARK  status: ('A' for Active; 'I' for Inactive)
REMARK    1  A    between atoms: C_1  and  C_2
REMARK    2  A    between atoms: N_6  and  C_7
REMARK    3  A    between atoms: C_7  and  C_8
REMARK    4  A    between atoms: C_8  and  C_11
REMARK    5  A    between atoms: C_15  and  N_16
REMARK    6  A    between atoms: N_16  and  C_17
REMARK                            x       y       z     vdW  Elec       q    Type
REMARK                         _______ _______ _______ _____ _____    ______ ____
ROOT
ATOM      1  C   UNL     1      44.964   5.489  12.367  0.00  0.00    +0.000 A 
ATOM      2  C   UNL     1      45.855   6.398  11.774  0.00  0.00    +0.000 A 
ATOM      3  C   UNL     1      47.158   6.539  12.256  0.00  0.00    +0.000 A 
ATOM      4  C   UNL     1      47.598   5.768  13.334  0.00  0.00    +0.000 A 
ATOM      5  C   UNL     1      46.736   4.858  13.941  0.00  0.00    +0.000 A 
ATOM      6  C   UNL     1      45.426   4.730  13.453  0.00  0.00    +0.000 A 
ENDROOT
BRANCH   1   7
ATOM      7  C   UNL     1      43.547   5.402  11.817  0.00  0.00    +0.000 C 
ATOM      8  F   UNL     1      43.170   6.594  11.251  0.00  0.00    +0.000 F 
ATOM      9  F   UNL     1      42.658   5.205  12.841  0.00  0.00    +0.000 F 
BRANCH   7  10
ATOM     10  C   UNL     1      43.311   4.297  10.754  0.00  0.00    +0.000 C 
BRANCH  10  16
ATOM     11  C   UNL     1      47.562   1.394   6.932  0.00  0.00    +0.000 C 
ATOM     12  C   UNL     1      46.580   2.259   7.642  0.00  0.00    +0.000 A 
ATOM     13  C   UNL     1      45.692   1.780   8.577  0.00  0.00    +0.000 A 
ATOM     14  N   UNL     1      44.775   2.545   9.201  0.00  0.00    +0.000 NA
ATOM     15  C   UNL     1      44.737   3.844   8.869  0.00  0.00    +0.000 A 
ATOM     16  N   UNL     1      43.778   4.674   9.418  0.00  0.00    +0.000 N 
ATOM     17  N   UNL     1      45.577   4.415   7.999  0.00  0.00    +0.000 NA
ATOM     18  C   UNL     1      46.477   3.611   7.400  0.00  0.00    +0.000 A 
ATOM     19  H   UNL     1      44.080   5.635   9.299  0.00  0.00    +0.000 HD
ENDBRANCH  10  16
ENDBRANCH   7  10
ENDBRANCH   1   7
BRANCH   5  20
ATOM     20  N   UNL     1      47.091   4.063  15.053  0.00  0.00    +0.000 N 
ATOM     21  H   UNL     1      46.755   3.114  14.890  0.00  0.00    +0.000 HD
BRANCH  20  22
ATOM     22  C   UNL     1      46.972   4.442  16.438  0.00  0.00    +0.000 C 
ATOM     23  C   UNL     1      48.192   5.212  16.987  0.00  0.00    +0.000 C 
ATOM     24  N   UNL     1      48.219   4.234  18.059  0.00  0.00    +0.000 N 
ATOM     25  C   UNL     1      48.660   4.355  19.332  0.00  0.00    +0.000 C 
ATOM     26  N   UNL     1      48.443   3.268  20.117  0.00  0.00    +0.000 N 
ATOM     27  O   UNL     1      49.208   5.350  19.785  0.00  0.00    +0.000 OA
ATOM     28  C   UNL     1      47.368   3.281  17.381  0.00  0.00    +0.000 C 
ATOM     29  H   UNL     1      48.493   2.365  19.670  0.00  0.00    +0.000 HD
ATOM     30  H   UNL     1      48.892   3.331  21.022  0.00  0.00    +0.000 HD
ENDBRANCH  20  22
ENDBRANCH   5  20
TORSDOF 5
ENDMDL
MODEL 2
REMARK VINA RESULT:    -9.045      0.969      1.452
REMARK INTER + INTRA:         -12.405
REMARK INTER:                 -11.710
REMARK INTRA:                  -0.695
REMARK UNBOUND:                -0.716
REMARK  Name = 
REMARK  6 active torsions:
REMARK  status: ('A' for Active; 'I' for Inactive)
REMARK    1  A    between atoms: C_1  and  C_2
REMARK    2  A    between atoms: N_6  and  C_7
REMARK    3  A    between atoms: C_7  and  C_8
REMARK    4  A    between atoms: C_8  and  C_11
REMARK    5  A    between atoms: C_15  and  N_16
REMARK    6  A    between atoms: N_16  and  C_17
REMARK                            x       y       z     vdW  Elec       q    Type
REMARK                         _______ _______ _______ _____ _____    ______ ____
ROOT
ATOM      1  C   UNL     1      44.952   4.550  12.129  0.00  0.00    +0.000 A 
ATOM      2  C   UNL     1      45.559   5.697  11.592  0.00  0.00    +0.000 A 
ATOM      3  C   UNL     1      46.711   6.233  12.171  0.00  0.00    +0.000 A 
ATOM      4  C   UNL     1      47.284   5.629  13.292  0.00  0.00    +0.000 A 
ATOM      5  C   UNL     1      46.703   4.489  13.845  0.00  0.00    +0.000 A 
ATOM      6  C   UNL     1      45.541   3.963  13.259  0.00  0.00    +0.000 A 
ENDROOT
BRANCH   1   7
ATOM      7  C   UNL     1      43.681   4.030  11.472  0.00  0.00    +0.000 C 
ATOM      8  F   UNL     1      42.736   5.022  11.388  0.00  0.00    +0.000 F 
ATOM      9  F   UNL     1      43.106   3.067  12.260  0.00  0.00    +0.000 F 
BRANCH   7  10
ATOM     10  C   UNL     1      43.857   3.445  10.047  0.00  0.00    +0.000 C 
BRANCH  10  16
ATOM     11  C   UNL     1      47.995   2.325   5.279  0.00  0.00    +0.000 C 
ATOM     12  C   UNL     1      47.137   2.371   6.494  0.00  0.00    +0.000 A 
ATOM     13  C   UNL     1      46.506   3.513   6.928  0.00  0.00    +0.000 A 
ATOM     14  N   UNL     1      45.755   3.578   8.045  0.00  0.00    +0.000 NA
ATOM     15  C   UNL     1      45.637   2.453   8.766  0.00  0.00    +0.000 A 
ATOM     16  N   UNL     1      44.939   2.461   9.959  0.00  0.00    +0.000 N 
ATOM     17  N   UNL     1      46.182   1.283   8.414  0.00  0.00    +0.000 NA
ATOM     18  C   UNL     1      46.923   1.267   7.289  0.00  0.00    +0.000 A 
ATOM     19  H   UNL     1      44.701   1.504  10.197  0.00  0.00    +0.000 HD
ENDBRANCH  10  16
ENDBRANCH   7  10
ENDBRANCH   1   7
BRANCH   5  20
ATOM     20  N   UNL     1      47.200   3.835  14.994  0.00  0.00    +0.000 N 
ATOM     21  H   UNL     1      46.986   2.840  14.915  0.00  0.00    +0.000 HD
BRANCH  20  22
ATOM     22  C   UNL     1      47.082   4.301  16.352  0.00  0.00    +0.000 C 
ATOM     23  C   UNL     1      48.336   5.034  16.876  0.00  0.00    +0.000 C 
ATOM     24  N   UNL     1      48.293   4.121  18.004  0.00  0.00    +0.000 N 
ATOM     25  C   UNL     1      48.723   4.293  19.276  0.00  0.00    +0.000 C 
ATOM     26  N   UNL     1      48.434   3.268  20.118  0.00  0.00    +0.000 N 
ATOM     27  O   UNL     1      49.318   5.282  19.679  0.00  0.00    +0.000 OA
ATOM     28  C   UNL     1      47.401   3.178  17.368  0.00  0.00    +0.000 C 
ATOM     29  H   UNL     1      48.440   2.339  19.726  0.00  0.00    +0.000 HD
ATOM     30  H   UNL     1      48.873   3.359  21.026  0.00  0.00    +0.000 HD
ENDBRANCH  20  22
ENDBRANCH   5  20
TORSDOF 5
ENDMDL
MODEL 3
REMARK VINA RESULT:    -8.759      3.385      8.430
REMARK INTER + INTRA:         -12.035
REMARK INTER:                 -11.508
REMARK INTRA:                  -0.527
REMARK UNBOUND:                -0.716
REMARK  Name = 
REMARK  6 active torsions:
REMARK  status: ('A' for Active; 'I' for Inactive)
REMARK    1  A    between atoms: C_1  and  C_2
REMARK    2  A    between atoms: N_6  and  C_7
REMARK    3  A    between atoms: C_7  and  C_8
REMARK    4  A    between atoms: C_8  and  C_11
REMARK    5  A    between atoms: C_15  and  N_16
REMARK    6  A    between atoms: N_16  and  C_17
REMARK                            x       y       z     vdW  Elec       q    Type
REMARK                         _______ _______ _______ _____ _____    ______ ____
ROOT
ATOM      1  C   UNL     1      45.511   4.586  12.630  0.00  0.00    +0.000 A 
ATOM      2  C   UNL     1      44.282   4.636  13.306  0.00  0.00    +0.000 A 
ATOM      3  C   UNL     1      43.081   4.734  12.600  0.00  0.00    +0.000 A 
ATOM      4  C   UNL     1      43.085   4.774  11.204  0.00  0.00    +0.000 A 
ATOM      5  C   UNL     1      44.291   4.724  10.507  0.00  0.00    +0.000 A 
ATOM      6  C   UNL     1      45.492   4.633  11.227  0.00  0.00    +0.000 A 
ENDROOT
BRANCH   1   7
ATOM      7  C   UNL     1      46.789   4.510  13.455  0.00  0.00    +0.000 C 
ATOM      8  F   UNL     1      47.715   5.413  13.000  0.00  0.00    +0.000 F 
ATOM      9  F   UNL     1      47.383   3.286  13.289  0.00  0.00    +0.000 F 
BRANCH   7  10
ATOM     10  C   UNL     1      46.616   4.759  14.977  0.00  0.00    +0.000 C 
BRANCH  10  16
ATOM     11  C   UNL     1      51.961   3.553  18.304  0.00  0.00    +0.000 C 
ATOM     12  C   UNL     1      50.655   3.588  17.593  0.00  0.00    +0.000 A 
ATOM     13  C   UNL     1      49.998   4.755  17.280  0.00  0.00    +0.000 A 
ATOM     14  N   UNL     1      48.799   4.801  16.667  0.00  0.00    +0.000 NA
ATOM     15  C   UNL     1      48.226   3.627  16.361  0.00  0.00    +0.000 A 
ATOM     16  N   UNL     1      46.966   3.595  15.793  0.00  0.00    +0.000 N 
ATOM     17  N   UNL     1      48.795   2.439  16.591  0.00  0.00    +0.000 NA
ATOM     18  C   UNL     1      49.994   2.443  17.205  0.00  0.00    +0.000 A 
ATOM     19  H   UNL     1      46.831   2.685  15.366  0.00  0.00    +0.000 HD
ENDBRANCH  10  16
ENDBRANCH   7  10
ENDBRANCH   1   7
BRANCH   5  20
ATOM     20  N   UNL     1      44.385   4.789   9.099  0.00  0.00    +0.000 N 
ATOM     21  H   UNL     1      43.633   5.385   8.753  0.00  0.00    +0.000 HD
BRANCH  20  22
ATOM     22  C   UNL     1      44.637   3.680   8.215  0.00  0.00    +0.000 C 
ATOM     23  C   UNL     1      44.963   2.357   8.942  0.00  0.00    +0.000 C 
ATOM     24  N   UNL     1      46.149   2.291   8.107  0.00  0.00    +0.000 N 
ATOM     25  C   UNL     1      46.841   1.214   7.668  0.00  0.00    +0.000 C 
ATOM     26  N   UNL     1      47.852   1.498   6.807  0.00  0.00    +0.000 N 
ATOM     27  O   UNL     1      46.602   0.058   7.989  0.00  0.00    +0.000 OA
ATOM     28  C   UNL     1      46.098   3.679   7.706  0.00  0.00    +0.000 C 
ATOM     29  H   UNL     1      48.346   2.365   6.953  0.00  0.00    +0.000 HD
ATOM     30  H   UNL     1      48.434   0.697   6.593  0.00  0.00    +0.000 HD
ENDBRANCH  20  22
ENDBRANCH   5  20
TORSDOF 5
ENDMDL
MODEL 4
REMARK VINA RESULT:    -8.584      3.176      8.563
REMARK INTER + INTRA:         -11.809
REMARK INTER:                 -11.427
REMARK INTRA:                  -0.382
REMARK UNBOUND:                -0.716
REMARK  Name = 
REMARK  6 active torsions:
REMARK  status: ('A' for Active; 'I' for Inactive)
REMARK    1  A    between atoms: C_1  and  C_2
REMARK    2  A    between atoms: N_6  and  C_7
REMARK    3  A    between atoms: C_7  and  C_8
REMARK    4  A    between atoms: C_8  and  C_11
REMARK    5  A    between atoms: C_15  and  N_16
REMARK    6  A    between atoms: N_16  and  C_17
REMARK                            x       y       z     vdW  Elec       q    Type
REMARK                         _______ _______ _______ _____ _____    ______ ____
ROOT
ATOM      1  C   UNL     1      45.498   5.214  12.134  0.00  0.00    +0.000 A 
ATOM      2  C   UNL     1      44.586   4.551  12.970  0.00  0.00    +0.000 A 
ATOM      3  C   UNL     1      43.519   3.827  12.433  0.00  0.00    +0.000 A 
ATOM      4  C   UNL     1      43.350   3.742  11.050  0.00  0.00    +0.000 A 
ATOM      5  C   UNL     1      44.240   4.389  10.196  0.00  0.00    +0.000 A 
ATOM      6  C   UNL     1      45.304   5.121  10.747  0.00  0.00    +0.000 A 
ENDROOT
BRANCH   1   7
ATOM      7  C   UNL     1      46.622   6.013  12.779  0.00  0.00    +0.000 C 
ATOM      8  F   UNL     1      46.123   7.103  13.445  0.00  0.00    +0.000 F 
ATOM      9  F   UNL     1      47.438   6.539  11.811  0.00  0.00    +0.000 F 
BRANCH   7  10
ATOM     10  C   UNL     1      47.507   5.229  13.782  0.00  0.00    +0.000 C 
BRANCH  10  16
ATOM     11  C   UNL     1      50.366   4.788  19.504  0.00  0.00    +0.000 C 
ATOM     12  C   UNL     1      49.482   4.848  18.309  0.00  0.00    +0.000 A 
ATOM     13  C   UNL     1      49.845   5.464  17.133  0.00  0.00    +0.000 A 
ATOM     14  N   UNL     1      49.042   5.555  16.055  0.00  0.00    +0.000 NA
ATOM     15  C   UNL     1      47.817   5.017  16.159  0.00  0.00    +0.000 A 
ATOM     16  N   UNL     1      46.916   5.134  15.118  0.00  0.00    +0.000 N 
ATOM     17  N   UNL     1      47.380   4.369  17.244  0.00  0.00    +0.000 NA
ATOM     18  C   UNL     1      48.218   4.301  18.297  0.00  0.00    +0.000 A 
ATOM     19  H   UNL     1      46.191   4.435  15.244  0.00  0.00    +0.000 HD
ENDBRANCH  10  16
ENDBRANCH   7  10
ENDBRANCH   1   7
BRANCH   5  20
ATOM     20  N   UNL     1      44.124   4.380   8.788  0.00  0.00    +0.000 N 
ATOM     21  H   UNL     1      43.188   4.703   8.541  0.00  0.00    +0.000 HD
BRANCH  20  22
ATOM     22  C   UNL     1      44.578   3.335   7.907  0.00  0.00    +0.000 C 
ATOM     23  C   UNL     1      45.043   2.056   8.636  0.00  0.00    +0.000 C 
ATOM     24  N   UNL     1      46.273   2.171   7.872  0.00  0.00    +0.000 N 
ATOM     25  C   UNL     1      47.132   1.209   7.463  0.00  0.00    +0.000 C 
ATOM     26  N   UNL     1      48.141   1.648   6.667  0.00  0.00    +0.000 N 
ATOM     27  O   UNL     1      47.039   0.026   7.755  0.00  0.00    +0.000 OA
ATOM     28  C   UNL     1      46.052   3.546   7.486  0.00  0.00    +0.000 C 
ATOM     29  H   UNL     1      48.500   2.572   6.852  0.00  0.00    +0.000 HD
ATOM     30  H   UNL     1      48.840   0.940   6.478  0.00  0.00    +0.000 HD
ENDBRANCH  20  22
ENDBRANCH   5  20
TORSDOF 5
ENDMDL
MODEL 5
REMARK VINA RESULT:    -8.123      4.566      7.986
REMARK INTER + INTRA:         -11.213
REMARK INTER:                 -10.480
REMARK INTRA:                  -0.734
REMARK UNBOUND:                -0.716
REMARK  Name = 
REMARK  6 active torsions:
REMARK  status: ('A' for Active; 'I' for Inactive)
REMARK    1  A    between atoms: C_1  and  C_2
REMARK    2  A    between atoms: N_6  and  C_7
REMARK    3  A    between atoms: C_7  and  C_8
REMARK    4  A    between atoms: C_8  and  C_11
REMARK    5  A    between atoms: C_15  and  N_16
REMARK    6  A    between atoms: N_16  and  C_17
REMARK                            x       y       z     vdW  Elec       q    Type
REMARK                         _______ _______ _______ _____ _____    ______ ____
ROOT
ATOM      1  C   UNL     1      45.847   5.410  12.044  0.00  0.00    +0.000 A 
ATOM      2  C   UNL     1      45.313   4.475  12.945  0.00  0.00    +0.000 A 
ATOM      3  C   UNL     1      44.413   3.499  12.513  0.00  0.00    +0.000 A 
ATOM      4  C   UNL     1      44.038   3.431  11.170  0.00  0.00    +0.000 A 
ATOM      5  C   UNL     1      44.553   4.344  10.253  0.00  0.00    +0.000 A 
ATOM      6  C   UNL     1      45.450   5.327  10.700  0.00  0.00    +0.000 A 
ENDROOT
BRANCH   1   7
ATOM      7  C   UNL     1      46.799   6.470  12.580  0.00  0.00    +0.000 C 
ATOM      8  F   UNL     1      48.086   5.995  12.613  0.00  0.00    +0.000 F 
ATOM      9  F   UNL     1      46.498   6.754  13.886  0.00  0.00    +0.000 F 
BRANCH   7  10
ATOM     10  C   UNL     1      46.825   7.805  11.790  0.00  0.00    +0.000 C 
BRANCH  10  16
ATOM     11  C   UNL     1      41.423  10.889  10.235  0.00  0.00    +0.000 C 
ATOM     12  C   UNL     1      42.699  10.353  10.783  0.00  0.00    +0.000 A 
ATOM     13  C   UNL     1      43.123   9.061  10.579  0.00  0.00    +0.000 A 
ATOM     14  N   UNL     1      44.258   8.553  11.097  0.00  0.00    +0.000 NA
ATOM     15  C   UNL     1      44.998   9.369  11.863  0.00  0.00    +0.000 A 
ATOM     16  N   UNL     1      46.138   8.896  12.483  0.00  0.00    +0.000 N 
ATOM     17  N   UNL     1      44.691  10.650  12.096  0.00  0.00    +0.000 NA
ATOM     18  C   UNL     1      43.548  11.114  11.556  0.00  0.00    +0.000 A 
ATOM     19  H   UNL     1      46.709   9.691  12.752  0.00  0.00    +0.000 HD
ENDBRANCH  10  16
ENDBRANCH   7  10
ENDBRANCH   1   7
BRANCH   5  20
ATOM     20  N   UNL     1      44.202   4.365   8.885  0.00  0.00    +0.000 N 
ATOM     21  H   UNL     1      43.185   4.411   8.814  0.00  0.00    +0.000 HD
BRANCH  20  22
ATOM     22  C   UNL     1      44.772   3.538   7.852  0.00  0.00    +0.000 C 
ATOM     23  C   UNL     1      45.387   2.219   8.369  0.00  0.00    +0.000 C 
ATOM     24  N   UNL     1      46.591   2.600   7.654  0.00  0.00    +0.000 N 
ATOM     25  C   UNL     1      47.556   1.825   7.106  0.00  0.00    +0.000 C 
ATOM     26  N   UNL     1      48.504   2.502   6.409  0.00  0.00    +0.000 N 
ATOM     27  O   UNL     1      47.603   0.607   7.199  0.00  0.00    +0.000 OA
ATOM     28  C   UNL     1      46.210   3.985   7.494  0.00  0.00    +0.000 C 
ATOM     29  H   UNL     1      48.753   3.419   6.749  0.00  0.00    +0.000 HD
ATOM     30  H   UNL     1      49.280   1.921   6.117  0.00  0.00    +0.000 HD
ENDBRANCH  20  22
ENDBRANCH   5  20
TORSDOF 5
ENDMDL
MODEL 6
REMARK VINA RESULT:    -8.037      3.237      4.355
REMARK INTER + INTRA:         -11.102
REMARK INTER:                 -10.318
REMARK INTRA:                  -0.783
REMARK UNBOUND:                -0.716
REMARK  Name = 
REMARK  6 active torsions:
REMARK  status: ('A' for Active; 'I' for Inactive)
REMARK    1  A    between atoms: C_1  and  C_2
REMARK    2  A    between atoms: N_6  and  C_7
REMARK    3  A    between atoms: C_7  and  C_8
REMARK    4  A    between atoms: C_8  and  C_11
REMARK    5  A    between atoms: C_15  and  N_16
REMARK    6  A    between atoms: N_16  and  C_17
REMARK                            x       y       z     vdW  Elec       q    Type
REMARK                         _______ _______ _______ _____ _____    ______ ____
ROOT
ATOM      1  C   UNL     1      44.915   5.338  12.629  0.00  0.00    +0.000 A 
ATOM      2  C   UNL     1      45.470   4.096  12.972  0.00  0.00    +0.000 A 
ATOM      3  C   UNL     1      46.708   4.018  13.612  0.00  0.00    +0.000 A 
ATOM      4  C   UNL     1      47.412   5.181  13.930  0.00  0.00    +0.000 A 
ATOM      5  C   UNL     1      46.885   6.429  13.603  0.00  0.00    +0.000 A 
ATOM      6  C   UNL     1      45.642   6.494  12.952  0.00  0.00    +0.000 A 
ENDROOT
BRANCH   1   7
ATOM      7  C   UNL     1      43.575   5.358  11.905  0.00  0.00    +0.000 C 
ATOM      8  F   UNL     1      43.351   6.584  11.331  0.00  0.00    +0.000 F 
ATOM      9  F   UNL     1      42.553   5.201  12.804  0.00  0.00    +0.000 F 
BRANCH   7  10
ATOM     10  C   UNL     1      43.404   4.293  10.790  0.00  0.00    +0.000 C 
BRANCH  10  16
ATOM     11  C   UNL     1      47.643   1.575   6.823  0.00  0.00    +0.000 C 
ATOM     12  C   UNL     1      46.668   2.407   7.578  0.00  0.00    +0.000 A 
ATOM     13  C   UNL     1      45.768   1.883   8.476  0.00  0.00    +0.000 A 
ATOM     14  N   UNL     1      44.856   2.620   9.142  0.00  0.00    +0.000 NA
ATOM     15  C   UNL     1      44.837   3.938   8.890  0.00  0.00    +0.000 A 
ATOM     16  N   UNL     1      43.885   4.745   9.483  0.00  0.00    +0.000 N 
ATOM     17  N   UNL     1      45.690   4.550   8.061  0.00  0.00    +0.000 NA
ATOM     18  C   UNL     1      46.584   3.772   7.419  0.00  0.00    +0.000 A 
ATOM     19  H   UNL     1      44.201   5.708   9.426  0.00  0.00    +0.000 HD
ENDBRANCH  10  16
ENDBRANCH   7  10
ENDBRANCH   1   7
BRANCH   5  20
ATOM     20  N   UNL     1      47.543   7.651  13.861  0.00  0.00    +0.000 N 
ATOM     21  H   UNL     1      46.891   8.274  14.338  0.00  0.00    +0.000 HD
BRANCH  20  22
ATOM     22  C   UNL     1      48.389   8.368  12.941  0.00  0.00    +0.000 C 
ATOM     23  C   UNL     1      49.064   7.473  11.879  0.00  0.00    +0.000 C 
ATOM     24  N   UNL     1      50.319   8.075  12.293  0.00  0.00    +0.000 N 
ATOM     25  C   UNL     1      51.456   8.280  11.589  0.00  0.00    +0.000 C 
ATOM     26  N   UNL     1      52.419   8.971  12.251  0.00  0.00    +0.000 N 
ATOM     27  O   UNL     1      51.640   7.900  10.442  0.00  0.00    +0.000 OA
ATOM     28  C   UNL     1      49.799   8.608  13.532  0.00  0.00    +0.000 C 
ATOM     29  H   UNL     1      52.485   8.823  13.247  0.00  0.00    +0.000 HD
ATOM     30  H   UNL     1      53.302   9.003  11.757  0.00  0.00    +0.000 HD
ENDBRANCH  20  22
ENDBRANCH   5  20
TORSDOF 5
ENDMDL
MODEL 7
REMARK VINA RESULT:    -8.028      3.286      4.062
REMARK INTER + INTRA:         -11.090
REMARK INTER:                 -10.415
REMARK INTRA:                  -0.676
REMARK UNBOUND:                -0.716
REMARK  Name = 
REMARK  6 active torsions:
REMARK  status: ('A' for Active; 'I' for Inactive)
REMARK    1  A    between atoms: C_1  and  C_2
REMARK    2  A    between atoms: N_6  and  C_7
REMARK    3  A    between atoms: C_7  and  C_8
REMARK    4  A    between atoms: C_8  and  C_11
REMARK    5  A    between atoms: C_15  and  N_16
REMARK    6  A    between atoms: N_16  and  C_17
REMARK                            x       y       z     vdW  Elec       q    Type
REMARK                         _______ _______ _______ _____ _____    ______ ____
ROOT
ATOM      1  C   UNL     1      45.017   5.582  12.437  0.00  0.00    +0.000 A 
ATOM      2  C   UNL     1      45.450   4.783  13.508  0.00  0.00    +0.000 A 
ATOM      3  C   UNL     1      46.759   4.874  13.984  0.00  0.00    +0.000 A 
ATOM      4  C   UNL     1      47.659   5.772  13.407  0.00  0.00    +0.000 A 
ATOM      5  C   UNL     1      47.257   6.579  12.344  0.00  0.00    +0.000 A 
ATOM      6  C   UNL     1      45.940   6.473  11.868  0.00  0.00    +0.000 A 
ENDROOT
BRANCH   1   7
ATOM      7  C   UNL     1      43.587   5.416  11.942  0.00  0.00    +0.000 C 
ATOM      8  F   UNL     1      43.134   6.576  11.368  0.00  0.00    +0.000 F 
ATOM      9  F   UNL     1      42.745   5.200  13.002  0.00  0.00    +0.000 F 
BRANCH   7  10
ATOM     10  C   UNL     1      43.366   4.278  10.911  0.00  0.00    +0.000 C 
BRANCH  10  16
ATOM     11  C   UNL     1      47.470   1.402   6.913  0.00  0.00    +0.000 C 
ATOM     12  C   UNL     1      46.511   2.259   7.661  0.00  0.00    +0.000 A 
ATOM     13  C   UNL     1      45.677   1.776   8.643  0.00  0.00    +0.000 A 
ATOM     14  N   UNL     1      44.780   2.533   9.305  0.00  0.00    +0.000 NA
ATOM     15  C   UNL     1      44.706   3.829   8.963  0.00  0.00    +0.000 A 
ATOM     16  N   UNL     1      43.762   4.649   9.551  0.00  0.00    +0.000 N 
ATOM     17  N   UNL     1      45.493   4.403   8.048  0.00  0.00    +0.000 NA
ATOM     18  C   UNL     1      46.376   3.607   7.413  0.00  0.00    +0.000 A 
ATOM     19  H   UNL     1      44.044   5.614   9.409  0.00  0.00    +0.000 HD
ENDBRANCH  10  16
ENDBRANCH   7  10
ENDBRANCH   1   7
BRANCH   5  20
ATOM     20  N   UNL     1      48.110   7.490  11.684  0.00  0.00    +0.000 N 
ATOM     21  H   UNL     1      48.972   7.003  11.438  0.00  0.00    +0.000 HD
BRANCH  20  22
ATOM     22  C   UNL     1      48.361   8.853  12.078  0.00  0.00    +0.000 C 
ATOM     23  C   UNL     1      49.757   9.083  12.694  0.00  0.00    +0.000 C 
ATOM     24  N   UNL     1      49.067   9.703  13.811  0.00  0.00    +0.000 N 
ATOM     25  C   UNL     1      49.486  10.669  14.661  0.00  0.00    +0.000 C 
ATOM     26  N   UNL     1      48.546  11.102  15.540  0.00  0.00    +0.000 N 
ATOM     27  O   UNL     1      50.611  11.149  14.665  0.00  0.00    +0.000 OA
ATOM     28  C   UNL     1      47.771   9.159  13.475  0.00  0.00    +0.000 C 
ATOM     29  H   UNL     1      47.883  10.419  15.871  0.00  0.00    +0.000 HD
ATOM     30  H   UNL     1      48.914  11.729  16.245  0.00  0.00    +0.000 HD
ENDBRANCH  20  22
ENDBRANCH   5  20
TORSDOF 5
ENDMDL
MODEL 8
REMARK VINA RESULT:    -7.836      2.609      3.281
REMARK INTER + INTRA:         -10.842
REMARK INTER:                 -10.207
REMARK INTRA:                  -0.636
REMARK UNBOUND:                -0.716
REMARK  Name = 
REMARK  6 active torsions:
REMARK  status: ('A' for Active; 'I' for Inactive)
REMARK    1  A    between atoms: C_1  and  C_2
REMARK    2  A    between atoms: N_6  and  C_7
REMARK    3  A    between atoms: C_7  and  C_8
REMARK    4  A    between atoms: C_8  and  C_11
REMARK    5  A    between atoms: C_15  and  N_16
REMARK    6  A    between atoms: N_16  and  C_17
REMARK                            x       y       z     vdW  Elec       q    Type
REMARK                         _______ _______ _______ _____ _____    ______ ____
ROOT
ATOM      1  C   UNL     1      44.732   5.434  12.103  0.00  0.00    +0.000 A 
ATOM      2  C   UNL     1      44.182   6.423  11.273  0.00  0.00    +0.000 A 
ATOM      3  C   UNL     1      44.609   7.749  11.361  0.00  0.00    +0.000 A 
ATOM      4  C   UNL     1      45.601   8.112  12.274  0.00  0.00    +0.000 A 
ATOM      5  C   UNL     1      46.166   7.151  13.111  0.00  0.00    +0.000 A 
ATOM      6  C   UNL     1      45.723   5.822  13.019  0.00  0.00    +0.000 A 
ENDROOT
BRANCH   1   7
ATOM      7  C   UNL     1      44.204   4.011  11.982  0.00  0.00    +0.000 C 
ATOM      8  F   UNL     1      42.963   3.903  12.557  0.00  0.00    +0.000 F 
ATOM      9  F   UNL     1      44.997   3.154  12.700  0.00  0.00    +0.000 F 
BRANCH   7  10
ATOM     10  C   UNL     1      44.088   3.463  10.536  0.00  0.00    +0.000 C 
BRANCH  10  16
ATOM     11  C   UNL     1      47.652   2.513   5.292  0.00  0.00    +0.000 C 
ATOM     12  C   UNL     1      46.916   2.501   6.585  0.00  0.00    +0.000 A 
ATOM     13  C   UNL     1      46.441   3.640   7.192  0.00  0.00    +0.000 A 
ATOM     14  N   UNL     1      45.802   3.648   8.379  0.00  0.00    +0.000 NA
ATOM     15  C   UNL     1      45.640   2.465   8.991  0.00  0.00    +0.000 A 
ATOM     16  N   UNL     1      45.056   2.404  10.242  0.00  0.00    +0.000 N 
ATOM     17  N   UNL     1      46.034   1.297   8.472  0.00  0.00    +0.000 NA
ATOM     18  C   UNL     1      46.667   1.339   7.283  0.00  0.00    +0.000 A 
ATOM     19  H   UNL     1      44.748   1.451  10.406  0.00  0.00    +0.000 HD
ENDBRANCH  10  16
ENDBRANCH   7  10
ENDBRANCH   1   7
BRANCH   5  20
ATOM     20  N   UNL     1      47.150   7.438  14.081  0.00  0.00    +0.000 N 
ATOM     21  H   UNL     1      47.303   8.446  14.097  0.00  0.00    +0.000 HD
BRANCH  20  22
ATOM     22  C   UNL     1      48.377   6.710  14.285  0.00  0.00    +0.000 C 
ATOM     23  C   UNL     1      48.865   6.697  15.749  0.00  0.00    +0.000 C 
ATOM     24  N   UNL     1      50.139   7.173  15.238  0.00  0.00    +0.000 N 
ATOM     25  C   UNL     1      51.388   7.002  15.729  0.00  0.00    +0.000 C 
ATOM     26  N   UNL     1      52.381   7.493  14.943  0.00  0.00    +0.000 N 
ATOM     27  O   UNL     1      51.648   6.447  16.787  0.00  0.00    +0.000 OA
ATOM     28  C   UNL     1      49.615   7.577  13.953  0.00  0.00    +0.000 C 
ATOM     29  H   UNL     1      52.176   8.329  14.418  0.00  0.00    +0.000 HD
ATOM     30  H   UNL     1      53.292   7.469  15.385  0.00  0.00    +0.000 HD
ENDBRANCH  20  22
ENDBRANCH   5  20
TORSDOF 5
ENDMDL
