MODEL 1
REMARK VINA RESULT:    -9.245      0.000      0.000
REMARK INTER + INTRA:         -12.240
REMARK INTER:                 -11.407
REMARK INTRA:                  -0.833
REMARK UNBOUND:                -0.833
REMARK  Name = 
REMARK  4 active torsions:
REMARK  status: ('A' for Active; 'I' for Inactive)
REMARK    1  A    between atoms: C_2  and  C_4
REMARK    2  A    between atoms: N_8  and  C_9
REMARK    3  A    between atoms: C_9  and  C_10
REMARK    4  A    between atoms: C_15  and  C_16
REMARK                            x       y       z     vdW  Elec       q    Type
REMARK                         _______ _______ _______ _____ _____    ______ ____
ROOT
ATOM      1  C   UNL     1      43.509   4.864  11.068  0.00  0.00    +0.000 C 
ENDROOT
BRANCH   1   6
ATOM      2  C   UNL     1      46.374   2.286   7.675  0.00  0.00    +0.000 A 
ATOM      3  C   UNL     1      45.689   1.809   8.784  0.00  0.00    +0.000 A 
ATOM      4  C   UNL     1      44.834   2.664   9.483  0.00  0.00    +0.000 A 
ATOM      5  C   UNL     1      44.693   3.987   9.071  0.00  0.00    +0.000 A 
ATOM      6  N   UNL     1      43.814   4.872   9.652  0.00  0.00    +0.000 N 
ATOM      7  N   UNL     1      45.361   4.463   8.004  0.00  0.00    +0.000 NA
ATOM      8  C   UNL     1      46.191   3.617   7.331  0.00  0.00    +0.000 A 
ATOM      9  H   UNL     1      43.959   5.783   9.232  0.00  0.00    +0.000 HD
BRANCH   2  11
ATOM     10  N   UNL     1      48.391   2.045   6.346  0.00  0.00    +0.000 N 
ATOM     11  C   UNL     1      47.278   1.442   6.868  0.00  0.00    +0.000 C 
ATOM     12  O   UNL     1      47.061   0.252   6.695  0.00  0.00    +0.000 OA
ATOM     13  H   UNL     1      49.049   1.439   5.870  0.00  0.00    +0.000 HD
ATOM     14  H   UNL     1      48.730   2.941   6.663  0.00  0.00    +0.000 HD
ENDBRANCH   2  11
ENDBRANCH   1   6
BRANCH   1  15
ATOM     15  C   UNL     1      44.694   5.242  11.928  0.00  0.00    +0.000 A 
ATOM     16  C   UNL     1      45.214   4.344  12.863  0.00  0.00    +0.000 A 
ATOM     17  C   UNL     1      46.358   4.676  13.576  0.00  0.00    +0.000 A 
ATOM     18  F   UNL     1      46.864   3.799  14.452  0.00  0.00    +0.000 F 
ATOM     19  C   UNL     1      47.005   5.893  13.380  0.00  0.00    +0.000 A 
ATOM     20  C   UNL     1      46.521   6.826  12.449  0.00  0.00    +0.000 A 
ATOM     21  C   UNL     1      45.353   6.475  11.737  0.00  0.00    +0.000 A 
BRANCH  20  22
ATOM     22  C   UNL     1      47.225   8.107  12.199  0.00  0.00    +0.000 A 
ATOM     23  C   UNL     1      48.578   8.161  11.827  0.00  0.00    +0.000 A 
ATOM     24  C   UNL     1      49.204   9.382  11.572  0.00  0.00    +0.000 A 
ATOM     25  C   UNL     1      48.458  10.539  11.686  0.00  0.00    +0.000 A 
ATOM     26  N   UNL     1      47.160  10.552  12.044  0.00  0.00    +0.000 NA
ATOM     27  C   UNL     1      46.586   9.347  12.297  0.00  0.00    +0.000 A 
ENDBRANCH  20  22
ENDBRANCH   1  15
TORSDOF 4
ENDMDL
MODEL 2
REMARK VINA RESULT:    -8.626      2.444      3.813
REMARK INTER + INTRA:         -11.477
REMARK INTER:                 -10.651
REMARK INTRA:                  -0.826
REMARK UNBOUND:                -0.833
REMARK  Name = 
REMARK  4 active torsions:
REMARK  status: ('A' for Active; 'I' for Inactive)
REMARK    1  A    between atoms: C_2  and  C_4
REMARK    2  A    between atoms: N_8  and  C_9
REMARK    3  A    between atoms: C_9  and  C_10
REMARK    4  A    between atoms: C_15  and  C_16
REMARK                            x       y       z     vdW  Elec       q    Type
REMARK                         _______ _______ _______ _____ _____    ______ ____
ROOT
ATOM      1  C   UNL     1      43.556   5.224  11.008  0.00  0.00    +0.000 C 
ENDROOT
BRANCH   1   6
ATOM      2  C   UNL     1      46.220   2.046   7.979  0.00  0.00    +0.000 A 
ATOM      3  C   UNL     1      45.528   1.765   9.149  0.00  0.00    +0.000 A 
ATOM      4  C   UNL     1      44.733   2.755   9.731  0.00  0.00    +0.000 A 
ATOM      5  C   UNL     1      44.658   4.015   9.141  0.00  0.00    +0.000 A 
ATOM      6  N   UNL     1      43.838   5.020   9.602  0.00  0.00    +0.000 N 
ATOM      7  N   UNL     1      45.334   4.301   8.013  0.00  0.00    +0.000 NA
ATOM      8  C   UNL     1      46.105   3.326   7.457  0.00  0.00    +0.000 A 
ATOM      9  H   UNL     1      44.026   5.855   9.059  0.00  0.00    +0.000 HD
BRANCH   2  11
ATOM     10  N   UNL     1      46.820  -0.270   7.564  0.00  0.00    +0.000 N 
ATOM     11  C   UNL     1      47.063   1.050   7.289  0.00  0.00    +0.000 C 
ATOM     12  O   UNL     1      47.921   1.382   6.484  0.00  0.00    +0.000 OA
ATOM     13  H   UNL     1      47.342  -0.946   7.020  0.00  0.00    +0.000 HD
ATOM     14  H   UNL     1      45.978  -0.588   8.019  0.00  0.00    +0.000 HD
ENDBRANCH   2  11
ENDBRANCH   1   6
BRANCH   1  15
ATOM     15  C   UNL     1      44.711   5.849  11.756  0.00  0.00    +0.000 A 
ATOM     16  C   UNL     1      45.052   7.189  11.552  0.00  0.00    +0.000 A 
ATOM     17  C   UNL     1      46.057   7.768  12.314  0.00  0.00    +0.000 A 
ATOM     18  F   UNL     1      46.360   9.059  12.130  0.00  0.00    +0.000 F 
ATOM     19  C   UNL     1      46.738   7.040  13.287  0.00  0.00    +0.000 A 
ATOM     20  C   UNL     1      46.428   5.693  13.530  0.00  0.00    +0.000 A 
ATOM     21  C   UNL     1      45.408   5.118  12.740  0.00  0.00    +0.000 A 
BRANCH  20  22
ATOM     22  C   UNL     1      47.114   4.919  14.592  0.00  0.00    +0.000 A 
ATOM     23  C   UNL     1      47.659   5.529  15.734  0.00  0.00    +0.000 A 
ATOM     24  C   UNL     1      48.275   4.768  16.729  0.00  0.00    +0.000 A 
ATOM     25  C   UNL     1      48.330   3.397  16.568  0.00  0.00    +0.000 A 
ATOM     26  N   UNL     1      47.832   2.756  15.493  0.00  0.00    +0.000 NA
ATOM     27  C   UNL     1      47.251   3.528  14.539  0.00  0.00    +0.000 A 
ENDBRANCH  20  22
ENDBRANCH   1  15
TORSDOF 4
ENDMDL
MODEL 3
REMARK VINA RESULT:    -7.868      2.027      2.535
REMARK INTER + INTRA:         -10.541
REMARK INTER:                  -9.866
REMARK INTRA:                  -0.676
REMARK UNBOUND:                -0.833
REMARK  Name = 
REMARK  4 active torsions:
REMARK  status: ('A' for Active; 'I' for Inactive)
REMARK    1  A    between atoms: C_2  and  C_4
REMARK    2  A    between atoms: N_8  and  C_9
REMARK    3  A    between atoms: C_9  and  C_10
REMARK    4  A    between atoms: C_15  and  C_16
REMARK                            x       y       z     vdW  Elec       q    Type
REMARK                         _______ _______ _______ _____ _____    ______ ____
ROOT
ATOM      1  C   UNL     1      43.583   3.965  11.049  0.00  0.00    +0.000 C 
ENDROOT
BRANCH   1   6
ATOM      2  C   UNL     1      46.685   2.544   7.212  0.00  0.00    +0.000 A 
ATOM      3  C   UNL     1      46.432   3.815   7.708  0.00  0.00    +0.000 A 
ATOM      4  C   UNL     1      45.671   3.960   8.870  0.00  0.00    +0.000 A 
ATOM      5  C   UNL     1      45.161   2.831   9.506  0.00  0.00    +0.000 A 
ATOM      6  N   UNL     1      44.472   2.877  10.696  0.00  0.00    +0.000 N 
ATOM      7  N   UNL     1      45.391   1.594   9.027  0.00  0.00    +0.000 NA
ATOM      8  C   UNL     1      46.135   1.468   7.893  0.00  0.00    +0.000 A 
ATOM      9  H   UNL     1      44.138   1.943  10.905  0.00  0.00    +0.000 HD
BRANCH   2  11
ATOM     10  N   UNL     1      47.270   3.118   4.926  0.00  0.00    +0.000 N 
ATOM     11  C   UNL     1      47.498   2.303   6.003  0.00  0.00    +0.000 C 
ATOM     12  O   UNL     1      48.359   1.435   5.971  0.00  0.00    +0.000 OA
ATOM     13  H   UNL     1      47.893   3.003   4.135  0.00  0.00    +0.000 HD
ATOM     14  H   UNL     1      46.758   3.985   4.994  0.00  0.00    +0.000 HD
ENDBRANCH   2  11
ENDBRANCH   1   6
BRANCH   1  15
ATOM     15  C   UNL     1      44.296   5.110  11.731  0.00  0.00    +0.000 A 
ATOM     16  C   UNL     1      45.285   4.868  12.688  0.00  0.00    +0.000 A 
ATOM     17  C   UNL     1      45.990   5.931  13.235  0.00  0.00    +0.000 A 
ATOM     18  F   UNL     1      46.954   5.688  14.132  0.00  0.00    +0.000 F 
ATOM     19  C   UNL     1      45.735   7.244  12.848  0.00  0.00    +0.000 A 
ATOM     20  C   UNL     1      44.753   7.536  11.888  0.00  0.00    +0.000 A 
ATOM     21  C   UNL     1      44.040   6.443  11.347  0.00  0.00    +0.000 A 
BRANCH  20  22
ATOM     22  C   UNL     1      44.502   8.925  11.435  0.00  0.00    +0.000 A 
ATOM     23  C   UNL     1      45.334   9.997  11.799  0.00  0.00    +0.000 A 
ATOM     24  C   UNL     1      45.084  11.289  11.333  0.00  0.00    +0.000 A 
ATOM     25  C   UNL     1      44.002  11.489  10.497  0.00  0.00    +0.000 A 
ATOM     26  N   UNL     1      43.166  10.503  10.119  0.00  0.00    +0.000 NA
ATOM     27  C   UNL     1      43.432   9.261  10.601  0.00  0.00    +0.000 A 
ENDBRANCH  20  22
ENDBRANCH   1  15
TORSDOF 4
ENDMDL
MODEL 4
REMARK VINA RESULT:    -7.843      2.510      3.078
REMARK INTER + INTRA:         -10.510
REMARK INTER:                  -9.922
REMARK INTRA:                  -0.589
REMARK UNBOUND:                -0.833
REMARK  Name = 
REMARK  4 active torsions:
REMARK  status: ('A' for Active; 'I' for Inactive)
REMARK    1  A    between atoms: C_2  and  C_4
REMARK    2  A    between atoms: N_8  and  C_9
REMARK    3  A    between atoms: C_9  and  C_10
REMARK    4  A    between atoms: C_15  and  C_16
REMARK                            x       y       z     vdW  Elec       q    Type
REMARK                         _______ _______ _______ _____ _____    ______ ____
ROOT
ATOM      1  C   UNL     1      44.323   5.581  11.015  0.00  0.00    +0.000 C 
ENDROOT
BRANCH   1   6
ATOM      2  C   UNL     1      46.394   2.062   7.901  0.00  0.00    +0.000 A 
ATOM      3  C   UNL     1      45.601   1.878   9.025  0.00  0.00    +0.000 A 
ATOM      4  C   UNL     1      45.008   2.985   9.635  0.00  0.00    +0.000 A 
ATOM      5  C   UNL     1      45.233   4.259   9.121  0.00  0.00    +0.000 A 
ATOM      6  N   UNL     1      44.624   5.393   9.611  0.00  0.00    +0.000 N 
ATOM      7  N   UNL     1      46.009   4.451   8.038  0.00  0.00    +0.000 NA
ATOM      8  C   UNL     1      46.580   3.362   7.452  0.00  0.00    +0.000 A 
ATOM      9  H   UNL     1      45.013   6.194   9.126  0.00  0.00    +0.000 HD
BRANCH   2  11
ATOM     10  N   UNL     1      46.702  -0.324   7.576  0.00  0.00    +0.000 N 
ATOM     11  C   UNL     1      47.038   0.944   7.183  0.00  0.00    +0.000 C 
ATOM     12  O   UNL     1      47.814   1.137   6.259  0.00  0.00    +0.000 OA
ATOM     13  H   UNL     1      47.080  -1.082   7.020  0.00  0.00    +0.000 HD
ATOM     14  H   UNL     1      45.897  -0.525   8.151  0.00  0.00    +0.000 HD
ENDBRANCH   2  11
ENDBRANCH   1   6
BRANCH   1  15
ATOM     15  C   UNL     1      45.041   6.767  11.617  0.00  0.00    +0.000 A 
ATOM     16  C   UNL     1      44.504   8.053  11.517  0.00  0.00    +0.000 A 
ATOM     17  C   UNL     1      45.132   9.114  12.155  0.00  0.00    +0.000 A 
ATOM     18  F   UNL     1      44.597  10.338  12.075  0.00  0.00    +0.000 F 
ATOM     19  C   UNL     1      46.294   8.926  12.900  0.00  0.00    +0.000 A 
ATOM     20  C   UNL     1      46.868   7.651  13.031  0.00  0.00    +0.000 A 
ATOM     21  C   UNL     1      46.220   6.585  12.370  0.00  0.00    +0.000 A 
BRANCH  20  22
ATOM     22  C   UNL     1      48.079   7.429  13.857  0.00  0.00    +0.000 A 
ATOM     23  C   UNL     1      49.208   8.262  13.776  0.00  0.00    +0.000 A 
ATOM     24  C   UNL     1      50.322   8.041  14.587  0.00  0.00    +0.000 A 
ATOM     25  C   UNL     1      50.286   6.986  15.480  0.00  0.00    +0.000 A 
ATOM     26  N   UNL     1      49.236   6.151  15.598  0.00  0.00    +0.000 NA
ATOM     27  C   UNL     1      48.175   6.388  14.785  0.00  0.00    +0.000 A 
ENDBRANCH  20  22
ENDBRANCH   1  15
TORSDOF 4
ENDMDL
MODEL 5
REMARK VINA RESULT:    -7.835      2.633      3.252
REMARK INTER + INTRA:         -10.500
REMARK INTER:                  -9.991
REMARK INTRA:                  -0.509
REMARK UNBOUND:                -0.833
REMARK  Name = 
REMARK  4 active torsions:
REMARK  status: ('A' for Active; 'I' for Inactive)
REMARK    1  A    between atoms: C_2  and  C_4
REMARK    2  A    between atoms: N_8  and  C_9
REMARK    3  A    between atoms: C_9  and  C_10
REMARK    4  A    between atoms: C_15  and  C_16
REMARK                            x       y       z     vdW  Elec       q    Type
REMARK                         _______ _______ _______ _____ _____    ______ ____
ROOT
ATOM      1  C   UNL     1      43.484   3.603  11.072  0.00  0.00    +0.000 C 
ENDROOT
BRANCH   1   6
ATOM      2  C   UNL     1      46.685   2.499   7.211  0.00  0.00    +0.000 A 
ATOM      3  C   UNL     1      46.326   3.738   7.724  0.00  0.00    +0.000 A 
ATOM      4  C   UNL     1      45.559   3.802   8.889  0.00  0.00    +0.000 A 
ATOM      5  C   UNL     1      45.149   2.626   9.511  0.00  0.00    +0.000 A 
ATOM      6  N   UNL     1      44.462   2.599  10.704  0.00  0.00    +0.000 N 
ATOM      7  N   UNL     1      45.482   1.419   9.017  0.00  0.00    +0.000 NA
ATOM      8  C   UNL     1      46.231   1.371   7.880  0.00  0.00    +0.000 A 
ATOM      9  H   UNL     1      44.210   1.637  10.902  0.00  0.00    +0.000 HD
BRANCH   2  11
ATOM     10  N   UNL     1      47.333   3.264   5.000  0.00  0.00    +0.000 N 
ATOM     11  C   UNL     1      47.512   2.343   5.998  0.00  0.00    +0.000 C 
ATOM     12  O   UNL     1      48.342   1.452   5.897  0.00  0.00    +0.000 OA
ATOM     13  H   UNL     1      47.966   3.201   4.211  0.00  0.00    +0.000 HD
ATOM     14  H   UNL     1      46.850   4.139   5.141  0.00  0.00    +0.000 HD
ENDBRANCH   2  11
ENDBRANCH   1   6
BRANCH   1  15
ATOM     15  C   UNL     1      44.112   4.921  11.462  0.00  0.00    +0.000 A 
ATOM     16  C   UNL     1      43.560   6.130  11.031  0.00  0.00    +0.000 A 
ATOM     17  C   UNL     1      44.099   7.330  11.475  0.00  0.00    +0.000 A 
ATOM     18  F   UNL     1      43.547   8.484  11.078  0.00  0.00    +0.000 F 
ATOM     19  C   UNL     1      45.184   7.358  12.346  0.00  0.00    +0.000 A 
ATOM     20  C   UNL     1      45.771   6.169  12.808  0.00  0.00    +0.000 A 
ATOM     21  C   UNL     1      45.215   4.957  12.341  0.00  0.00    +0.000 A 
BRANCH  20  22
ATOM     22  C   UNL     1      46.899   6.184  13.769  0.00  0.00    +0.000 A 
ATOM     23  C   UNL     1      47.787   7.268  13.871  0.00  0.00    +0.000 A 
ATOM     24  C   UNL     1      48.823   7.261  14.806  0.00  0.00    +0.000 A 
ATOM     25  C   UNL     1      48.950   6.165  15.638  0.00  0.00    +0.000 A 
ATOM     26  N   UNL     1      48.135   5.095  15.584  0.00  0.00    +0.000 NA
ATOM     27  C   UNL     1      47.146   5.129  14.654  0.00  0.00    +0.000 A 
ENDBRANCH  20  22
ENDBRANCH   1  15
TORSDOF 4
ENDMDL
MODEL 6
REMARK VINA RESULT:    -7.818      3.399      7.362
REMARK INTER + INTRA:         -10.479
REMARK INTER:                 -10.030
REMARK INTRA:                  -0.449
REMARK UNBOUND:                -0.833
REMARK  Name = 
REMARK  4 active torsions:
REMARK  status: ('A' for Active; 'I' for Inactive)
REMARK    1  A    between atoms: C_2  and  C_4
REMARK    2  A    between atoms: N_8  and  C_9
REMARK    3  A    between atoms: C_9  and  C_10
REMARK    4  A    between atoms: C_15  and  C_16
REMARK                            x       y       z     vdW  Elec       q    Type
REMARK                         _______ _______ _______ _____ _____    ______ ____
ROOT
ATOM      1  C   UNL     1      45.049   6.467  11.150  0.00  0.00    +0.000 C 
ENDROOT
BRANCH   1   6
ATOM      2  C   UNL     1      47.995   5.795  15.302  0.00  0.00    +0.000 A 
ATOM      3  C   UNL     1      47.039   4.947  14.760  0.00  0.00    +0.000 A 
ATOM      4  C   UNL     1      46.465   5.258  13.525  0.00  0.00    +0.000 A 
ATOM      5  C   UNL     1      46.844   6.423  12.863  0.00  0.00    +0.000 A 
ATOM      6  N   UNL     1      46.390   6.764  11.609  0.00  0.00    +0.000 N 
ATOM      7  N   UNL     1      47.762   7.259  13.385  0.00  0.00    +0.000 NA
ATOM      8  C   UNL     1      48.313   6.942  14.589  0.00  0.00    +0.000 A 
ATOM      9  H   UNL     1      46.744   7.688  11.385  0.00  0.00    +0.000 HD
BRANCH   2  11
ATOM     10  N   UNL     1      48.082   6.043  17.716  0.00  0.00    +0.000 N 
ATOM     11  C   UNL     1      48.666   5.527  16.589  0.00  0.00    +0.000 C 
ATOM     12  O   UNL     1      49.681   4.850  16.655  0.00  0.00    +0.000 OA
ATOM     13  H   UNL     1      48.499   5.780  18.600  0.00  0.00    +0.000 HD
ATOM     14  H   UNL     1      47.133   6.387  17.733  0.00  0.00    +0.000 HD
ENDBRANCH   2  11
ENDBRANCH   1   6
BRANCH   1  15
ATOM     15  C   UNL     1      44.879   5.026  10.724  0.00  0.00    +0.000 A 
ATOM     16  C   UNL     1      43.974   4.189  11.380  0.00  0.00    +0.000 A 
ATOM     17  C   UNL     1      43.767   2.897  10.915  0.00  0.00    +0.000 A 
ATOM     18  F   UNL     1      42.879   2.110  11.535  0.00  0.00    +0.000 F 
ATOM     19  C   UNL     1      44.445   2.413   9.799  0.00  0.00    +0.000 A 
ATOM     20  C   UNL     1      45.361   3.219   9.105  0.00  0.00    +0.000 A 
ATOM     21  C   UNL     1      45.564   4.527   9.596  0.00  0.00    +0.000 A 
BRANCH  20  22
ATOM     22  C   UNL     1      46.057   2.731   7.890  0.00  0.00    +0.000 A 
ATOM     23  C   UNL     1      46.222   3.530   6.747  0.00  0.00    +0.000 A 
ATOM     24  C   UNL     1      46.906   3.049   5.629  0.00  0.00    +0.000 A 
ATOM     25  C   UNL     1      47.424   1.769   5.675  0.00  0.00    +0.000 A 
ATOM     26  N   UNL     1      47.292   0.955   6.740  0.00  0.00    +0.000 NA
ATOM     27  C   UNL     1      46.611   1.450   7.805  0.00  0.00    +0.000 A 
ENDBRANCH  20  22
ENDBRANCH   1  15
TORSDOF 4
ENDMDL
MODEL 7
REMARK VINA RESULT:    -7.600      3.194      7.132
REMARK INTER + INTRA:         -10.211
REMARK INTER:                  -9.447
REMARK INTRA:                  -0.764
REMARK UNBOUND:                -0.833
REMARK  Name = 
REMARK  4 active torsions:
REMARK  status: ('A' for Active; 'I' for Inactive)
REMARK    1  A    between atoms: C_2  and  C_4
REMARK    2  A    between atoms: N_8  and  C_9
REMARK    3  A    between atoms: C_9  and  C_10
REMARK    4  A    between atoms: C_15  and  C_16
REMARK                            x       y       z     vdW  Elec       q    Type
REMARK                         _______ _______ _______ _____ _____    ______ ____
ROOT
ATOM      1  C   UNL     1      44.554   6.608  11.080  0.00  0.00    +0.000 C 
ENDROOT
BRANCH   1   6
ATOM      2  C   UNL     1      49.119   7.607  13.210  0.00  0.00    +0.000 A 
ATOM      3  C   UNL     1      48.622   8.007  11.977  0.00  0.00    +0.000 A 
ATOM      4  C   UNL     1      47.284   7.756  11.662  0.00  0.00    +0.000 A 
ATOM      5  C   UNL     1      46.472   7.094  12.579  0.00  0.00    +0.000 A 
ATOM      6  N   UNL     1      45.127   6.878  12.383  0.00  0.00    +0.000 N 
ATOM      7  N   UNL     1      46.947   6.691  13.773  0.00  0.00    +0.000 NA
ATOM      8  C   UNL     1      48.253   6.944  14.067  0.00  0.00    +0.000 A 
ATOM      9  H   UNL     1      44.784   6.308  13.149  0.00  0.00    +0.000 HD
BRANCH   2  11
ATOM     10  N   UNL     1      50.906   7.320  14.828  0.00  0.00    +0.000 N 
ATOM     11  C   UNL     1      50.513   7.854  13.629  0.00  0.00    +0.000 C 
ATOM     12  O   UNL     1      51.293   8.482  12.928  0.00  0.00    +0.000 OA
ATOM     13  H   UNL     1      51.886   7.419  15.064  0.00  0.00    +0.000 HD
ATOM     14  H   UNL     1      50.382   6.603  15.307  0.00  0.00    +0.000 HD
ENDBRANCH   2  11
ENDBRANCH   1   6
BRANCH   1  15
ATOM     15  C   UNL     1      44.554   5.138  10.730  0.00  0.00    +0.000 A 
ATOM     16  C   UNL     1      43.750   4.236  11.432  0.00  0.00    +0.000 A 
ATOM     17  C   UNL     1      43.697   2.907  11.036  0.00  0.00    +0.000 A 
ATOM     18  F   UNL     1      42.904   2.055  11.698  0.00  0.00    +0.000 F 
ATOM     19  C   UNL     1      44.431   2.447   9.945  0.00  0.00    +0.000 A 
ATOM     20  C   UNL     1      45.250   3.316   9.208  0.00  0.00    +0.000 A 
ATOM     21  C   UNL     1      45.298   4.664   9.629  0.00  0.00    +0.000 A 
BRANCH  20  22
ATOM     22  C   UNL     1      46.002   2.850   8.019  0.00  0.00    +0.000 A 
ATOM     23  C   UNL     1      46.331   3.705   6.953  0.00  0.00    +0.000 A 
ATOM     24  C   UNL     1      47.063   3.240   5.860  0.00  0.00    +0.000 A 
ATOM     25  C   UNL     1      47.466   1.919   5.853  0.00  0.00    +0.000 A 
ATOM     26  N   UNL     1      47.177   1.050   6.841  0.00  0.00    +0.000 NA
ATOM     27  C   UNL     1      46.452   1.533   7.883  0.00  0.00    +0.000 A 
ENDBRANCH  20  22
ENDBRANCH   1  15
TORSDOF 4
ENDMDL
MODEL 8
REMARK VINA RESULT:    -7.459      3.706      7.077
REMARK INTER + INTRA:         -10.036
REMARK INTER:                 -10.036
REMARK INTRA:                   0.000
REMARK UNBOUND:                -0.833
REMARK  Name = 
REMARK  4 active torsions:
REMARK  status: ('A' for Active; 'I' for Inactive)
REMARK    1  A    between atoms: C_2  and  C_4
REMARK    2  A    between atoms: N_8  and  C_9
REMARK    3  A    between atoms: C_9  and  C_10
REMARK    4  A    between atoms: C_15  and  C_16
REMARK                            x       y       z     vdW  Elec       q    Type
REMARK                         _______ _______ _______ _____ _____    ______ ____
ROOT
ATOM      1  C   UNL     1      46.139   7.512  11.853  0.00  0.00    +0.000 C 
ENDROOT
BRANCH   1   6
ATOM      2  C   UNL     1      47.463   4.356  15.682  0.00  0.00    +0.000 A 
ATOM      3  C   UNL     1      46.448   4.218  14.744  0.00  0.00    +0.000 A 
ATOM      4  C   UNL     1      46.365   5.123  13.684  0.00  0.00    +0.000 A 
ATOM      5  C   UNL     1      47.289   6.161  13.589  0.00  0.00    +0.000 A 
ATOM      6  N   UNL     1      47.328   7.046  12.536  0.00  0.00    +0.000 N 
ATOM      7  N   UNL     1      48.270   6.311  14.499  0.00  0.00    +0.000 NA
ATOM      8  C   UNL     1      48.339   5.420  15.527  0.00  0.00    +0.000 A 
ATOM      9  H   UNL     1      48.029   7.750  12.741  0.00  0.00    +0.000 HD
BRANCH   2  11
ATOM     10  N   UNL     1      48.919   3.127  17.187  0.00  0.00    +0.000 N 
ATOM     11  C   UNL     1      47.635   3.429  16.818  0.00  0.00    +0.000 C 
ATOM     12  O   UNL     1      46.677   2.973  17.425  0.00  0.00    +0.000 OA
ATOM     13  H   UNL     1      49.026   2.563  18.021  0.00  0.00    +0.000 HD
ATOM     14  H   UNL     1      49.717   3.663  16.881  0.00  0.00    +0.000 HD
ENDBRANCH   2  11
ENDBRANCH   1   6
BRANCH   1  15
ATOM     15  C   UNL     1      45.298   6.383  11.300  0.00  0.00    +0.000 A 
ATOM     16  C   UNL     1      43.943   6.277  11.624  0.00  0.00    +0.000 A 
ATOM     17  C   UNL     1      43.169   5.288  11.034  0.00  0.00    +0.000 A 
ATOM     18  F   UNL     1      41.866   5.209  11.329  0.00  0.00    +0.000 F 
ATOM     19  C   UNL     1      43.715   4.391  10.119  0.00  0.00    +0.000 A 
ATOM     20  C   UNL     1      45.071   4.460   9.761  0.00  0.00    +0.000 A 
ATOM     21  C   UNL     1      45.845   5.469  10.376  0.00  0.00    +0.000 A 
BRANCH  20  22
ATOM     22  C   UNL     1      45.655   3.541   8.756  0.00  0.00    +0.000 A 
ATOM     23  C   UNL     1      46.285   4.004   7.589  0.00  0.00    +0.000 A 
ATOM     24  C   UNL     1      46.849   3.112   6.675  0.00  0.00    +0.000 A 
ATOM     25  C   UNL     1      46.780   1.760   6.949  0.00  0.00    +0.000 A 
ATOM     26  N   UNL     1      46.184   1.255   8.047  0.00  0.00    +0.000 NA
ATOM     27  C   UNL     1      45.635   2.151   8.908  0.00  0.00    +0.000 A 
ENDBRANCH  20  22
ENDBRANCH   1  15
TORSDOF 4
ENDMDL
MODEL 9
REMARK VINA RESULT:    -7.342      4.902      7.859
REMARK INTER + INTRA:          -9.892
REMARK INTER:                  -9.404
REMARK INTRA:                  -0.488
REMARK UNBOUND:                -0.833
REMARK  Name = 
REMARK  4 active torsions:
REMARK  status: ('A' for Active; 'I' for Inactive)
REMARK    1  A    between atoms: C_2  and  C_4
REMARK    2  A    between atoms: N_8  and  C_9
REMARK    3  A    between atoms: C_9  and  C_10
REMARK    4  A    between atoms: C_15  and  C_16
REMARK                            x       y       z     vdW  Elec       q    Type
REMARK                         _______ _______ _______ _____ _____    ______ ____
ROOT
ATOM      1  C   UNL     1      46.051   5.311  13.942  0.00  0.00    +0.000 C 
ENDROOT
BRANCH   1   6
ATOM      2  C   UNL     1      49.617   3.723  17.279  0.00  0.00    +0.000 A 
ATOM      3  C   UNL     1      49.112   5.000  17.080  0.00  0.00    +0.000 A 
ATOM      4  C   UNL     1      48.023   5.182  16.224  0.00  0.00    +0.000 A 
ATOM      5  C   UNL     1      47.470   4.084  15.569  0.00  0.00    +0.000 A 
ATOM      6  N   UNL     1      46.349   4.162  14.773  0.00  0.00    +0.000 N 
ATOM      7  N   UNL     1      47.960   2.843  15.746  0.00  0.00    +0.000 NA
ATOM      8  C   UNL     1      49.021   2.681  16.584  0.00  0.00    +0.000 A 
ATOM      9  H   UNL     1      46.199   3.253  14.350  0.00  0.00    +0.000 HD
BRANCH   2  11
ATOM     10  N   UNL     1      51.412   2.257  18.002  0.00  0.00    +0.000 N 
ATOM     11  C   UNL     1      50.750   3.442  18.184  0.00  0.00    +0.000 C 
ATOM     12  O   UNL     1      51.103   4.241  19.038  0.00  0.00    +0.000 OA
ATOM     13  H   UNL     1      52.241   2.114  18.568  0.00  0.00    +0.000 HD
ATOM     14  H   UNL     1      51.315   1.696  17.169  0.00  0.00    +0.000 HD
ENDBRANCH   2  11
ENDBRANCH   1   6
BRANCH   1  15
ATOM     15  C   UNL     1      45.120   4.983  12.798  0.00  0.00    +0.000 A 
ATOM     16  C   UNL     1      43.783   5.390  12.826  0.00  0.00    +0.000 A 
ATOM     17  C   UNL     1      42.969   5.159  11.726  0.00  0.00    +0.000 A 
ATOM     18  F   UNL     1      41.697   5.576  11.751  0.00  0.00    +0.000 F 
ATOM     19  C   UNL     1      43.457   4.526  10.585  0.00  0.00    +0.000 A 
ATOM     20  C   UNL     1      44.793   4.102  10.510  0.00  0.00    +0.000 A 
ATOM     21  C   UNL     1      45.605   4.339  11.641  0.00  0.00    +0.000 A 
BRANCH  20  22
ATOM     22  C   UNL     1      45.336   3.467   9.286  0.00  0.00    +0.000 A 
ATOM     23  C   UNL     1      45.790   4.216   8.188  0.00  0.00    +0.000 A 
ATOM     24  C   UNL     1      46.321   3.587   7.060  0.00  0.00    +0.000 A 
ATOM     25  C   UNL     1      46.398   2.208   7.052  0.00  0.00    +0.000 A 
ATOM     26  N   UNL     1      45.974   1.436   8.072  0.00  0.00    +0.000 NA
ATOM     27  C   UNL     1      45.452   2.080   9.147  0.00  0.00    +0.000 A 
ENDBRANCH  20  22
ENDBRANCH   1  15
TORSDOF 4
ENDMDL
