MODEL 1
REMARK VINA RESULT:    -9.223      0.000      0.000
REMARK INTER + INTRA:         -12.286
REMARK INTER:                 -11.380
REMARK INTRA:                  -0.906
REMARK UNBOUND:                -0.906
REMARK  Name = 
REMARK  4 active torsions:
REMARK  status: ('A' for Active; 'I' for Inactive)
REMARK    1  A    between atoms: C_2  and  C_4
REMARK    2  A    between atoms: N_8  and  C_9
REMARK    3  A    between atoms: C_9  and  C_10
REMARK    4  A    between atoms: C_14  and  C_15
REMARK                            x       y       z     vdW  Elec       q    Type
REMARK                         _______ _______ _______ _____ _____    ______ ____
ROOT
ATOM      1  C   UNL     1      43.484   4.865  11.060  0.00  0.00    +0.000 C 
ENDROOT
BRANCH   1   6
ATOM      2  C   UNL     1      46.367   2.280   7.692  0.00  0.00    +0.000 A 
ATOM      3  C   UNL     1      45.636   1.790   8.770  0.00  0.00    +0.000 A 
ATOM      4  C   UNL     1      44.786   2.654   9.462  0.00  0.00    +0.000 A 
ATOM      5  C   UNL     1      44.690   3.988   9.077  0.00  0.00    +0.000 A 
ATOM      6  N   UNL     1      43.832   4.890   9.656  0.00  0.00    +0.000 N 
ATOM      7  N   UNL     1      45.402   4.472   8.040  0.00  0.00    +0.000 NA
ATOM      8  C   UNL     1      46.227   3.622   7.378  0.00  0.00    +0.000 A 
ATOM      9  H   UNL     1      43.992   5.812   9.261  0.00  0.00    +0.000 HD
BRANCH   2  11
ATOM     10  N   UNL     1      48.410   2.045   6.398  0.00  0.00    +0.000 N 
ATOM     11  C   UNL     1      47.286   1.445   6.896  0.00  0.00    +0.000 C 
ATOM     12  O   UNL     1      47.069   0.252   6.712  0.00  0.00    +0.000 OA
ATOM     13  H   UNL     1      49.077   1.434   5.943  0.00  0.00    +0.000 HD
ATOM     14  H   UNL     1      48.746   2.934   6.738  0.00  0.00    +0.000 HD
ENDBRANCH   2  11
ENDBRANCH   1   6
BRANCH   1  15
ATOM     15  C   UNL     1      44.631   5.113  12.019  0.00  0.00    +0.000 A 
ATOM     16  C   UNL     1      45.115   4.176  12.936  0.00  0.00    +0.000 A 
ATOM     17  C   UNL     1      46.209   4.485  13.744  0.00  0.00    +0.000 A 
ATOM     18  C   UNL     1      46.847   5.722  13.628  0.00  0.00    +0.000 A 
ATOM     19  C   UNL     1      46.422   6.677  12.690  0.00  0.00    +0.000 A 
ATOM     20  C   UNL     1      45.282   6.360  11.928  0.00  0.00    +0.000 A 
BRANCH  19  21
ATOM     21  C   UNL     1      47.204   7.906  12.416  0.00  0.00    +0.000 A 
ATOM     22  C   UNL     1      48.544   7.818  11.987  0.00  0.00    +0.000 A 
ATOM     23  C   UNL     1      49.272   8.949  11.603  0.00  0.00    +0.000 A 
ATOM     24  C   UNL     1      48.671  10.200  11.636  0.00  0.00    +0.000 A 
ATOM     25  C   UNL     1      47.358  10.310  12.072  0.00  0.00    +0.000 A 
ATOM     26  F   UNL     1      46.769  11.516  12.089  0.00  0.00    +0.000 F 
ATOM     27  C   UNL     1      46.631   9.189  12.472  0.00  0.00    +0.000 A 
ENDBRANCH  19  21
ENDBRANCH   1  15
TORSDOF 4
ENDMDL
MODEL 2
REMARK VINA RESULT:    -8.272      2.938      4.321
REMARK INTER + INTRA:         -11.112
REMARK INTER:                 -10.316
REMARK INTRA:                  -0.796
REMARK UNBOUND:                -0.906
REMARK  Name = 
REMARK  4 active torsions:
REMARK  status: ('A' for Active; 'I' for Inactive)
REMARK    1  A    between atoms: C_2  and  C_4
REMARK    2  A    between atoms: N_8  and  C_9
REMARK    3  A    between atoms: C_9  and  C_10
REMARK    4  A    between atoms: C_14  and  C_15
REMARK                            x       y       z     vdW  Elec       q    Type
REMARK                         _______ _______ _______ _____ _____    ______ ____
ROOT
ATOM      1  C   UNL     1      44.563   4.975  11.586  0.00  0.00    +0.000 C 
ENDROOT
BRANCH   1   6
ATOM      2  C   UNL     1      46.481   2.523   7.506  0.00  0.00    +0.000 A 
ATOM      3  C   UNL     1      46.046   1.993   8.716  0.00  0.00    +0.000 A 
ATOM      4  C   UNL     1      45.405   2.827   9.632  0.00  0.00    +0.000 A 
ATOM      5  C   UNL     1      45.220   4.174   9.332  0.00  0.00    +0.000 A 
ATOM      6  N   UNL     1      44.541   5.051  10.142  0.00  0.00    +0.000 N 
ATOM      7  N   UNL     1      45.646   4.697   8.165  0.00  0.00    +0.000 NA
ATOM      8  C   UNL     1      46.271   3.875   7.285  0.00  0.00    +0.000 A 
ATOM      9  H   UNL     1      44.600   5.987   9.752  0.00  0.00    +0.000 HD
BRANCH   2  11
ATOM     10  N   UNL     1      47.915   2.393   5.550  0.00  0.00    +0.000 N 
ATOM     11  C   UNL     1      47.163   1.722   6.473  0.00  0.00    +0.000 C 
ATOM     12  O   UNL     1      47.085   0.498   6.458  0.00  0.00    +0.000 OA
ATOM     13  H   UNL     1      48.456   1.822   4.913  0.00  0.00    +0.000 HD
ATOM     14  H   UNL     1      48.208   3.351   5.680  0.00  0.00    +0.000 HD
ENDBRANCH   2  11
ENDBRANCH   1   6
BRANCH   1  15
ATOM     15  C   UNL     1      45.762   5.616  12.254  0.00  0.00    +0.000 A 
ATOM     16  C   UNL     1      46.371   6.799  11.826  0.00  0.00    +0.000 A 
ATOM     17  C   UNL     1      47.443   7.334  12.538  0.00  0.00    +0.000 A 
ATOM     18  C   UNL     1      47.902   6.711  13.701  0.00  0.00    +0.000 A 
ATOM     19  C   UNL     1      47.293   5.545  14.192  0.00  0.00    +0.000 A 
ATOM     20  C   UNL     1      46.251   4.996  13.423  0.00  0.00    +0.000 A 
BRANCH  19  21
ATOM     21  C   UNL     1      47.635   4.984  15.521  0.00  0.00    +0.000 A 
ATOM     22  C   UNL     1      48.473   5.698  16.402  0.00  0.00    +0.000 A 
ATOM     23  C   UNL     1      48.718   5.259  17.707  0.00  0.00    +0.000 A 
ATOM     24  C   UNL     1      48.123   4.091  18.165  0.00  0.00    +0.000 A 
ATOM     25  C   UNL     1      47.309   3.364  17.307  0.00  0.00    +0.000 A 
ATOM     26  F   UNL     1      46.720   2.244  17.752  0.00  0.00    +0.000 F 
ATOM     27  C   UNL     1      47.073   3.787  16.000  0.00  0.00    +0.000 A 
ENDBRANCH  19  21
ENDBRANCH   1  15
TORSDOF 4
ENDMDL
MODEL 3
REMARK VINA RESULT:    -8.056      4.428      7.401
REMARK INTER + INTRA:         -10.845
REMARK INTER:                 -10.610
REMARK INTRA:                  -0.235
REMARK UNBOUND:                -0.906
REMARK  Name = 
REMARK  4 active torsions:
REMARK  status: ('A' for Active; 'I' for Inactive)
REMARK    1  A    between atoms: C_2  and  C_4
REMARK    2  A    between atoms: N_8  and  C_9
REMARK    3  A    between atoms: C_9  and  C_10
REMARK    4  A    between atoms: C_14  and  C_15
REMARK                            x       y       z     vdW  Elec       q    Type
REMARK                         _______ _______ _______ _____ _____    ______ ____
ROOT
ATOM      1  C   UNL     1      46.117   7.375  11.713  0.00  0.00    +0.000 C 
ENDROOT
BRANCH   1   6
ATOM      2  C   UNL     1      47.437   4.475  15.735  0.00  0.00    +0.000 A 
ATOM      3  C   UNL     1      46.410   4.277  14.818  0.00  0.00    +0.000 A 
ATOM      4  C   UNL     1      46.330   5.106  13.699  0.00  0.00    +0.000 A 
ATOM      5  C   UNL     1      47.264   6.123  13.521  0.00  0.00    +0.000 A 
ATOM      6  N   UNL     1      47.302   6.942  12.419  0.00  0.00    +0.000 N 
ATOM      7  N   UNL     1      48.256   6.327  14.410  0.00  0.00    +0.000 NA
ATOM      8  C   UNL     1      48.320   5.515  15.496  0.00  0.00    +0.000 A 
ATOM      9  H   UNL     1      48.019   7.649  12.547  0.00  0.00    +0.000 HD
BRANCH   2  11
ATOM     10  N   UNL     1      48.836   3.658  17.545  0.00  0.00    +0.000 N 
ATOM     11  C   UNL     1      47.608   3.647  16.944  0.00  0.00    +0.000 C 
ATOM     12  O   UNL     1      46.678   2.999  17.412  0.00  0.00    +0.000 OA
ATOM     13  H   UNL     1      48.906   3.167  18.428  0.00  0.00    +0.000 HD
ATOM     14  H   UNL     1      49.532   4.362  17.347  0.00  0.00    +0.000 HD
ENDBRANCH   2  11
ENDBRANCH   1   6
BRANCH   1  15
ATOM     15  C   UNL     1      45.212   6.266  11.217  0.00  0.00    +0.000 A 
ATOM     16  C   UNL     1      43.849   6.164  11.507  0.00  0.00    +0.000 A 
ATOM     17  C   UNL     1      43.091   5.129  10.961  0.00  0.00    +0.000 A 
ATOM     18  C   UNL     1      43.678   4.200  10.099  0.00  0.00    +0.000 A 
ATOM     19  C   UNL     1      45.034   4.289   9.745  0.00  0.00    +0.000 A 
ATOM     20  C   UNL     1      45.787   5.309  10.355  0.00  0.00    +0.000 A 
BRANCH  19  21
ATOM     21  C   UNL     1      45.624   3.437   8.685  0.00  0.00    +0.000 A 
ATOM     22  C   UNL     1      46.278   4.023   7.581  0.00  0.00    +0.000 A 
ATOM     23  C   UNL     1      46.950   3.252   6.628  0.00  0.00    +0.000 A 
ATOM     24  C   UNL     1      46.987   1.871   6.758  0.00  0.00    +0.000 A 
ATOM     25  C   UNL     1      46.334   1.274   7.828  0.00  0.00    +0.000 A 
ATOM     26  F   UNL     1      46.382  -0.060   7.966  0.00  0.00    +0.000 F 
ATOM     27  C   UNL     1      45.648   2.034   8.774  0.00  0.00    +0.000 A 
ENDBRANCH  19  21
ENDBRANCH   1  15
TORSDOF 4
ENDMDL
MODEL 4
REMARK VINA RESULT:    -8.012      5.365      8.141
REMARK INTER + INTRA:         -10.792
REMARK INTER:                 -10.236
REMARK INTRA:                  -0.556
REMARK UNBOUND:                -0.906
REMARK  Name = 
REMARK  4 active torsions:
REMARK  status: ('A' for Active; 'I' for Inactive)
REMARK    1  A    between atoms: C_2  and  C_4
REMARK    2  A    between atoms: N_8  and  C_9
REMARK    3  A    between atoms: C_9  and  C_10
REMARK    4  A    between atoms: C_14  and  C_15
REMARK                            x       y       z     vdW  Elec       q    Type
REMARK                         _______ _______ _______ _____ _____    ______ ____
ROOT
ATOM      1  C   UNL     1      46.126   5.353  13.854  0.00  0.00    +0.000 C 
ENDROOT
BRANCH   1   6
ATOM      2  C   UNL     1      49.556   3.964  17.409  0.00  0.00    +0.000 A 
ATOM      3  C   UNL     1      49.123   5.242  17.069  0.00  0.00    +0.000 A 
ATOM      4  C   UNL     1      48.056   5.382  16.181  0.00  0.00    +0.000 A 
ATOM      5  C   UNL     1      47.452   4.251  15.639  0.00  0.00    +0.000 A 
ATOM      6  N   UNL     1      46.356   4.293  14.811  0.00  0.00    +0.000 N 
ATOM      7  N   UNL     1      47.872   3.011  15.956  0.00  0.00    +0.000 NA
ATOM      8  C   UNL     1      48.913   2.889  16.819  0.00  0.00    +0.000 A 
ATOM      9  H   UNL     1      46.142   3.355  14.486  0.00  0.00    +0.000 HD
BRANCH   2  11
ATOM     10  N   UNL     1      51.409   2.579  18.152  0.00  0.00    +0.000 N 
ATOM     11  C   UNL     1      50.670   3.714  18.343  0.00  0.00    +0.000 C 
ATOM     12  O   UNL     1      50.945   4.506  19.238  0.00  0.00    +0.000 OA
ATOM     13  H   UNL     1      52.229   2.476  18.736  0.00  0.00    +0.000 HD
ATOM     14  H   UNL     1      51.379   2.050  17.292  0.00  0.00    +0.000 HD
ENDBRANCH   2  11
ENDBRANCH   1   6
BRANCH   1  15
ATOM     15  C   UNL     1      45.100   5.051  12.782  0.00  0.00    +0.000 A 
ATOM     16  C   UNL     1      43.780   5.511  12.793  0.00  0.00    +0.000 A 
ATOM     17  C   UNL     1      42.925   5.216  11.733  0.00  0.00    +0.000 A 
ATOM     18  C   UNL     1      43.383   4.482  10.636  0.00  0.00    +0.000 A 
ATOM     19  C   UNL     1      44.713   4.037  10.562  0.00  0.00    +0.000 A 
ATOM     20  C   UNL     1      45.538   4.299  11.671  0.00  0.00    +0.000 A 
BRANCH  19  21
ATOM     21  C   UNL     1      45.268   3.433   9.327  0.00  0.00    +0.000 A 
ATOM     22  C   UNL     1      45.770   4.253   8.296  0.00  0.00    +0.000 A 
ATOM     23  C   UNL     1      46.411   3.718   7.174  0.00  0.00    +0.000 A 
ATOM     24  C   UNL     1      46.567   2.344   7.057  0.00  0.00    +0.000 A 
ATOM     25  C   UNL     1      46.063   1.518   8.053  0.00  0.00    +0.000 A 
ATOM     26  F   UNL     1      46.228   0.190   7.952  0.00  0.00    +0.000 F 
ATOM     27  C   UNL     1      45.409   2.043   9.168  0.00  0.00    +0.000 A 
ENDBRANCH  19  21
ENDBRANCH   1  15
TORSDOF 4
ENDMDL
MODEL 5
REMARK VINA RESULT:    -7.909      2.860      3.733
REMARK INTER + INTRA:         -10.664
REMARK INTER:                 -10.011
REMARK INTRA:                  -0.654
REMARK UNBOUND:                -0.906
REMARK  Name = 
REMARK  4 active torsions:
REMARK  status: ('A' for Active; 'I' for Inactive)
REMARK    1  A    between atoms: C_2  and  C_4
REMARK    2  A    between atoms: N_8  and  C_9
REMARK    3  A    between atoms: C_9  and  C_10
REMARK    4  A    between atoms: C_14  and  C_15
REMARK                            x       y       z     vdW  Elec       q    Type
REMARK                         _______ _______ _______ _____ _____    ______ ____
ROOT
ATOM      1  C   UNL     1      43.635   3.565  11.135  0.00  0.00    +0.000 C 
ENDROOT
BRANCH   1   6
ATOM      2  C   UNL     1      46.698   2.490   7.161  0.00  0.00    +0.000 A 
ATOM      3  C   UNL     1      46.445   3.720   7.758  0.00  0.00    +0.000 A 
ATOM      4  C   UNL     1      45.701   3.762   8.937  0.00  0.00    +0.000 A 
ATOM      5  C   UNL     1      45.213   2.583   9.492  0.00  0.00    +0.000 A 
ATOM      6  N   UNL     1      44.530   2.523  10.682  0.00  0.00    +0.000 N 
ATOM      7  N   UNL     1      45.445   1.387   8.915  0.00  0.00    +0.000 NA
ATOM      8  C   UNL     1      46.168   1.361   7.765  0.00  0.00    +0.000 A 
ATOM      9  H   UNL     1      44.213   1.572  10.844  0.00  0.00    +0.000 HD
BRANCH   2  11
ATOM     10  N   UNL     1      47.214   3.217   4.901  0.00  0.00    +0.000 N 
ATOM     11  C   UNL     1      47.478   2.342   5.918  0.00  0.00    +0.000 C 
ATOM     12  O   UNL     1      48.351   1.488   5.809  0.00  0.00    +0.000 OA
ATOM     13  H   UNL     1      47.827   3.166   4.098  0.00  0.00    +0.000 HD
ATOM     14  H   UNL     1      46.701   4.075   5.043  0.00  0.00    +0.000 HD
ENDBRANCH   2  11
ENDBRANCH   1   6
BRANCH   1  15
ATOM     15  C   UNL     1      44.306   4.833  11.622  0.00  0.00    +0.000 A 
ATOM     16  C   UNL     1      43.892   6.127  11.292  0.00  0.00    +0.000 A 
ATOM     17  C   UNL     1      44.548   7.233  11.831  0.00  0.00    +0.000 A 
ATOM     18  C   UNL     1      45.608   7.061  12.725  0.00  0.00    +0.000 A 
ATOM     19  C   UNL     1      46.029   5.780  13.118  0.00  0.00    +0.000 A 
ATOM     20  C   UNL     1      45.386   4.683  12.516  0.00  0.00    +0.000 A 
BRANCH  19  21
ATOM     21  C   UNL     1      47.012   5.581  14.210  0.00  0.00    +0.000 A 
ATOM     22  C   UNL     1      47.996   6.558  14.470  0.00  0.00    +0.000 A 
ATOM     23  C   UNL     1      48.860   6.461  15.565  0.00  0.00    +0.000 A 
ATOM     24  C   UNL     1      48.757   5.383  16.433  0.00  0.00    +0.000 A 
ATOM     25  C   UNL     1      47.806   4.402  16.184  0.00  0.00    +0.000 A 
ATOM     26  F   UNL     1      47.693   3.367  17.031  0.00  0.00    +0.000 F 
ATOM     27  C   UNL     1      46.952   4.483  15.085  0.00  0.00    +0.000 A 
ENDBRANCH  19  21
ENDBRANCH   1  15
TORSDOF 4
ENDMDL
MODEL 6
REMARK VINA RESULT:    -7.888      4.393      7.377
REMARK INTER + INTRA:         -10.638
REMARK INTER:                  -9.975
REMARK INTRA:                  -0.664
REMARK UNBOUND:                -0.906
REMARK  Name = 
REMARK  4 active torsions:
REMARK  status: ('A' for Active; 'I' for Inactive)
REMARK    1  A    between atoms: C_2  and  C_4
REMARK    2  A    between atoms: N_8  and  C_9
REMARK    3  A    between atoms: C_9  and  C_10
REMARK    4  A    between atoms: C_14  and  C_15
REMARK                            x       y       z     vdW  Elec       q    Type
REMARK                         _______ _______ _______ _____ _____    ______ ____
ROOT
ATOM      1  C   UNL     1      44.247   6.712  11.424  0.00  0.00    +0.000 C 
ENDROOT
BRANCH   1   6
ATOM      2  C   UNL     1      48.529   7.009  14.235  0.00  0.00    +0.000 A 
ATOM      3  C   UNL     1      47.636   5.950  14.117  0.00  0.00    +0.000 A 
ATOM      4  C   UNL     1      46.619   6.022  13.165  0.00  0.00    +0.000 A 
ATOM      5  C   UNL     1      46.502   7.151  12.359  0.00  0.00    +0.000 A 
ATOM      6  N   UNL     1      45.576   7.279  11.353  0.00  0.00    +0.000 N 
ATOM      7  N   UNL     1      47.358   8.185  12.473  0.00  0.00    +0.000 NA
ATOM      8  C   UNL     1      48.341   8.103  13.406  0.00  0.00    +0.000 A 
ATOM      9  H   UNL     1      45.634   8.211  10.956  0.00  0.00    +0.000 HD
BRANCH   2  11
ATOM     10  N   UNL     1      50.875   7.384  14.744  0.00  0.00    +0.000 N 
ATOM     11  C   UNL     1      49.640   7.024  15.206  0.00  0.00    +0.000 C 
ATOM     12  O   UNL     1      49.459   6.754  16.388  0.00  0.00    +0.000 OA
ATOM     13  H   UNL     1      51.601   7.487  15.442  0.00  0.00    +0.000 HD
ATOM     14  H   UNL     1      51.009   7.853  13.860  0.00  0.00    +0.000 HD
ENDBRANCH   2  11
ENDBRANCH   1   6
BRANCH   1  15
ATOM     15  C   UNL     1      44.165   5.215  11.210  0.00  0.00    +0.000 A 
ATOM     16  C   UNL     1      43.316   4.357  11.915  0.00  0.00    +0.000 A 
ATOM     17  C   UNL     1      43.281   2.997  11.611  0.00  0.00    +0.000 A 
ATOM     18  C   UNL     1      44.073   2.481  10.582  0.00  0.00    +0.000 A 
ATOM     19  C   UNL     1      44.908   3.313   9.819  0.00  0.00    +0.000 A 
ATOM     20  C   UNL     1      44.966   4.670  10.184  0.00  0.00    +0.000 A 
BRANCH  19  21
ATOM     21  C   UNL     1      45.601   2.822   8.603  0.00  0.00    +0.000 A 
ATOM     22  C   UNL     1      46.024   3.728   7.608  0.00  0.00    +0.000 A 
ATOM     23  C   UNL     1      46.786   3.316   6.511  0.00  0.00    +0.000 A 
ATOM     24  C   UNL     1      47.147   1.981   6.383  0.00  0.00    +0.000 A 
ATOM     25  C   UNL     1      46.724   1.071   7.342  0.00  0.00    +0.000 A 
ATOM     26  F   UNL     1      47.086  -0.217   7.230  0.00  0.00    +0.000 F 
ATOM     27  C   UNL     1      45.951   1.471   8.431  0.00  0.00    +0.000 A 
ENDBRANCH  19  21
ENDBRANCH   1  15
TORSDOF 4
ENDMDL
MODEL 7
REMARK VINA RESULT:    -7.693      4.173      7.134
REMARK INTER + INTRA:         -10.399
REMARK INTER:                  -9.550
REMARK INTRA:                  -0.848
REMARK UNBOUND:                -0.906
REMARK  Name = 
REMARK  4 active torsions:
REMARK  status: ('A' for Active; 'I' for Inactive)
REMARK    1  A    between atoms: C_2  and  C_4
REMARK    2  A    between atoms: N_8  and  C_9
REMARK    3  A    between atoms: C_9  and  C_10
REMARK    4  A    between atoms: C_14  and  C_15
REMARK                            x       y       z     vdW  Elec       q    Type
REMARK                         _______ _______ _______ _____ _____    ______ ____
ROOT
ATOM      1  C   UNL     1      45.731   4.753  13.971  0.00  0.00    +0.000 C 
ENDROOT
BRANCH   1   6
ATOM      2  C   UNL     1      48.405   8.691  12.054  0.00  0.00    +0.000 A 
ATOM      3  C   UNL     1      47.193   8.711  12.736  0.00  0.00    +0.000 A 
ATOM      4  C   UNL     1      46.721   7.533  13.316  0.00  0.00    +0.000 A 
ATOM      5  C   UNL     1      47.457   6.358  13.197  0.00  0.00    +0.000 A 
ATOM      6  N   UNL     1      47.104   5.171  13.791  0.00  0.00    +0.000 N 
ATOM      7  N   UNL     1      48.628   6.329  12.530  0.00  0.00    +0.000 NA
ATOM      8  C   UNL     1      49.074   7.481  11.967  0.00  0.00    +0.000 A 
ATOM      9  H   UNL     1      47.750   4.442  13.502  0.00  0.00    +0.000 HD
BRANCH   2  11
ATOM     10  N   UNL     1      50.343   9.898  11.223  0.00  0.00    +0.000 N 
ATOM     11  C   UNL     1      48.989   9.884  11.413  0.00  0.00    +0.000 C 
ATOM     12  O   UNL     1      48.286  10.816  11.036  0.00  0.00    +0.000 OA
ATOM     13  H   UNL     1      50.712  10.676  10.691  0.00  0.00    +0.000 HD
ATOM     14  H   UNL     1      50.908   9.063  11.280  0.00  0.00    +0.000 HD
ENDBRANCH   2  11
ENDBRANCH   1   6
BRANCH   1  15
ATOM     15  C   UNL     1      44.876   4.770  12.721  0.00  0.00    +0.000 A 
ATOM     16  C   UNL     1      43.702   5.514  12.571  0.00  0.00    +0.000 A 
ATOM     17  C   UNL     1      43.011   5.499  11.361  0.00  0.00    +0.000 A 
ATOM     18  C   UNL     1      43.496   4.763  10.277  0.00  0.00    +0.000 A 
ATOM     19  C   UNL     1      44.693   4.036  10.369  0.00  0.00    +0.000 A 
ATOM     20  C   UNL     1      45.340   4.023  11.618  0.00  0.00    +0.000 A 
BRANCH  19  21
ATOM     21  C   UNL     1      45.323   3.414   9.179  0.00  0.00    +0.000 A 
ATOM     22  C   UNL     1      45.859   4.220   8.153  0.00  0.00    +0.000 A 
ATOM     23  C   UNL     1      46.567   3.673   7.079  0.00  0.00    +0.000 A 
ATOM     24  C   UNL     1      46.760   2.300   7.007  0.00  0.00    +0.000 A 
ATOM     25  C   UNL     1      46.225   1.488   7.997  0.00  0.00    +0.000 A 
ATOM     26  F   UNL     1      46.425   0.163   7.940  0.00  0.00    +0.000 F 
ATOM     27  C   UNL     1      45.505   2.025   9.063  0.00  0.00    +0.000 A 
ENDBRANCH  19  21
ENDBRANCH   1  15
TORSDOF 4
ENDMDL
MODEL 8
REMARK VINA RESULT:    -7.576      2.414      3.197
REMARK INTER + INTRA:         -10.254
REMARK INTER:                  -9.615
REMARK INTRA:                  -0.639
REMARK UNBOUND:                -0.906
REMARK  Name = 
REMARK  4 active torsions:
REMARK  status: ('A' for Active; 'I' for Inactive)
REMARK    1  A    between atoms: C_2  and  C_4
REMARK    2  A    between atoms: N_8  and  C_9
REMARK    3  A    between atoms: C_9  and  C_10
REMARK    4  A    between atoms: C_14  and  C_15
REMARK                            x       y       z     vdW  Elec       q    Type
REMARK                         _______ _______ _______ _____ _____    ______ ____
ROOT
ATOM      1  C   UNL     1      44.673   5.530  11.112  0.00  0.00    +0.000 C 
ENDROOT
BRANCH   1   6
ATOM      2  C   UNL     1      46.619   2.376   7.563  0.00  0.00    +0.000 A 
ATOM      3  C   UNL     1      45.921   2.057   8.723  0.00  0.00    +0.000 A 
ATOM      4  C   UNL     1      45.336   3.083   9.467  0.00  0.00    +0.000 A 
ATOM      5  C   UNL     1      45.469   4.405   9.050  0.00  0.00    +0.000 A 
ATOM      6  N   UNL     1      44.872   5.468   9.681  0.00  0.00    +0.000 N 
ATOM      7  N   UNL     1      46.152   4.722   7.933  0.00  0.00    +0.000 NA
ATOM      8  C   UNL     1      46.719   3.715   7.220  0.00  0.00    +0.000 A 
ATOM      9  H   UNL     1      45.171   6.334   9.242  0.00  0.00    +0.000 HD
BRANCH   2  11
ATOM     10  N   UNL     1      48.246   1.792   5.856  0.00  0.00    +0.000 N 
ATOM     11  C   UNL     1      47.266   1.363   6.708  0.00  0.00    +0.000 C 
ATOM     12  O   UNL     1      46.961   0.178   6.778  0.00  0.00    +0.000 OA
ATOM     13  H   UNL     1      48.748   1.071   5.353  0.00  0.00    +0.000 HD
ATOM     14  H   UNL     1      48.695   2.692   5.953  0.00  0.00    +0.000 HD
ENDBRANCH   2  11
ENDBRANCH   1   6
BRANCH   1  15
ATOM     15  C   UNL     1      45.307   6.718  11.807  0.00  0.00    +0.000 A 
ATOM     16  C   UNL     1      44.756   8.002  11.845  0.00  0.00    +0.000 A 
ATOM     17  C   UNL     1      45.395   9.019  12.553  0.00  0.00    +0.000 A 
ATOM     18  C   UNL     1      46.577   8.761  13.252  0.00  0.00    +0.000 A 
ATOM     19  C   UNL     1      47.143   7.476  13.277  0.00  0.00    +0.000 A 
ATOM     20  C   UNL     1      46.508   6.483  12.508  0.00  0.00    +0.000 A 
BRANCH  19  21
ATOM     21  C   UNL     1      48.278   7.139  14.168  0.00  0.00    +0.000 A 
ATOM     22  C   UNL     1      49.535   7.754  13.986  0.00  0.00    +0.000 A 
ATOM     23  C   UNL     1      50.591   7.553  14.881  0.00  0.00    +0.000 A 
ATOM     24  C   UNL     1      50.413   6.731  15.985  0.00  0.00    +0.000 A 
ATOM     25  C   UNL     1      49.189   6.103  16.172  0.00  0.00    +0.000 A 
ATOM     26  F   UNL     1      49.009   5.322  17.248  0.00  0.00    +0.000 F 
ATOM     27  C   UNL     1      48.137   6.286  15.276  0.00  0.00    +0.000 A 
ENDBRANCH  19  21
ENDBRANCH   1  15
TORSDOF 4
ENDMDL
MODEL 9
REMARK VINA RESULT:    -7.450      2.269      2.784
REMARK INTER + INTRA:         -10.098
REMARK INTER:                  -9.346
REMARK INTRA:                  -0.752
REMARK UNBOUND:                -0.906
REMARK  Name = 
REMARK  4 active torsions:
REMARK  status: ('A' for Active; 'I' for Inactive)
REMARK    1  A    between atoms: C_2  and  C_4
REMARK    2  A    between atoms: N_8  and  C_9
REMARK    3  A    between atoms: C_9  and  C_10
REMARK    4  A    between atoms: C_14  and  C_15
REMARK                            x       y       z     vdW  Elec       q    Type
REMARK                         _______ _______ _______ _____ _____    ______ ____
ROOT
ATOM      1  C   UNL     1      43.605   4.073  11.246  0.00  0.00    +0.000 C 
ENDROOT
BRANCH   1   6
ATOM      2  C   UNL     1      46.583   2.551   7.354  0.00  0.00    +0.000 A 
ATOM      3  C   UNL     1      46.474   3.815   7.925  0.00  0.00    +0.000 A 
ATOM      4  C   UNL     1      45.719   3.972   9.088  0.00  0.00    +0.000 A 
ATOM      5  C   UNL     1      45.079   2.872   9.652  0.00  0.00    +0.000 A 
ATOM      6  N   UNL     1      44.373   2.920  10.829  0.00  0.00    +0.000 N 
ATOM      7  N   UNL     1      45.172   1.646   9.100  0.00  0.00    +0.000 NA
ATOM      8  C   UNL     1      45.907   1.509   7.967  0.00  0.00    +0.000 A 
ATOM      9  H   UNL     1      43.937   2.019  11.000  0.00  0.00    +0.000 HD
BRANCH   2  11
ATOM     10  N   UNL     1      47.186   3.135   5.075  0.00  0.00    +0.000 N 
ATOM     11  C   UNL     1      47.362   2.284   6.130  0.00  0.00    +0.000 C 
ATOM     12  O   UNL     1      48.160   1.355   6.070  0.00  0.00    +0.000 OA
ATOM     13  H   UNL     1      47.802   2.998   4.283  0.00  0.00    +0.000 HD
ATOM     14  H   UNL     1      46.747   4.039   5.173  0.00  0.00    +0.000 HD
ENDBRANCH   2  11
ENDBRANCH   1   6
BRANCH   1  15
ATOM     15  C   UNL     1      44.402   5.185  11.897  0.00  0.00    +0.000 A 
ATOM     16  C   UNL     1      45.483   4.987  12.760  0.00  0.00    +0.000 A 
ATOM     17  C   UNL     1      46.184   6.079  13.271  0.00  0.00    +0.000 A 
ATOM     18  C   UNL     1      45.830   7.380  12.906  0.00  0.00    +0.000 A 
ATOM     19  C   UNL     1      44.778   7.625  12.008  0.00  0.00    +0.000 A 
ATOM     20  C   UNL     1      44.054   6.508  11.553  0.00  0.00    +0.000 A 
BRANCH  19  21
ATOM     21  C   UNL     1      44.518   8.977  11.458  0.00  0.00    +0.000 A 
ATOM     22  C   UNL     1      45.400  10.042  11.736  0.00  0.00    +0.000 A 
ATOM     23  C   UNL     1      45.254  11.296  11.137  0.00  0.00    +0.000 A 
ATOM     24  C   UNL     1      44.219  11.516  10.238  0.00  0.00    +0.000 A 
ATOM     25  C   UNL     1      43.329  10.486   9.965  0.00  0.00    +0.000 A 
ATOM     26  F   UNL     1      42.338  10.689   9.084  0.00  0.00    +0.000 F 
ATOM     27  C   UNL     1      43.459   9.236  10.570  0.00  0.00    +0.000 A 
ENDBRANCH  19  21
ENDBRANCH   1  15
TORSDOF 4
ENDMDL
