MODEL 1
REMARK VINA RESULT:    -9.176      0.000      0.000
REMARK INTER + INTRA:         -13.228
REMARK INTER:                 -12.395
REMARK INTRA:                  -0.833
REMARK UNBOUND:                -0.833
REMARK  Name = 
REMARK  6 active torsions:
REMARK  status: ('A' for Active; 'I' for Inactive)
REMARK    1  A    between atoms: C_2  and  C_4
REMARK    2  A    between atoms: C_7  and  N_8
REMARK    3  A    between atoms: N_8  and  C_9
REMARK    4  A    between atoms: C_9  and  C_10
REMARK    5  A    between atoms: C_10  and  C_13
REMARK    6  A    between atoms: C_15  and  C_16
REMARK                            x       y       z     vdW  Elec       q    Type
REMARK                         _______ _______ _______ _____ _____    ______ ____
ROOT
ATOM      1  C   UNL     1      43.289   5.003  12.547  0.00  0.00    +0.000 C 
ATOM      2  F   UNL     1      42.605   6.155  12.277  0.00  0.00    +0.000 F 
ATOM      3  F   UNL     1      42.606   4.422  13.587  0.00  0.00    +0.000 F 
ENDROOT
BRANCH   1   4
ATOM      4  C   UNL     1      44.747   5.279  12.898  0.00  0.00    +0.000 A 
ATOM      5  C   UNL     1      45.347   6.465  12.467  0.00  0.00    +0.000 A 
ATOM      6  C   UNL     1      46.698   6.721  12.753  0.00  0.00    +0.000 A 
ATOM      7  C   UNL     1      47.391   5.737  13.470  0.00  0.00    +0.000 A 
ATOM      8  C   UNL     1      46.732   4.586  13.867  0.00  0.00    +0.000 A 
ATOM      9  N   UNL     1      45.437   4.339  13.599  0.00  0.00    +0.000 NA
BRANCH   6  10
ATOM     10  C   UNL     1      47.370   7.966  12.311  0.00  0.00    +0.000 A 
ATOM     11  C   UNL     1      46.718   9.208  12.360  0.00  0.00    +0.000 A 
ATOM     12  C   UNL     1      47.393  10.353  11.961  0.00  0.00    +0.000 A 
ATOM     13  N   UNL     1      48.660  10.356  11.505  0.00  0.00    +0.000 NA
ATOM     14  C   UNL     1      49.279   9.161  11.449  0.00  0.00    +0.000 A 
ATOM     15  C   UNL     1      48.689   7.965  11.835  0.00  0.00    +0.000 A 
ENDBRANCH   6  10
ENDBRANCH   1   4
BRANCH   1  16
ATOM     16  C   UNL     1      43.195   4.050  11.333  0.00  0.00    +0.000 C 
BRANCH  16  17
ATOM     17  N   UNL     1      43.750   4.612  10.087  0.00  0.00    +0.000 N 
ATOM     18  H   UNL     1      43.086   5.136   9.520  0.00  0.00    +0.000 HD
BRANCH  17  22
ATOM     19  C   UNL     1      46.440   2.341   7.767  0.00  0.00    +0.000 A 
ATOM     20  C   UNL     1      46.417   3.729   7.626  0.00  0.00    +0.000 A 
ATOM     21  C   UNL     1      45.541   4.496   8.403  0.00  0.00    +0.000 A 
ATOM     22  C   UNL     1      44.699   3.905   9.353  0.00  0.00    +0.000 A 
ATOM     23  C   UNL     1      44.719   2.508   9.461  0.00  0.00    +0.000 A 
ATOM     24  C   UNL     1      45.574   1.728   8.675  0.00  0.00    +0.000 A 
BRANCH  19  26
ATOM     25  N   UNL     1      48.447   2.087   6.416  0.00  0.00    +0.000 N 
ATOM     26  C   UNL     1      47.336   1.490   6.943  0.00  0.00    +0.000 C 
ATOM     27  O   UNL     1      47.116   0.297   6.771  0.00  0.00    +0.000 OA
ATOM     28  H   UNL     1      49.105   1.473   5.953  0.00  0.00    +0.000 HD
ATOM     29  H   UNL     1      48.788   2.978   6.746  0.00  0.00    +0.000 HD
ENDBRANCH  19  26
ENDBRANCH  17  22
ENDBRANCH  16  17
ENDBRANCH   1  16
TORSDOF 6
ENDMDL
MODEL 2
REMARK VINA RESULT:    -8.958      1.844      3.570
REMARK INTER + INTRA:         -12.934
REMARK INTER:                 -11.961
REMARK INTRA:                  -0.972
REMARK UNBOUND:                -0.833
REMARK  Name = 
REMARK  6 active torsions:
REMARK  status: ('A' for Active; 'I' for Inactive)
REMARK    1  A    between atoms: C_2  and  C_4
REMARK    2  A    between atoms: C_7  and  N_8
REMARK    3  A    between atoms: N_8  and  C_9
REMARK    4  A    between atoms: C_9  and  C_10
REMARK    5  A    between atoms: C_10  and  C_13
REMARK    6  A    between atoms: C_15  and  C_16
REMARK                            x       y       z     vdW  Elec       q    Type
REMARK                         _______ _______ _______ _____ _____    ______ ____
ROOT
ATOM      1  C   UNL     1      43.452   4.964  12.547  0.00  0.00    +0.000 C 
ATOM      2  F   UNL     1      42.727   6.094  12.286  0.00  0.00    +0.000 F 
ATOM      3  F   UNL     1      42.857   4.411  13.655  0.00  0.00    +0.000 F 
ENDROOT
BRANCH   1   4
ATOM      4  C   UNL     1      44.926   5.279  12.781  0.00  0.00    +0.000 A 
ATOM      5  C   UNL     1      45.555   4.812  13.937  0.00  0.00    +0.000 A 
ATOM      6  C   UNL     1      46.902   5.121  14.185  0.00  0.00    +0.000 A 
ATOM      7  C   UNL     1      47.557   5.911  13.231  0.00  0.00    +0.000 A 
ATOM      8  C   UNL     1      46.871   6.338  12.107  0.00  0.00    +0.000 A 
ATOM      9  N   UNL     1      45.581   6.040  11.864  0.00  0.00    +0.000 NA
BRANCH   6  10
ATOM     10  C   UNL     1      47.603   4.645  15.402  0.00  0.00    +0.000 A 
ATOM     11  C   UNL     1      47.571   3.296  15.786  0.00  0.00    +0.000 A 
ATOM     12  C   UNL     1      48.264   2.889  16.918  0.00  0.00    +0.000 A 
ATOM     13  N   UNL     1      48.973   3.721  17.702  0.00  0.00    +0.000 NA
ATOM     14  C   UNL     1      48.993   5.018  17.336  0.00  0.00    +0.000 A 
ATOM     15  C   UNL     1      48.341   5.515  16.218  0.00  0.00    +0.000 A 
ENDBRANCH   6  10
ENDBRANCH   1   4
BRANCH   1  16
ATOM     16  C   UNL     1      43.289   3.965  11.378  0.00  0.00    +0.000 C 
BRANCH  16  17
ATOM     17  N   UNL     1      43.690   4.508  10.067  0.00  0.00    +0.000 N 
ATOM     18  H   UNL     1      42.928   4.895   9.512  0.00  0.00    +0.000 HD
BRANCH  17  22
ATOM     19  C   UNL     1      46.535   2.501   7.690  0.00  0.00    +0.000 A 
ATOM     20  C   UNL     1      46.457   3.893   7.635  0.00  0.00    +0.000 A 
ATOM     21  C   UNL     1      45.529   4.573   8.432  0.00  0.00    +0.000 A 
ATOM     22  C   UNL     1      44.686   3.889   9.319  0.00  0.00    +0.000 A 
ATOM     23  C   UNL     1      44.763   2.490   9.339  0.00  0.00    +0.000 A 
ATOM     24  C   UNL     1      45.671   1.797   8.531  0.00  0.00    +0.000 A 
BRANCH  19  26
ATOM     25  N   UNL     1      48.562   2.426   6.348  0.00  0.00    +0.000 N 
ATOM     26  C   UNL     1      47.487   1.741   6.840  0.00  0.00    +0.000 C 
ATOM     27  O   UNL     1      47.344   0.545   6.619  0.00  0.00    +0.000 OA
ATOM     28  H   UNL     1      49.261   1.874   5.867  0.00  0.00    +0.000 HD
ATOM     29  H   UNL     1      48.845   3.323   6.716  0.00  0.00    +0.000 HD
ENDBRANCH  19  26
ENDBRANCH  17  22
ENDBRANCH  16  17
ENDBRANCH   1  16
TORSDOF 6
ENDMDL
MODEL 3
REMARK VINA RESULT:    -8.663      1.528      2.361
REMARK INTER + INTRA:         -12.535
REMARK INTER:                 -11.355
REMARK INTRA:                  -1.181
REMARK UNBOUND:                -0.833
REMARK  Name = 
REMARK  6 active torsions:
REMARK  status: ('A' for Active; 'I' for Inactive)
REMARK    1  A    between atoms: C_2  and  C_4
REMARK    2  A    between atoms: C_7  and  N_8
REMARK    3  A    between atoms: N_8  and  C_9
REMARK    4  A    between atoms: C_9  and  C_10
REMARK    5  A    between atoms: C_10  and  C_13
REMARK    6  A    between atoms: C_15  and  C_16
REMARK                            x       y       z     vdW  Elec       q    Type
REMARK                         _______ _______ _______ _____ _____    ______ ____
ROOT
ATOM      1  C   UNL     1      44.659   4.600  12.367  0.00  0.00    +0.000 C 
ATOM      2  F   UNL     1      44.252   4.383  13.654  0.00  0.00    +0.000 F 
ATOM      3  F   UNL     1      45.591   3.621  12.123  0.00  0.00    +0.000 F 
ENDROOT
BRANCH   1   4
ATOM      4  C   UNL     1      45.233   6.001  12.183  0.00  0.00    +0.000 A 
ATOM      5  C   UNL     1      46.578   6.238  12.475  0.00  0.00    +0.000 A 
ATOM      6  C   UNL     1      47.115   7.529  12.343  0.00  0.00    +0.000 A 
ATOM      7  C   UNL     1      46.241   8.539  11.921  0.00  0.00    +0.000 A 
ATOM      8  C   UNL     1      44.919   8.231  11.649  0.00  0.00    +0.000 A 
ATOM      9  N   UNL     1      44.402   6.995  11.770  0.00  0.00    +0.000 NA
BRANCH   6  10
ATOM     10  C   UNL     1      48.538   7.820  12.644  0.00  0.00    +0.000 A 
ATOM     11  C   UNL     1      49.368   8.461  11.712  0.00  0.00    +0.000 A 
ATOM     12  C   UNL     1      50.687   8.738  12.045  0.00  0.00    +0.000 A 
ATOM     13  N   UNL     1      51.245   8.415  13.226  0.00  0.00    +0.000 NA
ATOM     14  C   UNL     1      50.448   7.790  14.114  0.00  0.00    +0.000 A 
ATOM     15  C   UNL     1      49.117   7.480  13.875  0.00  0.00    +0.000 A 
ENDBRANCH   6  10
ENDBRANCH   1   4
BRANCH   1  16
ATOM     16  C   UNL     1      43.472   4.369  11.403  0.00  0.00    +0.000 C 
BRANCH  16  17
ATOM     17  N   UNL     1      43.749   4.764  10.010  0.00  0.00    +0.000 N 
ATOM     18  H   UNL     1      42.965   5.195   9.522  0.00  0.00    +0.000 HD
BRANCH  17  22
ATOM     19  C   UNL     1      46.411   2.488   7.661  0.00  0.00    +0.000 A 
ATOM     20  C   UNL     1      45.493   1.834   8.485  0.00  0.00    +0.000 A 
ATOM     21  C   UNL     1      44.593   2.577   9.256  0.00  0.00    +0.000 A 
ATOM     22  C   UNL     1      44.564   3.977   9.200  0.00  0.00    +0.000 A 
ATOM     23  C   UNL     1      45.510   4.615   8.387  0.00  0.00    +0.000 A 
ATOM     24  C   UNL     1      46.430   3.884   7.628  0.00  0.00    +0.000 A 
BRANCH  19  26
ATOM     25  N   UNL     1      48.520   2.412   6.451  0.00  0.00    +0.000 N 
ATOM     26  C   UNL     1      47.400   1.737   6.848  0.00  0.00    +0.000 C 
ATOM     27  O   UNL     1      47.246   0.552   6.575  0.00  0.00    +0.000 OA
ATOM     28  H   UNL     1      49.236   1.860   5.996  0.00  0.00    +0.000 HD
ATOM     29  H   UNL     1      48.797   3.289   6.869  0.00  0.00    +0.000 HD
ENDBRANCH  19  26
ENDBRANCH  17  22
ENDBRANCH  16  17
ENDBRANCH   1  16
TORSDOF 6
ENDMDL
MODEL 4
REMARK VINA RESULT:    -7.804      2.038      2.478
REMARK INTER + INTRA:         -11.375
REMARK INTER:                 -10.779
REMARK INTRA:                  -0.595
REMARK UNBOUND:                -0.833
REMARK  Name = 
REMARK  6 active torsions:
REMARK  status: ('A' for Active; 'I' for Inactive)
REMARK    1  A    between atoms: C_2  and  C_4
REMARK    2  A    between atoms: C_7  and  N_8
REMARK    3  A    between atoms: N_8  and  C_9
REMARK    4  A    between atoms: C_9  and  C_10
REMARK    5  A    between atoms: C_10  and  C_13
REMARK    6  A    between atoms: C_15  and  C_16
REMARK                            x       y       z     vdW  Elec       q    Type
REMARK                         _______ _______ _______ _____ _____    ______ ____
ROOT
ATOM      1  C   UNL     1      45.130   6.221  11.667  0.00  0.00    +0.000 C 
ATOM      2  F   UNL     1      45.861   6.499  10.546  0.00  0.00    +0.000 F 
ATOM      3  F   UNL     1      44.404   7.362  11.908  0.00  0.00    +0.000 F 
ENDROOT
BRANCH   1   4
ATOM      4  C   UNL     1      46.023   5.847  12.846  0.00  0.00    +0.000 A 
ATOM      5  C   UNL     1      47.123   6.650  13.159  0.00  0.00    +0.000 A 
ATOM      6  C   UNL     1      47.975   6.303  14.220  0.00  0.00    +0.000 A 
ATOM      7  C   UNL     1      47.667   5.130  14.921  0.00  0.00    +0.000 A 
ATOM      8  C   UNL     1      46.560   4.383  14.557  0.00  0.00    +0.000 A 
ATOM      9  N   UNL     1      45.739   4.715  13.544  0.00  0.00    +0.000 NA
BRANCH   6  10
ATOM     10  C   UNL     1      49.153   7.128  14.581  0.00  0.00    +0.000 A 
ATOM     11  C   UNL     1      49.889   7.820  13.608  0.00  0.00    +0.000 A 
ATOM     12  C   UNL     1      50.969   8.603  13.992  0.00  0.00    +0.000 A 
ATOM     13  N   UNL     1      51.380   8.738  15.267  0.00  0.00    +0.000 NA
ATOM     14  C   UNL     1      50.677   8.063  16.197  0.00  0.00    +0.000 A 
ATOM     15  C   UNL     1      49.579   7.266  15.910  0.00  0.00    +0.000 A 
ENDBRANCH   6  10
ENDBRANCH   1   4
BRANCH   1  16
ATOM     16  C   UNL     1      44.129   5.082  11.363  0.00  0.00    +0.000 C 
BRANCH  16  17
ATOM     17  N   UNL     1      43.934   4.827   9.924  0.00  0.00    +0.000 N 
ATOM     18  H   UNL     1      42.963   4.715   9.636  0.00  0.00    +0.000 HD
BRANCH  17  22
ATOM     19  C   UNL     1      46.477   2.307   7.698  0.00  0.00    +0.000 A 
ATOM     20  C   UNL     1      46.497   3.682   7.460  0.00  0.00    +0.000 A 
ATOM     21  C   UNL     1      45.671   4.532   8.204  0.00  0.00    +0.000 A 
ATOM     22  C   UNL     1      44.836   4.038   9.216  0.00  0.00    +0.000 A 
ATOM     23  C   UNL     1      44.812   2.652   9.421  0.00  0.00    +0.000 A 
ATOM     24  C   UNL     1      45.618   1.790   8.668  0.00  0.00    +0.000 A 
BRANCH  19  26
ATOM     25  N   UNL     1      48.418   1.895   6.290  0.00  0.00    +0.000 N 
ATOM     26  C   UNL     1      47.319   1.370   6.911  0.00  0.00    +0.000 C 
ATOM     27  O   UNL     1      47.070   0.172   6.851  0.00  0.00    +0.000 OA
ATOM     28  H   UNL     1      49.043   1.229   5.853  0.00  0.00    +0.000 HD
ATOM     29  H   UNL     1      48.790   2.803   6.528  0.00  0.00    +0.000 HD
ENDBRANCH  19  26
ENDBRANCH  17  22
ENDBRANCH  16  17
ENDBRANCH   1  16
TORSDOF 6
ENDMDL
MODEL 5
REMARK VINA RESULT:    -7.698      3.186      7.151
REMARK INTER + INTRA:         -11.232
REMARK INTER:                 -10.393
REMARK INTRA:                  -0.839
REMARK UNBOUND:                -0.833
REMARK  Name = 
REMARK  6 active torsions:
REMARK  status: ('A' for Active; 'I' for Inactive)
REMARK    1  A    between atoms: C_2  and  C_4
REMARK    2  A    between atoms: C_7  and  N_8
REMARK    3  A    between atoms: N_8  and  C_9
REMARK    4  A    between atoms: C_9  and  C_10
REMARK    5  A    between atoms: C_10  and  C_13
REMARK    6  A    between atoms: C_15  and  C_16
REMARK                            x       y       z     vdW  Elec       q    Type
REMARK                         _______ _______ _______ _____ _____    ______ ____
ROOT
ATOM      1  C   UNL     1      45.789   7.522  11.982  0.00  0.00    +0.000 C 
ATOM      2  F   UNL     1      45.326   7.836  13.229  0.00  0.00    +0.000 F 
ATOM      3  F   UNL     1      45.669   8.684  11.258  0.00  0.00    +0.000 F 
ENDROOT
BRANCH   1   4
ATOM      4  C   UNL     1      45.004   6.372  11.359  0.00  0.00    +0.000 A 
ATOM      5  C   UNL     1      45.630   5.529  10.438  0.00  0.00    +0.000 A 
ATOM      6  C   UNL     1      44.914   4.486   9.831  0.00  0.00    +0.000 A 
ATOM      7  C   UNL     1      43.566   4.351  10.189  0.00  0.00    +0.000 A 
ATOM      8  C   UNL     1      43.010   5.222  11.110  0.00  0.00    +0.000 A 
ATOM      9  N   UNL     1      43.695   6.220  11.698  0.00  0.00    +0.000 NA
BRANCH   6  10
ATOM     10  C   UNL     1      45.543   3.571   8.848  0.00  0.00    +0.000 A 
ATOM     11  C   UNL     1      46.195   4.060   7.705  0.00  0.00    +0.000 A 
ATOM     12  C   UNL     1      46.794   3.170   6.824  0.00  0.00    +0.000 A 
ATOM     13  N   UNL     1      46.782   1.834   6.985  0.00  0.00    +0.000 NA
ATOM     14  C   UNL     1      46.146   1.368   8.078  0.00  0.00    +0.000 A 
ATOM     15  C   UNL     1      45.528   2.180   9.018  0.00  0.00    +0.000 A 
ENDBRANCH   6  10
ENDBRANCH   1   4
BRANCH   1  16
ATOM     16  C   UNL     1      47.293   7.172  12.062  0.00  0.00    +0.000 C 
BRANCH  16  17
ATOM     17  N   UNL     1      47.869   7.318  13.411  0.00  0.00    +0.000 N 
ATOM     18  H   UNL     1      48.718   7.881  13.456  0.00  0.00    +0.000 HD
BRANCH  17  22
ATOM     19  C   UNL     1      47.676   4.265  16.312  0.00  0.00    +0.000 A 
ATOM     20  C   UNL     1      46.995   4.106  15.104  0.00  0.00    +0.000 A 
ATOM     21  C   UNL     1      47.065   5.104  14.126  0.00  0.00    +0.000 A 
ATOM     22  C   UNL     1      47.836   6.260  14.314  0.00  0.00    +0.000 A 
ATOM     23  C   UNL     1      48.491   6.411  15.543  0.00  0.00    +0.000 A 
ATOM     24  C   UNL     1      48.410   5.430  16.538  0.00  0.00    +0.000 A 
BRANCH  19  26
ATOM     25  N   UNL     1      48.740   3.028  18.116  0.00  0.00    +0.000 N 
ATOM     26  C   UNL     1      47.605   3.241  17.385  0.00  0.00    +0.000 C 
ATOM     27  O   UNL     1      46.568   2.638  17.636  0.00  0.00    +0.000 OA
ATOM     28  H   UNL     1      48.646   2.413  18.915  0.00  0.00    +0.000 HD
ATOM     29  H   UNL     1      49.514   3.676  18.110  0.00  0.00    +0.000 HD
ENDBRANCH  19  26
ENDBRANCH  17  22
ENDBRANCH  16  17
ENDBRANCH   1  16
TORSDOF 6
ENDMDL
MODEL 6
REMARK VINA RESULT:    -7.593      2.925      6.983
REMARK INTER + INTRA:         -11.089
REMARK INTER:                 -10.084
REMARK INTRA:                  -1.006
REMARK UNBOUND:                -0.833
REMARK  Name = 
REMARK  6 active torsions:
REMARK  status: ('A' for Active; 'I' for Inactive)
REMARK    1  A    between atoms: C_2  and  C_4
REMARK    2  A    between atoms: C_7  and  N_8
REMARK    3  A    between atoms: N_8  and  C_9
REMARK    4  A    between atoms: C_9  and  C_10
REMARK    5  A    between atoms: C_10  and  C_13
REMARK    6  A    between atoms: C_15  and  C_16
REMARK                            x       y       z     vdW  Elec       q    Type
REMARK                         _______ _______ _______ _____ _____    ______ ____
ROOT
ATOM      1  C   UNL     1      44.342   6.453  11.387  0.00  0.00    +0.000 C 
ATOM      2  F   UNL     1      43.106   7.032  11.306  0.00  0.00    +0.000 F 
ATOM      3  F   UNL     1      45.138   7.204  10.556  0.00  0.00    +0.000 F 
ENDROOT
BRANCH   1   4
ATOM      4  C   UNL     1      44.306   4.984  10.978  0.00  0.00    +0.000 A 
ATOM      5  C   UNL     1      45.060   4.555   9.883  0.00  0.00    +0.000 A 
ATOM      6  C   UNL     1      45.013   3.213   9.472  0.00  0.00    +0.000 A 
ATOM      7  C   UNL     1      44.180   2.356  10.202  0.00  0.00    +0.000 A 
ATOM      8  C   UNL     1      43.462   2.850  11.277  0.00  0.00    +0.000 A 
ATOM      9  N   UNL     1      43.507   4.134  11.677  0.00  0.00    +0.000 NA
BRANCH   6  10
ATOM     10  C   UNL     1      45.798   2.721   8.314  0.00  0.00    +0.000 A 
ATOM     11  C   UNL     1      46.261   1.398   8.252  0.00  0.00    +0.000 A 
ATOM     12  C   UNL     1      46.970   0.971   7.138  0.00  0.00    +0.000 A 
ATOM     13  N   UNL     1      47.264   1.761   6.089  0.00  0.00    +0.000 NA
ATOM     14  C   UNL     1      46.827   3.034   6.156  0.00  0.00    +0.000 A 
ATOM     15  C   UNL     1      46.104   3.548   7.223  0.00  0.00    +0.000 A 
ENDBRANCH   6  10
ENDBRANCH   1   4
BRANCH   1  16
ATOM     16  C   UNL     1      44.890   6.602  12.825  0.00  0.00    +0.000 C 
BRANCH  16  17
ATOM     17  N   UNL     1      46.083   5.779  13.098  0.00  0.00    +0.000 N 
ATOM     18  H   UNL     1      45.935   5.015  13.756  0.00  0.00    +0.000 HD
BRANCH  17  22
ATOM     19  C   UNL     1      49.803   7.758  13.245  0.00  0.00    +0.000 A 
ATOM     20  C   UNL     1      49.294   7.169  14.404  0.00  0.00    +0.000 A 
ATOM     21  C   UNL     1      48.069   6.494  14.364  0.00  0.00    +0.000 A 
ATOM     22  C   UNL     1      47.344   6.364  13.172  0.00  0.00    +0.000 A 
ATOM     23  C   UNL     1      47.859   6.984  12.026  0.00  0.00    +0.000 A 
ATOM     24  C   UNL     1      49.073   7.680  12.058  0.00  0.00    +0.000 A 
BRANCH  19  26
ATOM     25  N   UNL     1      52.155   7.898  13.849  0.00  0.00    +0.000 N 
ATOM     26  C   UNL     1      51.086   8.505  13.252  0.00  0.00    +0.000 C 
ATOM     27  O   UNL     1      51.200   9.600  12.714  0.00  0.00    +0.000 OA
ATOM     28  H   UNL     1      53.047   8.365  13.747  0.00  0.00    +0.000 HD
ATOM     29  H   UNL     1      52.164   6.911  14.064  0.00  0.00    +0.000 HD
ENDBRANCH  19  26
ENDBRANCH  17  22
ENDBRANCH  16  17
ENDBRANCH   1  16
TORSDOF 6
ENDMDL
MODEL 7
REMARK VINA RESULT:    -7.468      2.374      4.296
REMARK INTER + INTRA:         -10.920
REMARK INTER:                 -10.316
REMARK INTRA:                  -0.604
REMARK UNBOUND:                -0.833
REMARK  Name = 
REMARK  6 active torsions:
REMARK  status: ('A' for Active; 'I' for Inactive)
REMARK    1  A    between atoms: C_2  and  C_4
REMARK    2  A    between atoms: C_7  and  N_8
REMARK    3  A    between atoms: N_8  and  C_9
REMARK    4  A    between atoms: C_9  and  C_10
REMARK    5  A    between atoms: C_10  and  C_13
REMARK    6  A    between atoms: C_15  and  C_16
REMARK                            x       y       z     vdW  Elec       q    Type
REMARK                         _______ _______ _______ _____ _____    ______ ____
ROOT
ATOM      1  C   UNL     1      45.728   6.415  11.826  0.00  0.00    +0.000 C 
ATOM      2  F   UNL     1      46.143   6.750  10.567  0.00  0.00    +0.000 F 
ATOM      3  F   UNL     1      44.667   7.249  12.081  0.00  0.00    +0.000 F 
ENDROOT
BRANCH   1   4
ATOM      4  C   UNL     1      46.846   6.576  12.852  0.00  0.00    +0.000 A 
ATOM      5  C   UNL     1      46.897   5.722  13.955  0.00  0.00    +0.000 A 
ATOM      6  C   UNL     1      47.900   5.876  14.926  0.00  0.00    +0.000 A 
ATOM      7  C   UNL     1      48.816   6.918  14.730  0.00  0.00    +0.000 A 
ATOM      8  C   UNL     1      48.706   7.726  13.612  0.00  0.00    +0.000 A 
ATOM      9  N   UNL     1      47.749   7.578  12.677  0.00  0.00    +0.000 NA
BRANCH   6  10
ATOM     10  C   UNL     1      47.986   4.990  16.112  0.00  0.00    +0.000 A 
ATOM     11  C   UNL     1      47.533   3.663  16.069  0.00  0.00    +0.000 A 
ATOM     12  C   UNL     1      47.656   2.860  17.194  0.00  0.00    +0.000 A 
ATOM     13  N   UNL     1      48.182   3.279  18.360  0.00  0.00    +0.000 NA
ATOM     14  C   UNL     1      48.606   4.557  18.401  0.00  0.00    +0.000 A 
ATOM     15  C   UNL     1      48.533   5.430  17.325  0.00  0.00    +0.000 A 
ENDBRANCH   6  10
ENDBRANCH   1   4
BRANCH   1  16
ATOM     16  C   UNL     1      45.197   4.963  11.827  0.00  0.00    +0.000 C 
BRANCH  16  17
ATOM     17  N   UNL     1      44.421   4.611  10.624  0.00  0.00    +0.000 N 
ATOM     18  H   UNL     1      43.441   4.387  10.795  0.00  0.00    +0.000 HD
BRANCH  17  22
ATOM     19  C   UNL     1      46.402   2.492   7.564  0.00  0.00    +0.000 A 
ATOM     20  C   UNL     1      45.728   1.785   8.562  0.00  0.00    +0.000 A 
ATOM     21  C   UNL     1      45.052   2.476   9.573  0.00  0.00    +0.000 A 
ATOM     22  C   UNL     1      45.004   3.876   9.595  0.00  0.00    +0.000 A 
ATOM     23  C   UNL     1      45.708   4.567   8.600  0.00  0.00    +0.000 A 
ATOM     24  C   UNL     1      46.406   3.887   7.595  0.00  0.00    +0.000 A 
BRANCH  19  26
ATOM     25  N   UNL     1      47.924   2.569   5.668  0.00  0.00    +0.000 N 
ATOM     26  C   UNL     1      47.153   1.795   6.489  0.00  0.00    +0.000 C 
ATOM     27  O   UNL     1      47.119   0.577   6.362  0.00  0.00    +0.000 OA
ATOM     28  H   UNL     1      48.516   2.073   5.014  0.00  0.00    +0.000 HD
ATOM     29  H   UNL     1      48.174   3.519   5.902  0.00  0.00    +0.000 HD
ENDBRANCH  19  26
ENDBRANCH  17  22
ENDBRANCH  16  17
ENDBRANCH   1  16
TORSDOF 6
ENDMDL
MODEL 8
REMARK VINA RESULT:    -7.461      3.158      7.204
REMARK INTER + INTRA:         -10.911
REMARK INTER:                 -10.068
REMARK INTRA:                  -0.843
REMARK UNBOUND:                -0.833
REMARK  Name = 
REMARK  6 active torsions:
REMARK  status: ('A' for Active; 'I' for Inactive)
REMARK    1  A    between atoms: C_2  and  C_4
REMARK    2  A    between atoms: C_7  and  N_8
REMARK    3  A    between atoms: N_8  and  C_9
REMARK    4  A    between atoms: C_9  and  C_10
REMARK    5  A    between atoms: C_10  and  C_13
REMARK    6  A    between atoms: C_15  and  C_16
REMARK                            x       y       z     vdW  Elec       q    Type
REMARK                         _______ _______ _______ _____ _____    ______ ____
ROOT
ATOM      1  C   UNL     1      44.748   6.647  11.397  0.00  0.00    +0.000 C 
ATOM      2  F   UNL     1      43.602   7.373  11.223  0.00  0.00    +0.000 F 
ATOM      3  F   UNL     1      45.688   7.282  10.623  0.00  0.00    +0.000 F 
ENDROOT
BRANCH   1   4
ATOM      4  C   UNL     1      44.560   5.188  10.994  0.00  0.00    +0.000 A 
ATOM      5  C   UNL     1      45.278   4.675   9.911  0.00  0.00    +0.000 A 
ATOM      6  C   UNL     1      45.093   3.343   9.506  0.00  0.00    +0.000 A 
ATOM      7  C   UNL     1      44.164   2.584  10.229  0.00  0.00    +0.000 A 
ATOM      8  C   UNL     1      43.489   3.158  11.292  0.00  0.00    +0.000 A 
ATOM      9  N   UNL     1      43.667   4.432  11.687  0.00  0.00    +0.000 NA
BRANCH   6  10
ATOM     10  C   UNL     1      45.835   2.763   8.361  0.00  0.00    +0.000 A 
ATOM     11  C   UNL     1      46.191   1.406   8.330  0.00  0.00    +0.000 A 
ATOM     12  C   UNL     1      46.862   0.897   7.227  0.00  0.00    +0.000 A 
ATOM     13  N   UNL     1      47.218   1.637   6.160  0.00  0.00    +0.000 NA
ATOM     14  C   UNL     1      46.884   2.942   6.198  0.00  0.00    +0.000 A 
ATOM     15  C   UNL     1      46.205   3.537   7.251  0.00  0.00    +0.000 A 
ENDBRANCH   6  10
ENDBRANCH   1   4
BRANCH   1  16
ATOM     16  C   UNL     1      45.206   6.749  12.871  0.00  0.00    +0.000 C 
BRANCH  16  17
ATOM     17  N   UNL     1      46.656   6.560  13.060  0.00  0.00    +0.000 N 
ATOM     18  H   UNL     1      47.203   6.548  12.200  0.00  0.00    +0.000 HD
BRANCH  17  22
ATOM     19  C   UNL     1      48.023   4.154  16.241  0.00  0.00    +0.000 A 
ATOM     20  C   UNL     1      47.139   3.615  15.305  0.00  0.00    +0.000 A 
ATOM     21  C   UNL     1      46.691   4.397  14.235  0.00  0.00    +0.000 A 
ATOM     22  C   UNL     1      47.136   5.714  14.055  0.00  0.00    +0.000 A 
ATOM     23  C   UNL     1      48.003   6.245  15.020  0.00  0.00    +0.000 A 
ATOM     24  C   UNL     1      48.440   5.479  16.107  0.00  0.00    +0.000 A 
BRANCH  19  26
ATOM     25  N   UNL     1      47.746   3.421  18.544  0.00  0.00    +0.000 N 
ATOM     26  C   UNL     1      48.500   3.365  17.405  0.00  0.00    +0.000 C 
ATOM     27  O   UNL     1      49.501   2.661  17.343  0.00  0.00    +0.000 OA
ATOM     28  H   UNL     1      48.018   2.793  19.290  0.00  0.00    +0.000 HD
ATOM     29  H   UNL     1      46.799   3.772  18.547  0.00  0.00    +0.000 HD
ENDBRANCH  19  26
ENDBRANCH  17  22
ENDBRANCH  16  17
ENDBRANCH   1  16
TORSDOF 6
ENDMDL
MODEL 9
REMARK VINA RESULT:    -7.385      1.540      2.379
REMARK INTER + INTRA:         -10.809
REMARK INTER:                 -10.136
REMARK INTRA:                  -0.673
REMARK UNBOUND:                -0.833
REMARK  Name = 
REMARK  6 active torsions:
REMARK  status: ('A' for Active; 'I' for Inactive)
REMARK    1  A    between atoms: C_2  and  C_4
REMARK    2  A    between atoms: C_7  and  N_8
REMARK    3  A    between atoms: N_8  and  C_9
REMARK    4  A    between atoms: C_9  and  C_10
REMARK    5  A    between atoms: C_10  and  C_13
REMARK    6  A    between atoms: C_15  and  C_16
REMARK                            x       y       z     vdW  Elec       q    Type
REMARK                         _______ _______ _______ _____ _____    ______ ____
ROOT
ATOM      1  C   UNL     1      45.222   6.620  11.434  0.00  0.00    +0.000 C 
ATOM      2  F   UNL     1      45.343   6.975  10.119  0.00  0.00    +0.000 F 
ATOM      3  F   UNL     1      44.256   7.456  11.937  0.00  0.00    +0.000 F 
ENDROOT
BRANCH   1   4
ATOM      4  C   UNL     1      46.546   6.754  12.180  0.00  0.00    +0.000 A 
ATOM      5  C   UNL     1      47.548   7.578  11.663  0.00  0.00    +0.000 A 
ATOM      6  C   UNL     1      48.784   7.688  12.319  0.00  0.00    +0.000 A 
ATOM      7  C   UNL     1      48.950   6.933  13.488  0.00  0.00    +0.000 A 
ATOM      8  C   UNL     1      47.913   6.138  13.943  0.00  0.00    +0.000 A 
ATOM      9  N   UNL     1      46.725   6.034  13.320  0.00  0.00    +0.000 NA
BRANCH   6  10
ATOM     10  C   UNL     1      49.873   8.551  11.800  0.00  0.00    +0.000 A 
ATOM     11  C   UNL     1      49.644   9.891  11.454  0.00  0.00    +0.000 A 
ATOM     12  C   UNL     1      50.697  10.671  10.997  0.00  0.00    +0.000 A 
ATOM     13  N   UNL     1      51.955  10.217  10.846  0.00  0.00    +0.000 NA
ATOM     14  C   UNL     1      52.169   8.927  11.170  0.00  0.00    +0.000 A 
ATOM     15  C   UNL     1      51.183   8.074  11.643  0.00  0.00    +0.000 A 
ENDBRANCH   6  10
ENDBRANCH   1   4
BRANCH   1  16
ATOM     16  C   UNL     1      44.688   5.172  11.531  0.00  0.00    +0.000 C 
BRANCH  16  17
ATOM     17  N   UNL     1      44.054   4.684  10.292  0.00  0.00    +0.000 N 
ATOM     18  H   UNL     1      43.063   4.463  10.376  0.00  0.00    +0.000 HD
BRANCH  17  22
ATOM     19  C   UNL     1      46.380   2.286   7.720  0.00  0.00    +0.000 A 
ATOM     20  C   UNL     1      45.540   1.675   8.653  0.00  0.00    +0.000 A 
ATOM     21  C   UNL     1      44.750   2.460   9.501  0.00  0.00    +0.000 A 
ATOM     22  C   UNL     1      44.754   3.858   9.417  0.00  0.00    +0.000 A 
ATOM     23  C   UNL     1      45.623   4.452   8.492  0.00  0.00    +0.000 A 
ATOM     24  C   UNL     1      46.434   3.679   7.654  0.00  0.00    +0.000 A 
BRANCH  19  26
ATOM     25  N   UNL     1      48.354   2.116   6.309  0.00  0.00    +0.000 N 
ATOM     26  C   UNL     1      47.253   1.489   6.822  0.00  0.00    +0.000 C 
ATOM     27  O   UNL     1      47.026   0.310   6.578  0.00  0.00    +0.000 OA
ATOM     28  H   UNL     1      48.999   1.532   5.791  0.00  0.00    +0.000 HD
ATOM     29  H   UNL     1      48.705   2.983   6.688  0.00  0.00    +0.000 HD
ENDBRANCH  19  26
ENDBRANCH  17  22
ENDBRANCH  16  17
ENDBRANCH   1  16
TORSDOF 6
ENDMDL
