MODEL 1
REMARK VINA RESULT:    -9.119      0.000      0.000
REMARK INTER + INTRA:         -12.497
REMARK INTER:                 -11.784
REMARK INTRA:                  -0.713
REMARK UNBOUND:                -0.713
REMARK  Name = 
REMARK  7 active torsions:
REMARK  status: ('A' for Active; 'I' for Inactive)
REMARK    1  A    between atoms: C_1  and  C_2
REMARK    2  A    between atoms: C_6  and  C_7
REMARK    3  A    between atoms: C_11  and  C_12
REMARK    4  A    between atoms: C_12  and  O_13
REMARK    5  A    between atoms: O_13  and  C_14
REMARK    6  A    between atoms: C_17  and  C_18
REMARK    7  A    between atoms: C_21  and  C_22
REMARK                            x       y       z     vdW  Elec       q    Type
REMARK                         _______ _______ _______ _____ _____    ______ ____
ROOT
ATOM      1  C   UNL     1      43.496   4.126  11.023  0.00  0.00    +0.000 C 
ENDROOT
BRANCH   1   6
ATOM      2  C   UNL     1      46.450   6.201  12.333  0.00  0.00    +0.000 A 
ATOM      3  C   UNL     1      47.003   5.279  13.240  0.00  0.00    +0.000 A 
ATOM      4  C   UNL     1      46.458   4.005  13.412  0.00  0.00    +0.000 A 
ATOM      5  C   UNL     1      45.333   3.623  12.683  0.00  0.00    +0.000 A 
ATOM      6  C   UNL     1      44.744   4.515  11.781  0.00  0.00    +0.000 A 
ATOM      7  C   UNL     1      45.324   5.783  11.595  0.00  0.00    +0.000 A 
BRANCH   2  13
ATOM      8  C   UNL     1      50.292   9.339  11.396  0.00  0.00    +0.000 C 
ATOM      9  C   UNL     1      48.858   9.095  11.739  0.00  0.00    +0.000 A 
ATOM     10  C   UNL     1      47.970  10.144  11.932  0.00  0.00    +0.000 A 
ATOM     11  N   UNL     1      46.667   9.981  12.235  0.00  0.00    +0.000 NA
ATOM     12  C   UNL     1      46.228   8.705  12.348  0.00  0.00    +0.000 A 
ATOM     13  C   UNL     1      47.016   7.559  12.187  0.00  0.00    +0.000 A 
ATOM     14  C   UNL     1      48.361   7.791  11.869  0.00  0.00    +0.000 A 
ENDBRANCH   2  13
ENDBRANCH   1   6
BRANCH   1  15
ATOM     15  O   UNL     1      43.741   2.906  10.329  0.00  0.00    +0.000 OA
BRANCH  15  16
ATOM     16  C   UNL     1      44.631   2.943   9.293  0.00  0.00    +0.000 A 
ATOM     17  C   UNL     1      45.058   4.074   8.604  0.00  0.00    +0.000 A 
ATOM     18  C   UNL     1      45.973   3.942   7.553  0.00  0.00    +0.000 A 
ATOM     19  C   UNL     1      46.498   2.691   7.184  0.00  0.00    +0.000 A 
ATOM     20  C   UNL     1      46.130   1.554   7.928  0.00  0.00    +0.000 A 
ATOM     21  C   UNL     1      46.730   0.188   7.751  0.00  0.00    +0.000 C 
ATOM     22  C   UNL     1      45.157   1.698   8.939  0.00  0.00    +0.000 A 
BRANCH  19  23
ATOM     23  C   UNL     1      47.451   2.702   6.034  0.00  0.00    +0.000 C 
ATOM     24  N   UNL     1      48.790   2.591   6.293  0.00  0.00    +0.000 N 
ATOM     25  O   UNL     1      47.053   2.739   4.873  0.00  0.00    +0.000 OA
ATOM     26  H   UNL     1      49.153   2.341   7.201  0.00  0.00    +0.000 HD
ATOM     27  H   UNL     1      49.397   2.489   5.494  0.00  0.00    +0.000 HD
ENDBRANCH  19  23
ENDBRANCH  15  16
ENDBRANCH   1  15
TORSDOF 5
ENDMDL
MODEL 2
REMARK VINA RESULT:    -8.898      1.384      1.901
REMARK INTER + INTRA:         -12.211
REMARK INTER:                 -11.273
REMARK INTRA:                  -0.939
REMARK UNBOUND:                -0.713
REMARK  Name = 
REMARK  7 active torsions:
REMARK  status: ('A' for Active; 'I' for Inactive)
REMARK    1  A    between atoms: C_1  and  C_2
REMARK    2  A    between atoms: C_6  and  C_7
REMARK    3  A    between atoms: C_11  and  C_12
REMARK    4  A    between atoms: C_12  and  O_13
REMARK    5  A    between atoms: O_13  and  C_14
REMARK    6  A    between atoms: C_17  and  C_18
REMARK    7  A    between atoms: C_21  and  C_22
REMARK                            x       y       z     vdW  Elec       q    Type
REMARK                         _______ _______ _______ _____ _____    ______ ____
ROOT
ATOM      1  C   UNL     1      44.072   2.907  11.480  0.00  0.00    +0.000 C 
ENDROOT
BRANCH   1   6
ATOM      2  C   UNL     1      45.937   6.164  12.295  0.00  0.00    +0.000 A 
ATOM      3  C   UNL     1      44.921   7.095  12.012  0.00  0.00    +0.000 A 
ATOM      4  C   UNL     1      43.653   6.690  11.593  0.00  0.00    +0.000 A 
ATOM      5  C   UNL     1      43.370   5.334  11.437  0.00  0.00    +0.000 A 
ATOM      6  C   UNL     1      44.356   4.376  11.694  0.00  0.00    +0.000 A 
ATOM      7  C   UNL     1      45.619   4.799  12.146  0.00  0.00    +0.000 A 
BRANCH   2  13
ATOM      8  C   UNL     1      50.274   8.593  11.411  0.00  0.00    +0.000 C 
ATOM      9  C   UNL     1      49.391   7.775  12.297  0.00  0.00    +0.000 A 
ATOM     10  C   UNL     1      49.795   7.392  13.569  0.00  0.00    +0.000 A 
ATOM     11  N   UNL     1      49.038   6.662  14.412  0.00  0.00    +0.000 NA
ATOM     12  C   UNL     1      47.814   6.298  13.962  0.00  0.00    +0.000 A 
ATOM     13  C   UNL     1      47.286   6.609  12.703  0.00  0.00    +0.000 A 
ATOM     14  C   UNL     1      48.118   7.373  11.873  0.00  0.00    +0.000 A 
ENDBRANCH   2  13
ENDBRANCH   1   6
BRANCH   1  15
ATOM     15  O   UNL     1      43.645   2.711  10.135  0.00  0.00    +0.000 OA
BRANCH  15  16
ATOM     16  C   UNL     1      44.600   2.779   9.160  0.00  0.00    +0.000 A 
ATOM     17  C   UNL     1      45.059   3.929   8.525  0.00  0.00    +0.000 A 
ATOM     18  C   UNL     1      46.040   3.828   7.531  0.00  0.00    +0.000 A 
ATOM     19  C   UNL     1      46.599   2.591   7.169  0.00  0.00    +0.000 A 
ATOM     20  C   UNL     1      46.195   1.434   7.862  0.00  0.00    +0.000 A 
ATOM     21  C   UNL     1      46.818   0.078   7.693  0.00  0.00    +0.000 C 
ATOM     22  C   UNL     1      45.159   1.547   8.812  0.00  0.00    +0.000 A 
BRANCH  19  23
ATOM     23  C   UNL     1      47.623   2.635   6.083  0.00  0.00    +0.000 C 
ATOM     24  N   UNL     1      48.945   2.679   6.431  0.00  0.00    +0.000 N 
ATOM     25  O   UNL     1      47.304   2.565   4.899  0.00  0.00    +0.000 OA
ATOM     26  H   UNL     1      49.268   2.519   7.375  0.00  0.00    +0.000 HD
ATOM     27  H   UNL     1      49.613   2.596   5.680  0.00  0.00    +0.000 HD
ENDBRANCH  19  23
ENDBRANCH  15  16
ENDBRANCH   1  15
TORSDOF 5
ENDMDL
MODEL 3
REMARK VINA RESULT:    -8.757      1.121      1.697
REMARK INTER + INTRA:         -12.029
REMARK INTER:                 -11.415
REMARK INTRA:                  -0.614
REMARK UNBOUND:                -0.713
REMARK  Name = 
REMARK  7 active torsions:
REMARK  status: ('A' for Active; 'I' for Inactive)
REMARK    1  A    between atoms: C_1  and  C_2
REMARK    2  A    between atoms: C_6  and  C_7
REMARK    3  A    between atoms: C_11  and  C_12
REMARK    4  A    between atoms: C_12  and  O_13
REMARK    5  A    between atoms: O_13  and  C_14
REMARK    6  A    between atoms: C_17  and  C_18
REMARK    7  A    between atoms: C_21  and  C_22
REMARK                            x       y       z     vdW  Elec       q    Type
REMARK                         _______ _______ _______ _____ _____    ______ ____
ROOT
ATOM      1  C   UNL     1      43.410   4.660  11.259  0.00  0.00    +0.000 C 
ENDROOT
BRANCH   1   6
ATOM      2  C   UNL     1      46.601   6.500  12.344  0.00  0.00    +0.000 A 
ATOM      3  C   UNL     1      47.130   5.550  13.235  0.00  0.00    +0.000 A 
ATOM      4  C   UNL     1      46.493   4.330  13.468  0.00  0.00    +0.000 A 
ATOM      5  C   UNL     1      45.298   4.032  12.816  0.00  0.00    +0.000 A 
ATOM      6  C   UNL     1      44.730   4.955  11.932  0.00  0.00    +0.000 A 
ATOM      7  C   UNL     1      45.400   6.166  11.684  0.00  0.00    +0.000 A 
BRANCH   2  13
ATOM      8  C   UNL     1      50.671   9.293  11.286  0.00  0.00    +0.000 C 
ATOM      9  C   UNL     1      49.221   9.173  11.627  0.00  0.00    +0.000 A 
ATOM     10  C   UNL     1      48.413  10.294  11.759  0.00  0.00    +0.000 A 
ATOM     11  N   UNL     1      47.100  10.244  12.057  0.00  0.00    +0.000 NA
ATOM     12  C   UNL     1      46.566   9.011  12.230  0.00  0.00    +0.000 A 
ATOM     13  C   UNL     1      47.267   7.803  12.134  0.00  0.00    +0.000 A 
ATOM     14  C   UNL     1      48.628   7.919  11.818  0.00  0.00    +0.000 A 
ENDBRANCH   2  13
ENDBRANCH   1   6
BRANCH   1  15
ATOM     15  O   UNL     1      43.594   4.698   9.846  0.00  0.00    +0.000 OA
BRANCH  15  16
ATOM     16  C   UNL     1      44.373   3.723   9.290  0.00  0.00    +0.000 A 
ATOM     17  C   UNL     1      44.325   2.361   9.568  0.00  0.00    +0.000 A 
ATOM     18  C   UNL     1      45.204   1.488   8.916  0.00  0.00    +0.000 A 
ATOM     19  C   UNL     1      46.128   1.947   7.961  0.00  0.00    +0.000 A 
ATOM     20  C   UNL     1      46.128   3.312   7.619  0.00  0.00    +0.000 A 
ATOM     21  C   UNL     1      46.943   3.913   6.510  0.00  0.00    +0.000 C 
ATOM     22  C   UNL     1      45.282   4.186   8.334  0.00  0.00    +0.000 A 
BRANCH  19  23
ATOM     23  C   UNL     1      47.011   0.904   7.361  0.00  0.00    +0.000 C 
ATOM     24  N   UNL     1      46.789  -0.406   7.683  0.00  0.00    +0.000 N 
ATOM     25  O   UNL     1      47.878   1.194   6.541  0.00  0.00    +0.000 OA
ATOM     26  H   UNL     1      45.962  -0.717   8.174  0.00  0.00    +0.000 HD
ATOM     27  H   UNL     1      47.327  -1.094   7.178  0.00  0.00    +0.000 HD
ENDBRANCH  19  23
ENDBRANCH  15  16
ENDBRANCH   1  15
TORSDOF 5
ENDMDL
MODEL 4
REMARK VINA RESULT:    -8.711      1.268      2.108
REMARK INTER + INTRA:         -11.971
REMARK INTER:                 -11.236
REMARK INTRA:                  -0.735
REMARK UNBOUND:                -0.713
REMARK  Name = 
REMARK  7 active torsions:
REMARK  status: ('A' for Active; 'I' for Inactive)
REMARK    1  A    between atoms: C_1  and  C_2
REMARK    2  A    between atoms: C_6  and  C_7
REMARK    3  A    between atoms: C_11  and  C_12
REMARK    4  A    between atoms: C_12  and  O_13
REMARK    5  A    between atoms: O_13  and  C_14
REMARK    6  A    between atoms: C_17  and  C_18
REMARK    7  A    between atoms: C_21  and  C_22
REMARK                            x       y       z     vdW  Elec       q    Type
REMARK                         _______ _______ _______ _____ _____    ______ ____
ROOT
ATOM      1  C   UNL     1      44.297   3.014  11.780  0.00  0.00    +0.000 C 
ENDROOT
BRANCH   1   6
ATOM      2  C   UNL     1      45.814   6.479  12.441  0.00  0.00    +0.000 A 
ATOM      3  C   UNL     1      46.837   6.122  13.337  0.00  0.00    +0.000 A 
ATOM      4  C   UNL     1      47.058   4.794  13.704  0.00  0.00    +0.000 A 
ATOM      5  C   UNL     1      46.248   3.784  13.188  0.00  0.00    +0.000 A 
ATOM      6  C   UNL     1      45.209   4.097  12.306  0.00  0.00    +0.000 A 
ATOM      7  C   UNL     1      45.021   5.437  11.920  0.00  0.00    +0.000 A 
BRANCH   2  13
ATOM      8  C   UNL     1      43.031  10.110  10.305  0.00  0.00    +0.000 C 
ATOM      9  C   UNL     1      44.241   9.665  11.061  0.00  0.00    +0.000 A 
ATOM     10  C   UNL     1      45.205  10.569  11.483  0.00  0.00    +0.000 A 
ATOM     11  N   UNL     1      46.309  10.225  12.174  0.00  0.00    +0.000 NA
ATOM     12  C   UNL     1      46.457   8.909  12.459  0.00  0.00    +0.000 A 
ATOM     13  C   UNL     1      45.568   7.894  12.088  0.00  0.00    +0.000 A 
ATOM     14  C   UNL     1      44.436   8.314  11.375  0.00  0.00    +0.000 A 
ENDBRANCH   2  13
ENDBRANCH   1   6
BRANCH   1  15
ATOM     15  O   UNL     1      43.824   3.396  10.491  0.00  0.00    +0.000 OA
BRANCH  15  16
ATOM     16  C   UNL     1      44.707   3.316   9.452  0.00  0.00    +0.000 A 
ATOM     17  C   UNL     1      45.251   4.381   8.740  0.00  0.00    +0.000 A 
ATOM     18  C   UNL     1      46.139   4.130   7.688  0.00  0.00    +0.000 A 
ATOM     19  C   UNL     1      46.522   2.823   7.340  0.00  0.00    +0.000 A 
ATOM     20  C   UNL     1      46.037   1.747   8.107  0.00  0.00    +0.000 A 
ATOM     21  C   UNL     1      46.482   0.321   7.953  0.00  0.00    +0.000 C 
ATOM     22  C   UNL     1      45.091   2.014   9.119  0.00  0.00    +0.000 A 
BRANCH  19  23
ATOM     23  C   UNL     1      47.464   2.708   6.187  0.00  0.00    +0.000 C 
ATOM     24  N   UNL     1      48.784   2.461   6.443  0.00  0.00    +0.000 N 
ATOM     25  O   UNL     1      47.064   2.764   5.027  0.00  0.00    +0.000 OA
ATOM     26  H   UNL     1      49.124   2.192   7.355  0.00  0.00    +0.000 HD
ATOM     27  H   UNL     1      49.373   2.278   5.644  0.00  0.00    +0.000 HD
ENDBRANCH  19  23
ENDBRANCH  15  16
ENDBRANCH   1  15
TORSDOF 5
ENDMDL
MODEL 5
REMARK VINA RESULT:    -8.601      2.367      3.990
REMARK INTER + INTRA:         -11.828
REMARK INTER:                 -11.398
REMARK INTRA:                  -0.430
REMARK UNBOUND:                -0.713
REMARK  Name = 
REMARK  7 active torsions:
REMARK  status: ('A' for Active; 'I' for Inactive)
REMARK    1  A    between atoms: C_1  and  C_2
REMARK    2  A    between atoms: C_6  and  C_7
REMARK    3  A    between atoms: C_11  and  C_12
REMARK    4  A    between atoms: C_12  and  O_13
REMARK    5  A    between atoms: O_13  and  C_14
REMARK    6  A    between atoms: C_17  and  C_18
REMARK    7  A    between atoms: C_21  and  C_22
REMARK                            x       y       z     vdW  Elec       q    Type
REMARK                         _______ _______ _______ _____ _____    ______ ____
ROOT
ATOM      1  C   UNL     1      43.756   4.811  11.403  0.00  0.00    +0.000 C 
ENDROOT
BRANCH   1   6
ATOM      2  C   UNL     1      46.818   5.837  13.482  0.00  0.00    +0.000 A 
ATOM      3  C   UNL     1      47.359   6.821  12.636  0.00  0.00    +0.000 A 
ATOM      4  C   UNL     1      46.743   7.172  11.433  0.00  0.00    +0.000 A 
ATOM      5  C   UNL     1      45.568   6.535  11.040  0.00  0.00    +0.000 A 
ATOM      6  C   UNL     1      45.004   5.540  11.845  0.00  0.00    +0.000 A 
ATOM      7  C   UNL     1      45.619   5.221  13.069  0.00  0.00    +0.000 A 
BRANCH   2  13
ATOM      8  C   UNL     1      47.371   2.822  17.494  0.00  0.00    +0.000 C 
ATOM      9  C   UNL     1      47.784   4.008  16.683  0.00  0.00    +0.000 A 
ATOM     10  C   UNL     1      48.848   4.813  17.067  0.00  0.00    +0.000 A 
ATOM     11  N   UNL     1      49.267   5.888  16.371  0.00  0.00    +0.000 NA
ATOM     12  C   UNL     1      48.591   6.171  15.232  0.00  0.00    +0.000 A 
ATOM     13  C   UNL     1      47.499   5.450  14.736  0.00  0.00    +0.000 A 
ATOM     14  C   UNL     1      47.111   4.341  15.500  0.00  0.00    +0.000 A 
ENDBRANCH   2  13
ENDBRANCH   1   6
BRANCH   1  15
ATOM     15  O   UNL     1      43.743   4.743   9.980  0.00  0.00    +0.000 OA
BRANCH  15  16
ATOM     16  C   UNL     1      44.483   3.756   9.393  0.00  0.00    +0.000 A 
ATOM     17  C   UNL     1      44.441   2.398   9.689  0.00  0.00    +0.000 A 
ATOM     18  C   UNL     1      45.276   1.511   9.001  0.00  0.00    +0.000 A 
ATOM     19  C   UNL     1      46.149   1.951   7.991  0.00  0.00    +0.000 A 
ATOM     20  C   UNL     1      46.139   3.313   7.632  0.00  0.00    +0.000 A 
ATOM     21  C   UNL     1      46.896   3.895   6.473  0.00  0.00    +0.000 C 
ATOM     22  C   UNL     1      45.340   4.201   8.383  0.00  0.00    +0.000 A 
BRANCH  19  23
ATOM     23  C   UNL     1      46.991   0.895   7.355  0.00  0.00    +0.000 C 
ATOM     24  N   UNL     1      46.701  -0.416   7.613  0.00  0.00    +0.000 N 
ATOM     25  O   UNL     1      47.884   1.180   6.561  0.00  0.00    +0.000 OA
ATOM     26  H   UNL     1      45.852  -0.708   8.077  0.00  0.00    +0.000 HD
ATOM     27  H   UNL     1      47.213  -1.105   7.083  0.00  0.00    +0.000 HD
ENDBRANCH  19  23
ENDBRANCH  15  16
ENDBRANCH   1  15
TORSDOF 5
ENDMDL
MODEL 6
REMARK VINA RESULT:    -8.592      2.246      3.545
REMARK INTER + INTRA:         -11.817
REMARK INTER:                 -11.262
REMARK INTRA:                  -0.554
REMARK UNBOUND:                -0.713
REMARK  Name = 
REMARK  7 active torsions:
REMARK  status: ('A' for Active; 'I' for Inactive)
REMARK    1  A    between atoms: C_1  and  C_2
REMARK    2  A    between atoms: C_6  and  C_7
REMARK    3  A    between atoms: C_11  and  C_12
REMARK    4  A    between atoms: C_12  and  O_13
REMARK    5  A    between atoms: O_13  and  C_14
REMARK    6  A    between atoms: C_17  and  C_18
REMARK    7  A    between atoms: C_21  and  C_22
REMARK                            x       y       z     vdW  Elec       q    Type
REMARK                         _______ _______ _______ _____ _____    ______ ____
ROOT
ATOM      1  C   UNL     1      43.979   3.181  11.352  0.00  0.00    +0.000 C 
ENDROOT
BRANCH   1   6
ATOM      2  C   UNL     1      46.200   5.401  13.562  0.00  0.00    +0.000 A 
ATOM      3  C   UNL     1      45.941   6.653  12.975  0.00  0.00    +0.000 A 
ATOM      4  C   UNL     1      45.052   6.791  11.908  0.00  0.00    +0.000 A 
ATOM      5  C   UNL     1      44.402   5.672  11.392  0.00  0.00    +0.000 A 
ATOM      6  C   UNL     1      44.642   4.406  11.937  0.00  0.00    +0.000 A 
ATOM      7  C   UNL     1      45.516   4.288  13.033  0.00  0.00    +0.000 A 
BRANCH   2  13
ATOM      8  C   UNL     1      47.993   3.012  17.632  0.00  0.00    +0.000 C 
ATOM      9  C   UNL     1      48.054   4.127  16.639  0.00  0.00    +0.000 A 
ATOM     10  C   UNL     1      49.043   5.099  16.699  0.00  0.00    +0.000 A 
ATOM     11  N   UNL     1      49.150   6.120  15.827  0.00  0.00    +0.000 NA
ATOM     12  C   UNL     1      48.222   6.171  14.841  0.00  0.00    +0.000 A 
ATOM     13  C   UNL     1      47.171   5.264  14.668  0.00  0.00    +0.000 A 
ATOM     14  C   UNL     1      47.113   4.222  15.604  0.00  0.00    +0.000 A 
ENDBRANCH   2  13
ENDBRANCH   1   6
BRANCH   1  15
ATOM     15  O   UNL     1      43.684   3.428   9.980  0.00  0.00    +0.000 OA
BRANCH  15  16
ATOM     16  C   UNL     1      44.699   3.261   9.081  0.00  0.00    +0.000 A 
ATOM     17  C   UNL     1      45.414   4.266   8.438  0.00  0.00    +0.000 A 
ATOM     18  C   UNL     1      46.424   3.928   7.531  0.00  0.00    +0.000 A 
ATOM     19  C   UNL     1      46.760   2.589   7.265  0.00  0.00    +0.000 A 
ATOM     20  C   UNL     1      46.094   1.570   7.971  0.00  0.00    +0.000 A 
ATOM     21  C   UNL     1      46.455   0.113   7.908  0.00  0.00    +0.000 C 
ATOM     22  C   UNL     1      45.034   1.928   8.830  0.00  0.00    +0.000 A 
BRANCH  19  23
ATOM     23  C   UNL     1      47.847   2.379   6.263  0.00  0.00    +0.000 C 
ATOM     24  N   UNL     1      47.728   2.972   5.036  0.00  0.00    +0.000 N 
ATOM     25  O   UNL     1      48.863   1.749   6.543  0.00  0.00    +0.000 OA
ATOM     26  H   UNL     1      47.029   3.671   4.831  0.00  0.00    +0.000 HD
ATOM     27  H   UNL     1      48.526   2.905   4.422  0.00  0.00    +0.000 HD
ENDBRANCH  19  23
ENDBRANCH  15  16
ENDBRANCH   1  15
TORSDOF 5
ENDMDL
MODEL 7
REMARK VINA RESULT:    -8.032      3.272      7.837
REMARK INTER + INTRA:         -11.093
REMARK INTER:                 -10.249
REMARK INTRA:                  -0.844
REMARK UNBOUND:                -0.713
REMARK  Name = 
REMARK  7 active torsions:
REMARK  status: ('A' for Active; 'I' for Inactive)
REMARK    1  A    between atoms: C_1  and  C_2
REMARK    2  A    between atoms: C_6  and  C_7
REMARK    3  A    between atoms: C_11  and  C_12
REMARK    4  A    between atoms: C_12  and  O_13
REMARK    5  A    between atoms: O_13  and  C_14
REMARK    6  A    between atoms: C_17  and  C_18
REMARK    7  A    between atoms: C_21  and  C_22
REMARK                            x       y       z     vdW  Elec       q    Type
REMARK                         _______ _______ _______ _____ _____    ______ ____
ROOT
ATOM      1  C   UNL     1      46.112   7.367  11.929  0.00  0.00    +0.000 C 
ENDROOT
BRANCH   1   6
ATOM      2  C   UNL     1      44.929   4.436   9.748  0.00  0.00    +0.000 A 
ATOM      3  C   UNL     1      43.568   4.412  10.102  0.00  0.00    +0.000 A 
ATOM      4  C   UNL     1      43.030   5.333  11.002  0.00  0.00    +0.000 A 
ATOM      5  C   UNL     1      43.847   6.301  11.581  0.00  0.00    +0.000 A 
ATOM      6  C   UNL     1      45.209   6.351  11.268  0.00  0.00    +0.000 A 
ATOM      7  C   UNL     1      45.729   5.436  10.335  0.00  0.00    +0.000 A 
BRANCH   2  13
ATOM      8  C   UNL     1      47.170   3.156   5.408  0.00  0.00    +0.000 C 
ATOM      9  C   UNL     1      46.574   2.790   6.729  0.00  0.00    +0.000 A 
ATOM     10  C   UNL     1      46.526   1.472   7.162  0.00  0.00    +0.000 A 
ATOM     11  N   UNL     1      46.009   1.087   8.345  0.00  0.00    +0.000 NA
ATOM     12  C   UNL     1      45.515   2.069   9.137  0.00  0.00    +0.000 A 
ATOM     13  C   UNL     1      45.493   3.432   8.821  0.00  0.00    +0.000 A 
ATOM     14  C   UNL     1      46.049   3.772   7.579  0.00  0.00    +0.000 A 
ENDBRANCH   2  13
ENDBRANCH   1   6
BRANCH   1  15
ATOM     15  O   UNL     1      47.359   6.748  12.230  0.00  0.00    +0.000 OA
BRANCH  15  16
ATOM     16  C   UNL     1      47.469   6.115  13.436  0.00  0.00    +0.000 A 
ATOM     17  C   UNL     1      46.879   4.909  13.800  0.00  0.00    +0.000 A 
ATOM     18  C   UNL     1      47.083   4.397  15.086  0.00  0.00    +0.000 A 
ATOM     19  C   UNL     1      47.894   5.058  16.025  0.00  0.00    +0.000 A 
ATOM     20  C   UNL     1      48.557   6.238  15.637  0.00  0.00    +0.000 A 
ATOM     21  C   UNL     1      49.573   6.961  16.474  0.00  0.00    +0.000 C 
ATOM     22  C   UNL     1      48.286   6.774  14.360  0.00  0.00    +0.000 A 
BRANCH  19  23
ATOM     23  C   UNL     1      48.006   4.403  17.361  0.00  0.00    +0.000 C 
ATOM     24  N   UNL     1      47.099   4.733  18.330  0.00  0.00    +0.000 N 
ATOM     25  O   UNL     1      48.846   3.533  17.579  0.00  0.00    +0.000 OA
ATOM     26  H   UNL     1      46.266   5.271  18.139  0.00  0.00    +0.000 HD
ATOM     27  H   UNL     1      47.131   4.194  19.182  0.00  0.00    +0.000 HD
ENDBRANCH  19  23
ENDBRANCH  15  16
ENDBRANCH   1  15
TORSDOF 5
ENDMDL
MODEL 8
REMARK VINA RESULT:    -7.834      2.710      7.083
REMARK INTER + INTRA:         -10.837
REMARK INTER:                  -9.718
REMARK INTRA:                  -1.119
REMARK UNBOUND:                -0.713
REMARK  Name = 
REMARK  7 active torsions:
REMARK  status: ('A' for Active; 'I' for Inactive)
REMARK    1  A    between atoms: C_1  and  C_2
REMARK    2  A    between atoms: C_6  and  C_7
REMARK    3  A    between atoms: C_11  and  C_12
REMARK    4  A    between atoms: C_12  and  O_13
REMARK    5  A    between atoms: O_13  and  C_14
REMARK    6  A    between atoms: C_17  and  C_18
REMARK    7  A    between atoms: C_21  and  C_22
REMARK                            x       y       z     vdW  Elec       q    Type
REMARK                         _______ _______ _______ _____ _____    ______ ____
ROOT
ATOM      1  C   UNL     1      44.266   7.217  11.687  0.00  0.00    +0.000 C 
ENDROOT
BRANCH   1   6
ATOM      2  C   UNL     1      44.721   3.839   9.917  0.00  0.00    +0.000 A 
ATOM      3  C   UNL     1      43.922   3.029  10.745  0.00  0.00    +0.000 A 
ATOM      4  C   UNL     1      43.228   3.557  11.835  0.00  0.00    +0.000 A 
ATOM      5  C   UNL     1      43.324   4.915  12.132  0.00  0.00    +0.000 A 
ATOM      6  C   UNL     1      44.118   5.753  11.343  0.00  0.00    +0.000 A 
ATOM      7  C   UNL     1      44.786   5.212  10.229  0.00  0.00    +0.000 A 
BRANCH   2  13
ATOM      8  C   UNL     1      46.826  -0.069   7.513  0.00  0.00    +0.000 C 
ATOM      9  C   UNL     1      46.506   1.388   7.608  0.00  0.00    +0.000 A 
ATOM     10  C   UNL     1      46.902   2.284   6.625  0.00  0.00    +0.000 A 
ATOM     11  N   UNL     1      46.633   3.603   6.656  0.00  0.00    +0.000 NA
ATOM     12  C   UNL     1      45.932   4.051   7.725  0.00  0.00    +0.000 A 
ATOM     13  C   UNL     1      45.479   3.261   8.787  0.00  0.00    +0.000 A 
ATOM     14  C   UNL     1      45.785   1.896   8.697  0.00  0.00    +0.000 A 
ENDBRANCH   2  13
ENDBRANCH   1   6
BRANCH   1  15
ATOM     15  O   UNL     1      45.024   7.334  12.887  0.00  0.00    +0.000 OA
BRANCH  15  16
ATOM     16  C   UNL     1      46.384   7.393  12.765  0.00  0.00    +0.000 A 
ATOM     17  C   UNL     1      47.290   6.378  13.054  0.00  0.00    +0.000 A 
ATOM     18  C   UNL     1      48.661   6.602  12.885  0.00  0.00    +0.000 A 
ATOM     19  C   UNL     1      49.155   7.827  12.403  0.00  0.00    +0.000 A 
ATOM     20  C   UNL     1      48.239   8.830  12.034  0.00  0.00    +0.000 A 
ATOM     21  C   UNL     1      48.612  10.119  11.360  0.00  0.00    +0.000 C 
ATOM     22  C   UNL     1      46.867   8.610  12.276  0.00  0.00    +0.000 A 
BRANCH  19  23
ATOM     23  C   UNL     1      50.640   7.927  12.289  0.00  0.00    +0.000 C 
ATOM     24  N   UNL     1      51.240   7.478  11.144  0.00  0.00    +0.000 N 
ATOM     25  O   UNL     1      51.315   8.461  13.165  0.00  0.00    +0.000 OA
ATOM     26  H   UNL     1      50.721   7.235  10.313  0.00  0.00    +0.000 HD
ATOM     27  H   UNL     1      52.228   7.661  11.051  0.00  0.00    +0.000 HD
ENDBRANCH  19  23
ENDBRANCH  15  16
ENDBRANCH   1  15
TORSDOF 5
ENDMDL
MODEL 9
REMARK VINA RESULT:    -7.597      3.000      7.598
REMARK INTER + INTRA:         -10.531
REMARK INTER:                  -9.721
REMARK INTRA:                  -0.810
REMARK UNBOUND:                -0.713
REMARK  Name = 
REMARK  7 active torsions:
REMARK  status: ('A' for Active; 'I' for Inactive)
REMARK    1  A    between atoms: C_1  and  C_2
REMARK    2  A    between atoms: C_6  and  C_7
REMARK    3  A    between atoms: C_11  and  C_12
REMARK    4  A    between atoms: C_12  and  O_13
REMARK    5  A    between atoms: O_13  and  C_14
REMARK    6  A    between atoms: C_17  and  C_18
REMARK    7  A    between atoms: C_21  and  C_22
REMARK                            x       y       z     vdW  Elec       q    Type
REMARK                         _______ _______ _______ _____ _____    ______ ____
ROOT
ATOM      1  C   UNL     1      45.362   7.228  11.339  0.00  0.00    +0.000 C 
ENDROOT
BRANCH   1   6
ATOM      2  C   UNL     1      44.905   3.809   9.650  0.00  0.00    +0.000 A 
ATOM      3  C   UNL     1      43.782   3.345  10.358  0.00  0.00    +0.000 A 
ATOM      4  C   UNL     1      43.163   4.120  11.340  0.00  0.00    +0.000 A 
ATOM      5  C   UNL     1      43.662   5.384  11.647  0.00  0.00    +0.000 A 
ATOM      6  C   UNL     1      44.786   5.878  10.978  0.00  0.00    +0.000 A 
ATOM      7  C   UNL     1      45.378   5.098   9.968  0.00  0.00    +0.000 A 
BRANCH   2  13
ATOM      8  C   UNL     1      47.222   3.184   5.209  0.00  0.00    +0.000 C 
ATOM      9  C   UNL     1      46.692   2.637   6.494  0.00  0.00    +0.000 A 
ATOM     10  C   UNL     1      46.807   1.291   6.812  0.00  0.00    +0.000 A 
ATOM     11  N   UNL     1      46.355   0.746   7.958  0.00  0.00    +0.000 NA
ATOM     12  C   UNL     1      45.759   1.591   8.834  0.00  0.00    +0.000 A 
ATOM     13  C   UNL     1      45.571   2.964   8.637  0.00  0.00    +0.000 A 
ATOM     14  C   UNL     1      46.066   3.473   7.429  0.00  0.00    +0.000 A 
ENDBRANCH   2  13
ENDBRANCH   1   6
BRANCH   1  15
ATOM     15  O   UNL     1      46.781   7.119  11.408  0.00  0.00    +0.000 OA
BRANCH  15  16
ATOM     16  C   UNL     1      47.337   6.957  12.646  0.00  0.00    +0.000 A 
ATOM     17  C   UNL     1      48.076   7.899  13.355  0.00  0.00    +0.000 A 
ATOM     18  C   UNL     1      48.589   7.572  14.615  0.00  0.00    +0.000 A 
ATOM     19  C   UNL     1      48.357   6.318  15.205  0.00  0.00    +0.000 A 
ATOM     20  C   UNL     1      47.545   5.389  14.527  0.00  0.00    +0.000 A 
ATOM     21  C   UNL     1      47.084   4.080  15.101  0.00  0.00    +0.000 C 
ATOM     22  C   UNL     1      47.094   5.711  13.230  0.00  0.00    +0.000 A 
BRANCH  19  23
ATOM     23  C   UNL     1      48.980   6.106  16.545  0.00  0.00    +0.000 C 
ATOM     24  N   UNL     1      48.288   6.497  17.657  0.00  0.00    +0.000 N 
ATOM     25  O   UNL     1      50.059   5.531  16.666  0.00  0.00    +0.000 OA
ATOM     26  H   UNL     1      47.315   6.770  17.629  0.00  0.00    +0.000 HD
ATOM     27  H   UNL     1      48.683   6.241  18.550  0.00  0.00    +0.000 HD
ENDBRANCH  19  23
ENDBRANCH  15  16
ENDBRANCH   1  15
TORSDOF 5
ENDMDL
