MODEL 1
REMARK VINA RESULT:    -9.543      0.000      0.000
REMARK INTER + INTRA:         -12.766
REMARK INTER:                 -11.774
REMARK INTRA:                  -0.992
REMARK UNBOUND:                -0.992
REMARK  Name = 
REMARK  4 active torsions:
REMARK  status: ('A' for Active; 'I' for Inactive)
REMARK    1  A    between atoms: C_2  and  C_4
REMARK    2  A    between atoms: N_8  and  C_9
REMARK    3  A    between atoms: C_9  and  C_10
REMARK    4  A    between atoms: C_15  and  C_16
REMARK                            x       y       z     vdW  Elec       q    Type
REMARK                         _______ _______ _______ _____ _____    ______ ____
ROOT
ATOM      1  C   UNL     1      43.465   4.889  11.017  0.00  0.00    +0.000 C 
ENDROOT
BRANCH   1   6
ATOM      2  C   UNL     1      46.380   2.264   7.715  0.00  0.00    +0.000 A 
ATOM      3  C   UNL     1      45.600   1.795   8.766  0.00  0.00    +0.000 A 
ATOM      4  C   UNL     1      44.751   2.680   9.430  0.00  0.00    +0.000 A 
ATOM      5  C   UNL     1      44.708   4.020   9.056  0.00  0.00    +0.000 A 
ATOM      6  N   UNL     1      43.846   4.936   9.621  0.00  0.00    +0.000 N 
ATOM      7  N   UNL     1      45.465   4.484   8.043  0.00  0.00    +0.000 NA
ATOM      8  C   UNL     1      46.290   3.610   7.401  0.00  0.00    +0.000 A 
ATOM      9  H   UNL     1      44.065   5.853   9.244  0.00  0.00    +0.000 HD
BRANCH   2  11
ATOM     10  N   UNL     1      48.420   1.967   6.432  0.00  0.00    +0.000 N 
ATOM     11  C   UNL     1      47.292   1.389   6.951  0.00  0.00    +0.000 C 
ATOM     12  O   UNL     1      47.065   0.195   6.812  0.00  0.00    +0.000 OA
ATOM     13  H   UNL     1      49.083   1.343   5.982  0.00  0.00    +0.000 HD
ATOM     14  H   UNL     1      48.761   2.864   6.736  0.00  0.00    +0.000 HD
ENDBRANCH   2  11
ENDBRANCH   1   6
BRANCH   1  15
ATOM     15  C   UNL     1      44.600   5.236  11.953  0.00  0.00    +0.000 A 
ATOM     16  C   UNL     1      44.897   4.421  13.051  0.00  0.00    +0.000 A 
ATOM     17  C   UNL     1      46.002   4.703  13.850  0.00  0.00    +0.000 A 
ATOM     18  C   UNL     1      46.815   5.800  13.563  0.00  0.00    +0.000 A 
ATOM     19  F   UNL     1      47.861   6.013  14.375  0.00  0.00    +0.000 F 
ATOM     20  C   UNL     1      46.560   6.655  12.477  0.00  0.00    +0.000 A 
ATOM     21  C   UNL     1      45.432   6.344  11.684  0.00  0.00    +0.000 A 
BRANCH  20  22
ATOM     22  C   UNL     1      47.428   7.818  12.153  0.00  0.00    +0.000 A 
ATOM     23  C   UNL     1      46.967   9.147  12.263  0.00  0.00    +0.000 A 
ATOM     24  C   UNL     1      47.785  10.243  11.957  0.00  0.00    +0.000 A 
ATOM     25  C   UNL     1      49.098  10.037  11.549  0.00  0.00    +0.000 A 
ATOM     26  C   UNL     1      49.573   8.739  11.444  0.00  0.00    +0.000 A 
ATOM     27  F   UNL     1      50.840   8.531  11.059  0.00  0.00    +0.000 F 
ATOM     28  C   UNL     1      48.759   7.645  11.730  0.00  0.00    +0.000 A 
ENDBRANCH  20  22
ENDBRANCH   1  15
TORSDOF 4
ENDMDL
MODEL 2
REMARK VINA RESULT:    -8.442      2.246      4.363
REMARK INTER + INTRA:         -11.408
REMARK INTER:                 -10.568
REMARK INTRA:                  -0.839
REMARK UNBOUND:                -0.992
REMARK  Name = 
REMARK  4 active torsions:
REMARK  status: ('A' for Active; 'I' for Inactive)
REMARK    1  A    between atoms: C_2  and  C_4
REMARK    2  A    between atoms: N_8  and  C_9
REMARK    3  A    between atoms: C_9  and  C_10
REMARK    4  A    between atoms: C_15  and  C_16
REMARK                            x       y       z     vdW  Elec       q    Type
REMARK                         _______ _______ _______ _____ _____    ______ ____
ROOT
ATOM      1  C   UNL     1      44.390   4.784  11.634  0.00  0.00    +0.000 C 
ENDROOT
BRANCH   1   6
ATOM      2  C   UNL     1      46.471   2.538   7.521  0.00  0.00    +0.000 A 
ATOM      3  C   UNL     1      45.900   1.956   8.647  0.00  0.00    +0.000 A 
ATOM      4  C   UNL     1      45.239   2.767   9.570  0.00  0.00    +0.000 A 
ATOM      5  C   UNL     1      45.177   4.142   9.372  0.00  0.00    +0.000 A 
ATOM      6  N   UNL     1      44.483   4.996  10.204  0.00  0.00    +0.000 N 
ATOM      7  N   UNL     1      45.733   4.715   8.287  0.00  0.00    +0.000 NA
ATOM      8  C   UNL     1      46.375   3.914   7.392  0.00  0.00    +0.000 A 
ATOM      9  H   UNL     1      44.660   5.948   9.901  0.00  0.00    +0.000 HD
BRANCH   2  11
ATOM     10  N   UNL     1      47.955   2.440   5.601  0.00  0.00    +0.000 N 
ATOM     11  C   UNL     1      47.174   1.749   6.489  0.00  0.00    +0.000 C 
ATOM     12  O   UNL     1      47.086   0.529   6.447  0.00  0.00    +0.000 OA
ATOM     13  H   UNL     1      48.501   1.884   4.950  0.00  0.00    +0.000 HD
ATOM     14  H   UNL     1      48.248   3.390   5.759  0.00  0.00    +0.000 HD
ENDBRANCH   2  11
ENDBRANCH   1   6
BRANCH   1  15
ATOM     15  C   UNL     1      45.611   5.261  12.385  0.00  0.00    +0.000 A 
ATOM     16  C   UNL     1      46.322   6.387  11.955  0.00  0.00    +0.000 A 
ATOM     17  C   UNL     1      47.388   6.870  12.708  0.00  0.00    +0.000 A 
ATOM     18  C   UNL     1      47.756   6.231  13.893  0.00  0.00    +0.000 A 
ATOM     19  F   UNL     1      48.793   6.749  14.568  0.00  0.00    +0.000 F 
ATOM     20  C   UNL     1      47.082   5.094  14.370  0.00  0.00    +0.000 A 
ATOM     21  C   UNL     1      46.004   4.628  13.584  0.00  0.00    +0.000 A 
BRANCH  20  22
ATOM     22  C   UNL     1      47.456   4.415  15.639  0.00  0.00    +0.000 A 
ATOM     23  C   UNL     1      47.952   3.094  15.661  0.00  0.00    +0.000 A 
ATOM     24  C   UNL     1      48.303   2.454  16.857  0.00  0.00    +0.000 A 
ATOM     25  C   UNL     1      48.185   3.128  18.066  0.00  0.00    +0.000 A 
ATOM     26  C   UNL     1      47.709   4.430  18.066  0.00  0.00    +0.000 A 
ATOM     27  F   UNL     1      47.598   5.091  19.226  0.00  0.00    +0.000 F 
ATOM     28  C   UNL     1      47.341   5.066  16.882  0.00  0.00    +0.000 A 
ENDBRANCH  20  22
ENDBRANCH   1  15
TORSDOF 4
ENDMDL
MODEL 3
REMARK VINA RESULT:    -7.833      4.147      7.180
REMARK INTER + INTRA:         -10.657
REMARK INTER:                 -10.075
REMARK INTRA:                  -0.582
REMARK UNBOUND:                -0.992
REMARK  Name = 
REMARK  4 active torsions:
REMARK  status: ('A' for Active; 'I' for Inactive)
REMARK    1  A    between atoms: C_2  and  C_4
REMARK    2  A    between atoms: N_8  and  C_9
REMARK    3  A    between atoms: C_9  and  C_10
REMARK    4  A    between atoms: C_15  and  C_16
REMARK                            x       y       z     vdW  Elec       q    Type
REMARK                         _______ _______ _______ _____ _____    ______ ____
ROOT
ATOM      1  C   UNL     1      44.741   7.006  11.504  0.00  0.00    +0.000 C 
ENDROOT
BRANCH   1   6
ATOM      2  C   UNL     1      49.592   7.850  12.934  0.00  0.00    +0.000 A 
ATOM      3  C   UNL     1      48.913   8.306  11.809  0.00  0.00    +0.000 A 
ATOM      4  C   UNL     1      47.539   8.090  11.710  0.00  0.00    +0.000 A 
ATOM      5  C   UNL     1      46.866   7.405  12.716  0.00  0.00    +0.000 A 
ATOM      6  N   UNL     1      45.500   7.214  12.720  0.00  0.00    +0.000 N 
ATOM      7  N   UNL     1      47.516   6.954  13.807  0.00  0.00    +0.000 NA
ATOM      8  C   UNL     1      48.858   7.172  13.893  0.00  0.00    +0.000 A 
ATOM      9  H   UNL     1      45.264   6.618  13.506  0.00  0.00    +0.000 HD
BRANCH   2  11
ATOM     10  N   UNL     1      51.567   7.704  14.339  0.00  0.00    +0.000 N 
ATOM     11  C   UNL     1      51.043   8.052  13.123  0.00  0.00    +0.000 C 
ATOM     12  O   UNL     1      51.750   8.484  12.222  0.00  0.00    +0.000 OA
ATOM     13  H   UNL     1      52.576   7.765  14.431  0.00  0.00    +0.000 HD
ATOM     14  H   UNL     1      51.075   7.121  14.997  0.00  0.00    +0.000 HD
ENDBRANCH   2  11
ENDBRANCH   1   6
BRANCH   1  15
ATOM     15  C   UNL     1      44.523   5.544  11.184  0.00  0.00    +0.000 A 
ATOM     16  C   UNL     1      43.585   4.788  11.895  0.00  0.00    +0.000 A 
ATOM     17  C   UNL     1      43.329   3.470  11.528  0.00  0.00    +0.000 A 
ATOM     18  C   UNL     1      44.010   2.895  10.454  0.00  0.00    +0.000 A 
ATOM     19  F   UNL     1      43.715   1.620  10.157  0.00  0.00    +0.000 F 
ATOM     20  C   UNL     1      44.967   3.605   9.709  0.00  0.00    +0.000 A 
ATOM     21  C   UNL     1      45.204   4.941  10.105  0.00  0.00    +0.000 A 
BRANCH  20  22
ATOM     22  C   UNL     1      45.688   3.008   8.554  0.00  0.00    +0.000 A 
ATOM     23  C   UNL     1      46.097   3.782   7.448  0.00  0.00    +0.000 A 
ATOM     24  C   UNL     1      46.775   3.218   6.359  0.00  0.00    +0.000 A 
ATOM     25  C   UNL     1      47.081   1.862   6.358  0.00  0.00    +0.000 A 
ATOM     26  C   UNL     1      46.697   1.086   7.440  0.00  0.00    +0.000 A 
ATOM     27  F   UNL     1      46.994  -0.221   7.452  0.00  0.00    +0.000 F 
ATOM     28  C   UNL     1      46.006   1.637   8.518  0.00  0.00    +0.000 A 
ENDBRANCH  20  22
ENDBRANCH   1  15
TORSDOF 4
ENDMDL
MODEL 4
REMARK VINA RESULT:    -7.810      1.928      2.735
REMARK INTER + INTRA:         -10.628
REMARK INTER:                 -10.288
REMARK INTRA:                  -0.341
REMARK UNBOUND:                -0.992
REMARK  Name = 
REMARK  4 active torsions:
REMARK  status: ('A' for Active; 'I' for Inactive)
REMARK    1  A    between atoms: C_2  and  C_4
REMARK    2  A    between atoms: N_8  and  C_9
REMARK    3  A    between atoms: C_9  and  C_10
REMARK    4  A    between atoms: C_15  and  C_16
REMARK                            x       y       z     vdW  Elec       q    Type
REMARK                         _______ _______ _______ _____ _____    ______ ____
ROOT
ATOM      1  C   UNL     1      43.473   3.470  11.018  0.00  0.00    +0.000 C 
ENDROOT
BRANCH   1   6
ATOM      2  C   UNL     1      46.685   2.514   7.137  0.00  0.00    +0.000 A 
ATOM      3  C   UNL     1      46.167   3.729   7.573  0.00  0.00    +0.000 A 
ATOM      4  C   UNL     1      45.441   3.771   8.763  0.00  0.00    +0.000 A 
ATOM      5  C   UNL     1      45.220   2.604   9.487  0.00  0.00    +0.000 A 
ATOM      6  N   UNL     1      44.571   2.580  10.704  0.00  0.00    +0.000 N 
ATOM      7  N   UNL     1      45.712   1.422   9.069  0.00  0.00    +0.000 NA
ATOM      8  C   UNL     1      46.421   1.393   7.906  0.00  0.00    +0.000 A 
ATOM      9  H   UNL     1      44.460   1.611  10.985  0.00  0.00    +0.000 HD
BRANCH   2  11
ATOM     10  N   UNL     1      47.277   3.336   4.931  0.00  0.00    +0.000 N 
ATOM     11  C   UNL     1      47.478   2.388   5.898  0.00  0.00    +0.000 C 
ATOM     12  O   UNL     1      48.298   1.491   5.752  0.00  0.00    +0.000 OA
ATOM     13  H   UNL     1      47.886   3.292   4.120  0.00  0.00    +0.000 HD
ATOM     14  H   UNL     1      46.812   4.211   5.115  0.00  0.00    +0.000 HD
ENDBRANCH   2  11
ENDBRANCH   1   6
BRANCH   1  15
ATOM     15  C   UNL     1      43.909   4.906  11.207  0.00  0.00    +0.000 A 
ATOM     16  C   UNL     1      43.008   5.958  11.014  0.00  0.00    +0.000 A 
ATOM     17  C   UNL     1      43.397   7.267  11.281  0.00  0.00    +0.000 A 
ATOM     18  C   UNL     1      44.688   7.537  11.738  0.00  0.00    +0.000 A 
ATOM     19  F   UNL     1      44.995   8.822  11.974  0.00  0.00    +0.000 F 
ATOM     20  C   UNL     1      45.635   6.520  11.945  0.00  0.00    +0.000 A 
ATOM     21  C   UNL     1      45.211   5.201  11.665  0.00  0.00    +0.000 A 
BRANCH  20  22
ATOM     22  C   UNL     1      47.008   6.794  12.446  0.00  0.00    +0.000 A 
ATOM     23  C   UNL     1      47.986   7.417  11.642  0.00  0.00    +0.000 A 
ATOM     24  C   UNL     1      49.280   7.674  12.114  0.00  0.00    +0.000 A 
ATOM     25  C   UNL     1      49.625   7.330  13.415  0.00  0.00    +0.000 A 
ATOM     26  C   UNL     1      48.676   6.726  14.225  0.00  0.00    +0.000 A 
ATOM     27  F   UNL     1      48.997   6.398  15.484  0.00  0.00    +0.000 F 
ATOM     28  C   UNL     1      47.393   6.452  13.756  0.00  0.00    +0.000 A 
ENDBRANCH  20  22
ENDBRANCH   1  15
TORSDOF 4
ENDMDL
MODEL 5
REMARK VINA RESULT:    -7.800      2.834      3.392
REMARK INTER + INTRA:         -10.616
REMARK INTER:                 -10.166
REMARK INTRA:                  -0.450
REMARK UNBOUND:                -0.992
REMARK  Name = 
REMARK  4 active torsions:
REMARK  status: ('A' for Active; 'I' for Inactive)
REMARK    1  A    between atoms: C_2  and  C_4
REMARK    2  A    between atoms: N_8  and  C_9
REMARK    3  A    between atoms: C_9  and  C_10
REMARK    4  A    between atoms: C_15  and  C_16
REMARK                            x       y       z     vdW  Elec       q    Type
REMARK                         _______ _______ _______ _____ _____    ______ ____
ROOT
ATOM      1  C   UNL     1      43.508   3.884  11.026  0.00  0.00    +0.000 C 
ENDROOT
BRANCH   1   6
ATOM      2  C   UNL     1      46.682   2.544   7.228  0.00  0.00    +0.000 A 
ATOM      3  C   UNL     1      46.407   3.807   7.742  0.00  0.00    +0.000 A 
ATOM      4  C   UNL     1      45.633   3.917   8.897  0.00  0.00    +0.000 A 
ATOM      5  C   UNL     1      45.125   2.776   9.508  0.00  0.00    +0.000 A 
ATOM      6  N   UNL     1      44.411   2.803  10.687  0.00  0.00    +0.000 N 
ATOM      7  N   UNL     1      45.381   1.549   9.014  0.00  0.00    +0.000 NA
ATOM      8  C   UNL     1      46.139   1.453   7.886  0.00  0.00    +0.000 A 
ATOM      9  H   UNL     1      44.080   1.863  10.880  0.00  0.00    +0.000 HD
BRANCH   2  11
ATOM     10  N   UNL     1      47.337   3.231   4.993  0.00  0.00    +0.000 N 
ATOM     11  C   UNL     1      47.507   2.341   6.020  0.00  0.00    +0.000 C 
ATOM     12  O   UNL     1      48.326   1.435   5.950  0.00  0.00    +0.000 OA
ATOM     13  H   UNL     1      47.966   3.136   4.202  0.00  0.00    +0.000 HD
ATOM     14  H   UNL     1      46.872   4.117   5.112  0.00  0.00    +0.000 HD
ENDBRANCH   2  11
ENDBRANCH   1   6
BRANCH   1  15
ATOM     15  C   UNL     1      44.198   5.037  11.720  0.00  0.00    +0.000 A 
ATOM     16  C   UNL     1      45.149   4.805  12.720  0.00  0.00    +0.000 A 
ATOM     17  C   UNL     1      45.842   5.871  13.284  0.00  0.00    +0.000 A 
ATOM     18  C   UNL     1      45.591   7.176  12.859  0.00  0.00    +0.000 A 
ATOM     19  F   UNL     1      46.294   8.156  13.446  0.00  0.00    +0.000 F 
ATOM     20  C   UNL     1      44.643   7.468  11.862  0.00  0.00    +0.000 A 
ATOM     21  C   UNL     1      43.955   6.364  11.308  0.00  0.00    +0.000 A 
BRANCH  20  22
ATOM     22  C   UNL     1      44.377   8.853  11.391  0.00  0.00    +0.000 A 
ATOM     23  C   UNL     1      45.262   9.918  11.664  0.00  0.00    +0.000 A 
ATOM     24  C   UNL     1      45.010  11.223  11.220  0.00  0.00    +0.000 A 
ATOM     25  C   UNL     1      43.871  11.494  10.472  0.00  0.00    +0.000 A 
ATOM     26  C   UNL     1      42.994  10.460  10.183  0.00  0.00    +0.000 A 
ATOM     27  F   UNL     1      41.897  10.710   9.456  0.00  0.00    +0.000 F 
ATOM     28  C   UNL     1      43.230   9.163  10.637  0.00  0.00    +0.000 A 
ENDBRANCH  20  22
ENDBRANCH   1  15
TORSDOF 4
ENDMDL
MODEL 6
REMARK VINA RESULT:    -7.776      4.283      7.314
REMARK INTER + INTRA:         -10.586
REMARK INTER:                 -10.434
REMARK INTRA:                  -0.153
REMARK UNBOUND:                -0.992
REMARK  Name = 
REMARK  4 active torsions:
REMARK  status: ('A' for Active; 'I' for Inactive)
REMARK    1  A    between atoms: C_2  and  C_4
REMARK    2  A    between atoms: N_8  and  C_9
REMARK    3  A    between atoms: C_9  and  C_10
REMARK    4  A    between atoms: C_15  and  C_16
REMARK                            x       y       z     vdW  Elec       q    Type
REMARK                         _______ _______ _______ _____ _____    ______ ____
ROOT
ATOM      1  C   UNL     1      45.032   6.938  11.438  0.00  0.00    +0.000 C 
ENDROOT
BRANCH   1   6
ATOM      2  C   UNL     1      47.951   5.529  15.411  0.00  0.00    +0.000 A 
ATOM      3  C   UNL     1      46.963   4.811  14.746  0.00  0.00    +0.000 A 
ATOM      4  C   UNL     1      46.413   5.335  13.576  0.00  0.00    +0.000 A 
ATOM      5  C   UNL     1      46.835   6.571  13.099  0.00  0.00    +0.000 A 
ATOM      6  N   UNL     1      46.387   7.119  11.916  0.00  0.00    +0.000 N 
ATOM      7  N   UNL     1      47.787   7.276  13.740  0.00  0.00    +0.000 NA
ATOM      8  C   UNL     1      48.318   6.755  14.882  0.00  0.00    +0.000 A 
ATOM      9  H   UNL     1      46.773   8.054  11.833  0.00  0.00    +0.000 HD
BRANCH   2  11
ATOM     10  N   UNL     1      47.804   4.927  17.759  0.00  0.00    +0.000 N 
ATOM     11  C   UNL     1      48.595   5.037  16.647  0.00  0.00    +0.000 C 
ATOM     12  O   UNL     1      49.775   4.716  16.668  0.00  0.00    +0.000 OA
ATOM     13  H   UNL     1      48.232   4.508  18.579  0.00  0.00    +0.000 HD
ATOM     14  H   UNL     1      46.798   4.936  17.714  0.00  0.00    +0.000 HD
ENDBRANCH   2  11
ENDBRANCH   1   6
BRANCH   1  15
ATOM     15  C   UNL     1      44.717   5.503  11.079  0.00  0.00    +0.000 A 
ATOM     16  C   UNL     1      43.698   4.807  11.738  0.00  0.00    +0.000 A 
ATOM     17  C   UNL     1      43.358   3.520  11.334  0.00  0.00    +0.000 A 
ATOM     18  C   UNL     1      44.033   2.916  10.273  0.00  0.00    +0.000 A 
ATOM     19  F   UNL     1      43.654   1.673   9.938  0.00  0.00    +0.000 F 
ATOM     20  C   UNL     1      45.068   3.565   9.578  0.00  0.00    +0.000 A 
ATOM     21  C   UNL     1      45.391   4.871  10.011  0.00  0.00    +0.000 A 
BRANCH  20  22
ATOM     22  C   UNL     1      45.784   2.936   8.437  0.00  0.00    +0.000 A 
ATOM     23  C   UNL     1      46.208   3.685   7.318  0.00  0.00    +0.000 A 
ATOM     24  C   UNL     1      46.882   3.091   6.242  0.00  0.00    +0.000 A 
ATOM     25  C   UNL     1      47.168   1.732   6.267  0.00  0.00    +0.000 A 
ATOM     26  C   UNL     1      46.769   0.980   7.361  0.00  0.00    +0.000 A 
ATOM     27  F   UNL     1      47.047  -0.330   7.397  0.00  0.00    +0.000 F 
ATOM     28  C   UNL     1      46.083   1.561   8.426  0.00  0.00    +0.000 A 
ENDBRANCH  20  22
ENDBRANCH   1  15
TORSDOF 4
ENDMDL
MODEL 7
REMARK VINA RESULT:    -7.348      2.455      3.607
REMARK INTER + INTRA:         -10.058
REMARK INTER:                  -9.681
REMARK INTRA:                  -0.378
REMARK UNBOUND:                -0.992
REMARK  Name = 
REMARK  4 active torsions:
REMARK  status: ('A' for Active; 'I' for Inactive)
REMARK    1  A    between atoms: C_2  and  C_4
REMARK    2  A    between atoms: N_8  and  C_9
REMARK    3  A    between atoms: C_9  and  C_10
REMARK    4  A    between atoms: C_15  and  C_16
REMARK                            x       y       z     vdW  Elec       q    Type
REMARK                         _______ _______ _______ _____ _____    ______ ____
ROOT
ATOM      1  C   UNL     1      43.591   3.659  11.234  0.00  0.00    +0.000 C 
ENDROOT
BRANCH   1   6
ATOM      2  C   UNL     1      46.523   2.735   7.130  0.00  0.00    +0.000 A 
ATOM      3  C   UNL     1      46.271   3.939   7.780  0.00  0.00    +0.000 A 
ATOM      4  C   UNL     1      45.573   3.927   8.987  0.00  0.00    +0.000 A 
ATOM      5  C   UNL     1      45.115   2.725   9.516  0.00  0.00    +0.000 A 
ATOM      6  N   UNL     1      44.479   2.628  10.736  0.00  0.00    +0.000 N 
ATOM      7  N   UNL     1      45.350   1.555   8.891  0.00  0.00    +0.000 NA
ATOM      8  C   UNL     1      46.034   1.579   7.713  0.00  0.00    +0.000 A 
ATOM      9  H   UNL     1      44.169   1.670  10.858  0.00  0.00    +0.000 HD
BRANCH   2  11
ATOM     10  N   UNL     1      48.615   2.419   5.938  0.00  0.00    +0.000 N 
ATOM     11  C   UNL     1      47.270   2.661   5.858  0.00  0.00    +0.000 C 
ATOM     12  O   UNL     1      46.706   2.782   4.778  0.00  0.00    +0.000 OA
ATOM     13  H   UNL     1      49.104   2.284   5.059  0.00  0.00    +0.000 HD
ATOM     14  H   UNL     1      49.055   2.067   6.773  0.00  0.00    +0.000 HD
ENDBRANCH   2  11
ENDBRANCH   1   6
BRANCH   1  15
ATOM     15  C   UNL     1      44.325   4.880  11.739  0.00  0.00    +0.000 A 
ATOM     16  C   UNL     1      43.987   6.158  11.281  0.00  0.00    +0.000 A 
ATOM     17  C   UNL     1      44.607   7.280  11.823  0.00  0.00    +0.000 A 
ATOM     18  C   UNL     1      45.570   7.136  12.823  0.00  0.00    +0.000 A 
ATOM     19  F   UNL     1      46.128   8.260  13.299  0.00  0.00    +0.000 F 
ATOM     20  C   UNL     1      45.951   5.877  13.317  0.00  0.00    +0.000 A 
ATOM     21  C   UNL     1      45.305   4.757  12.747  0.00  0.00    +0.000 A 
BRANCH  20  22
ATOM     22  C   UNL     1      46.966   5.713  14.392  0.00  0.00    +0.000 A 
ATOM     23  C   UNL     1      48.032   6.622  14.559  0.00  0.00    +0.000 A 
ATOM     24  C   UNL     1      48.987   6.466  15.572  0.00  0.00    +0.000 A 
ATOM     25  C   UNL     1      48.890   5.402  16.460  0.00  0.00    +0.000 A 
ATOM     26  C   UNL     1      47.844   4.502  16.320  0.00  0.00    +0.000 A 
ATOM     27  F   UNL     1      47.738   3.478  17.176  0.00  0.00    +0.000 F 
ATOM     28  C   UNL     1      46.901   4.643  15.304  0.00  0.00    +0.000 A 
ENDBRANCH  20  22
ENDBRANCH   1  15
TORSDOF 4
ENDMDL
MODEL 8
REMARK VINA RESULT:    -7.180      5.119      8.094
REMARK INTER + INTRA:          -9.851
REMARK INTER:                  -9.228
REMARK INTRA:                  -0.623
REMARK UNBOUND:                -0.992
REMARK  Name = 
REMARK  4 active torsions:
REMARK  status: ('A' for Active; 'I' for Inactive)
REMARK    1  A    between atoms: C_2  and  C_4
REMARK    2  A    between atoms: N_8  and  C_9
REMARK    3  A    between atoms: C_9  and  C_10
REMARK    4  A    between atoms: C_15  and  C_16
REMARK                            x       y       z     vdW  Elec       q    Type
REMARK                         _______ _______ _______ _____ _____    ______ ____
ROOT
ATOM      1  C   UNL     1      45.458   3.970  13.636  0.00  0.00    +0.000 C 
ENDROOT
BRANCH   1   6
ATOM      2  C   UNL     1      48.846   4.971  17.353  0.00  0.00    +0.000 A 
ATOM      3  C   UNL     1      47.993   3.881  17.208  0.00  0.00    +0.000 A 
ATOM      4  C   UNL     1      47.275   3.733  16.022  0.00  0.00    +0.000 A 
ATOM      5  C   UNL     1      47.396   4.680  15.010  0.00  0.00    +0.000 A 
ATOM      6  N   UNL     1      46.771   4.564  13.786  0.00  0.00    +0.000 N 
ATOM      7  N   UNL     1      48.214   5.742  15.144  0.00  0.00    +0.000 NA
ATOM      8  C   UNL     1      48.912   5.875  16.307  0.00  0.00    +0.000 A 
ATOM      9  H   UNL     1      46.943   5.414  13.259  0.00  0.00    +0.000 HD
BRANCH   2  11
ATOM     10  N   UNL     1      50.474   4.170  18.966  0.00  0.00    +0.000 N 
ATOM     11  C   UNL     1      49.653   5.191  18.570  0.00  0.00    +0.000 C 
ATOM     12  O   UNL     1      49.611   6.250  19.182  0.00  0.00    +0.000 OA
ATOM     13  H   UNL     1      51.088   4.360  19.752  0.00  0.00    +0.000 HD
ATOM     14  H   UNL     1      50.721   3.404  18.360  0.00  0.00    +0.000 HD
ENDBRANCH   2  11
ENDBRANCH   1   6
BRANCH   1  15
ATOM     15  C   UNL     1      44.903   4.105  12.236  0.00  0.00    +0.000 A 
ATOM     16  C   UNL     1      43.810   4.940  11.978  0.00  0.00    +0.000 A 
ATOM     17  C   UNL     1      43.368   5.126  10.671  0.00  0.00    +0.000 A 
ATOM     18  C   UNL     1      44.010   4.479   9.614  0.00  0.00    +0.000 A 
ATOM     19  F   UNL     1      43.531   4.703   8.381  0.00  0.00    +0.000 F 
ATOM     20  C   UNL     1      45.108   3.626   9.816  0.00  0.00    +0.000 A 
ATOM     21  C   UNL     1      45.534   3.457  11.153  0.00  0.00    +0.000 A 
BRANCH  20  22
ATOM     22  C   UNL     1      45.809   2.943   8.696  0.00  0.00    +0.000 A 
ATOM     23  C   UNL     1      46.402   3.662   7.637  0.00  0.00    +0.000 A 
ATOM     24  C   UNL     1      47.061   3.018   6.581  0.00  0.00    +0.000 A 
ATOM     25  C   UNL     1      47.161   1.632   6.568  0.00  0.00    +0.000 A 
ATOM     26  C   UNL     1      46.594   0.907   7.605  0.00  0.00    +0.000 A 
ATOM     27  F   UNL     1      46.692  -0.429   7.604  0.00  0.00    +0.000 F 
ATOM     28  C   UNL     1      45.922   1.541   8.648  0.00  0.00    +0.000 A 
ENDBRANCH  20  22
ENDBRANCH   1  15
TORSDOF 4
ENDMDL
MODEL 9
REMARK VINA RESULT:    -7.067      4.005      7.229
REMARK INTER + INTRA:          -9.711
REMARK INTER:                  -8.928
REMARK INTRA:                  -0.783
REMARK UNBOUND:                -0.992
REMARK  Name = 
REMARK  4 active torsions:
REMARK  status: ('A' for Active; 'I' for Inactive)
REMARK    1  A    between atoms: C_2  and  C_4
REMARK    2  A    between atoms: N_8  and  C_9
REMARK    3  A    between atoms: C_9  and  C_10
REMARK    4  A    between atoms: C_15  and  C_16
REMARK                            x       y       z     vdW  Elec       q    Type
REMARK                         _______ _______ _______ _____ _____    ______ ____
ROOT
ATOM      1  C   UNL     1      45.449   3.876  13.469  0.00  0.00    +0.000 C 
ENDROOT
BRANCH   1   6
ATOM      2  C   UNL     1      47.718   8.374  12.518  0.00  0.00    +0.000 A 
ATOM      3  C   UNL     1      46.416   8.115  12.933  0.00  0.00    +0.000 A 
ATOM      4  C   UNL     1      46.065   6.815  13.296  0.00  0.00    +0.000 A 
ATOM      5  C   UNL     1      47.003   5.791  13.218  0.00  0.00    +0.000 A 
ATOM      6  N   UNL     1      46.748   4.498  13.624  0.00  0.00    +0.000 N 
ATOM      7  N   UNL     1      48.264   6.032  12.811  0.00  0.00    +0.000 NA
ATOM      8  C   UNL     1      48.596   7.306  12.460  0.00  0.00    +0.000 A 
ATOM      9  H   UNL     1      47.552   3.926  13.389  0.00  0.00    +0.000 HD
BRANCH   2  11
ATOM     10  N   UNL     1      47.427  10.784  12.574  0.00  0.00    +0.000 N 
ATOM     11  C   UNL     1      48.174   9.725  12.132  0.00  0.00    +0.000 C 
ATOM     12  O   UNL     1      49.189   9.892  11.470  0.00  0.00    +0.000 OA
ATOM     13  H   UNL     1      47.794  11.710  12.377  0.00  0.00    +0.000 HD
ATOM     14  H   UNL     1      46.750  10.701  13.315  0.00  0.00    +0.000 HD
ENDBRANCH   2  11
ENDBRANCH   1   6
BRANCH   1  15
ATOM     15  C   UNL     1      44.912   3.969  12.059  0.00  0.00    +0.000 A 
ATOM     16  C   UNL     1      43.798   4.765  11.769  0.00  0.00    +0.000 A 
ATOM     17  C   UNL     1      43.371   4.914  10.453  0.00  0.00    +0.000 A 
ATOM     18  C   UNL     1      44.048   4.269   9.418  0.00  0.00    +0.000 A 
ATOM     19  F   UNL     1      43.581   4.456   8.174  0.00  0.00    +0.000 F 
ATOM     20  C   UNL     1      45.168   3.453   9.652  0.00  0.00    +0.000 A 
ATOM     21  C   UNL     1      45.578   3.321  10.998  0.00  0.00    +0.000 A 
BRANCH  20  22
ATOM     22  C   UNL     1      45.907   2.772   8.555  0.00  0.00    +0.000 A 
ATOM     23  C   UNL     1      46.553   3.494   7.529  0.00  0.00    +0.000 A 
ATOM     24  C   UNL     1      47.247   2.852   6.495  0.00  0.00    +0.000 A 
ATOM     25  C   UNL     1      47.330   1.465   6.471  0.00  0.00    +0.000 A 
ATOM     26  C   UNL     1      46.710   0.737   7.475  0.00  0.00    +0.000 A 
ATOM     27  F   UNL     1      46.791  -0.601   7.465  0.00  0.00    +0.000 F 
ATOM     28  C   UNL     1      46.003   1.369   8.496  0.00  0.00    +0.000 A 
ENDBRANCH  20  22
ENDBRANCH   1  15
TORSDOF 4
ENDMDL
