MODEL 1
REMARK VINA RESULT:    -9.186      0.000      0.000
REMARK INTER + INTRA:         -11.942
REMARK INTER:                 -11.334
REMARK INTRA:                  -0.608
REMARK UNBOUND:                -0.608
REMARK  Name = 
REMARK  4 active torsions:
REMARK  status: ('A' for Active; 'I' for Inactive)
REMARK    1  A    between atoms: C_2  and  C_4
REMARK    2  A    between atoms: N_8  and  C_9
REMARK    3  A    between atoms: C_9  and  C_10
REMARK    4  A    between atoms: C_14  and  C_15
REMARK                            x       y       z     vdW  Elec       q    Type
REMARK                         _______ _______ _______ _____ _____    ______ ____
ROOT
ATOM      1  C   UNL     1      46.396   2.289   7.698  0.00  0.00    +0.000 A 
ATOM      2  C   UNL     1      45.616   1.788   8.731  0.00  0.00    +0.000 A 
ATOM      3  C   UNL     1      44.753   2.644   9.407  0.00  0.00    +0.000 A 
ATOM      4  C   UNL     1      44.699   3.993   9.065  0.00  0.00    +0.000 A 
ATOM      5  N   UNL     1      43.804   4.872   9.638  0.00  0.00    +0.000 N 
ATOM      6  N   UNL     1      45.463   4.494   8.075  0.00  0.00    +0.000 NA
ATOM      7  C   UNL     1      46.297   3.643   7.416  0.00  0.00    +0.000 A 
ATOM      8  H   UNL     1      44.015   5.810   9.306  0.00  0.00    +0.000 HD
ENDROOT
BRANCH   1  10
ATOM      9  N   UNL     1      48.455   2.021   6.446  0.00  0.00    +0.000 N 
ATOM     10  C   UNL     1      47.315   1.436   6.921  0.00  0.00    +0.000 C 
ATOM     11  O   UNL     1      47.084   0.248   6.737  0.00  0.00    +0.000 OA
ATOM     12  H   UNL     1      49.122   1.415   5.986  0.00  0.00    +0.000 HD
ATOM     13  H   UNL     1      48.793   2.919   6.774  0.00  0.00    +0.000 HD
ENDBRANCH   1  10
BRANCH   5  14
ATOM     14  C   UNL     1      43.471   4.781  11.049  0.00  0.00    +0.000 C 
BRANCH  14  15
ATOM     15  C   UNL     1      44.681   5.055  11.903  0.00  0.00    +0.000 A 
ATOM     16  C   UNL     1      44.917   4.303  13.046  0.00  0.00    +0.000 A 
ATOM     17  N   UNL     1      45.919   4.548  13.913  0.00  0.00    +0.000 NA
ATOM     18  C   UNL     1      46.730   5.598  13.631  0.00  0.00    +0.000 A 
ATOM     19  C   UNL     1      46.599   6.444  12.527  0.00  0.00    +0.000 A 
ATOM     20  C   UNL     1      45.533   6.144  11.667  0.00  0.00    +0.000 A 
BRANCH  19  21
ATOM     21  C   UNL     1      47.504   7.583  12.282  0.00  0.00    +0.000 A 
ATOM     22  C   UNL     1      48.852   7.407  11.935  0.00  0.00    +0.000 A 
ATOM     23  C   UNL     1      49.680   8.505  11.703  0.00  0.00    +0.000 A 
ATOM     24  C   UNL     1      49.140   9.771  11.829  0.00  0.00    +0.000 A 
ATOM     25  N   UNL     1      47.853  10.001  12.159  0.00  0.00    +0.000 NA
ATOM     26  C   UNL     1      47.075   8.910  12.371  0.00  0.00    +0.000 A 
ENDBRANCH  19  21
ENDBRANCH  14  15
ENDBRANCH   5  14
TORSDOF 4
ENDMDL
MODEL 2
REMARK VINA RESULT:    -8.911      1.702      3.323
REMARK INTER + INTRA:         -11.603
REMARK INTER:                 -10.885
REMARK INTRA:                  -0.718
REMARK UNBOUND:                -0.608
REMARK  Name = 
REMARK  4 active torsions:
REMARK  status: ('A' for Active; 'I' for Inactive)
REMARK    1  A    between atoms: C_2  and  C_4
REMARK    2  A    between atoms: N_8  and  C_9
REMARK    3  A    between atoms: C_9  and  C_10
REMARK    4  A    between atoms: C_14  and  C_15
REMARK                            x       y       z     vdW  Elec       q    Type
REMARK                         _______ _______ _______ _____ _____    ______ ____
ROOT
ATOM      1  C   UNL     1      46.446   2.297   7.695  0.00  0.00    +0.000 A 
ATOM      2  C   UNL     1      45.652   1.828   8.732  0.00  0.00    +0.000 A 
ATOM      3  C   UNL     1      44.785   2.708   9.374  0.00  0.00    +0.000 A 
ATOM      4  C   UNL     1      44.743   4.047   8.994  0.00  0.00    +0.000 A 
ATOM      5  N   UNL     1      43.847   4.946   9.532  0.00  0.00    +0.000 N 
ATOM      6  N   UNL     1      45.521   4.516   8.001  0.00  0.00    +0.000 NA
ATOM      7  C   UNL     1      46.359   3.643   7.375  0.00  0.00    +0.000 A 
ATOM      8  H   UNL     1      44.067   5.874   9.177  0.00  0.00    +0.000 HD
ENDROOT
BRANCH   1  10
ATOM      9  N   UNL     1      48.510   1.987   6.460  0.00  0.00    +0.000 N 
ATOM     10  C   UNL     1      47.369   1.417   6.952  0.00  0.00    +0.000 C 
ATOM     11  O   UNL     1      47.141   0.222   6.812  0.00  0.00    +0.000 OA
ATOM     12  H   UNL     1      49.179   1.365   6.024  0.00  0.00    +0.000 HD
ATOM     13  H   UNL     1      48.845   2.896   6.755  0.00  0.00    +0.000 HD
ENDBRANCH   1  10
BRANCH   5  14
ATOM     14  C   UNL     1      43.498   4.896  10.942  0.00  0.00    +0.000 C 
BRANCH  14  15
ATOM     15  C   UNL     1      44.532   5.606  11.775  0.00  0.00    +0.000 A 
ATOM     16  C   UNL     1      44.891   6.914  11.481  0.00  0.00    +0.000 A 
ATOM     17  N   UNL     1      45.875   7.585  12.115  0.00  0.00    +0.000 NA
ATOM     18  C   UNL     1      46.538   6.918  13.091  0.00  0.00    +0.000 A 
ATOM     19  C   UNL     1      46.291   5.599  13.479  0.00  0.00    +0.000 A 
ATOM     20  C   UNL     1      45.264   4.952  12.778  0.00  0.00    +0.000 A 
BRANCH  19  21
ATOM     21  C   UNL     1      47.060   4.921  14.540  0.00  0.00    +0.000 A 
ATOM     22  C   UNL     1      47.672   5.625  15.587  0.00  0.00    +0.000 A 
ATOM     23  C   UNL     1      48.387   4.953  16.579  0.00  0.00    +0.000 A 
ATOM     24  C   UNL     1      48.481   3.576  16.500  0.00  0.00    +0.000 A 
ATOM     25  N   UNL     1      47.914   2.847  15.518  0.00  0.00    +0.000 NA
ATOM     26  C   UNL     1      47.222   3.532  14.574  0.00  0.00    +0.000 A 
ENDBRANCH  19  21
ENDBRANCH  14  15
ENDBRANCH   5  14
TORSDOF 4
ENDMDL
MODEL 3
REMARK VINA RESULT:    -8.220      2.907      6.717
REMARK INTER + INTRA:         -10.750
REMARK INTER:                  -9.950
REMARK INTRA:                  -0.800
REMARK UNBOUND:                -0.608
REMARK  Name = 
REMARK  4 active torsions:
REMARK  status: ('A' for Active; 'I' for Inactive)
REMARK    1  A    between atoms: C_2  and  C_4
REMARK    2  A    between atoms: N_8  and  C_9
REMARK    3  A    between atoms: C_9  and  C_10
REMARK    4  A    between atoms: C_14  and  C_15
REMARK                            x       y       z     vdW  Elec       q    Type
REMARK                         _______ _______ _______ _____ _____    ______ ____
ROOT
ATOM      1  C   UNL     1      48.360   7.119  12.910  0.00  0.00    +0.000 A 
ATOM      2  C   UNL     1      47.667   7.640  11.825  0.00  0.00    +0.000 A 
ATOM      3  C   UNL     1      46.312   7.356  11.685  0.00  0.00    +0.000 A 
ATOM      4  C   UNL     1      45.673   6.533  12.610  0.00  0.00    +0.000 A 
ATOM      5  N   UNL     1      44.318   6.284  12.574  0.00  0.00    +0.000 N 
ATOM      6  N   UNL     1      46.339   6.009  13.657  0.00  0.00    +0.000 NA
ATOM      7  C   UNL     1      47.663   6.303  13.786  0.00  0.00    +0.000 A 
ATOM      8  H   UNL     1      44.098   5.587  13.281  0.00  0.00    +0.000 HD
ENDROOT
BRANCH   1  10
ATOM      9  N   UNL     1      50.605   7.399  12.038  0.00  0.00    +0.000 N 
ATOM     10  C   UNL     1      49.791   7.399  13.136  0.00  0.00    +0.000 C 
ATOM     11  O   UNL     1      50.225   7.654  14.252  0.00  0.00    +0.000 OA
ATOM     12  H   UNL     1      51.568   7.672  12.184  0.00  0.00    +0.000 HD
ATOM     13  H   UNL     1      50.252   7.431  11.089  0.00  0.00    +0.000 HD
ENDBRANCH   1  10
BRANCH   5  14
ATOM     14  C   UNL     1      43.625   6.113  11.309  0.00  0.00    +0.000 C 
BRANCH  14  15
ATOM     15  C   UNL     1      43.775   4.703  10.803  0.00  0.00    +0.000 A 
ATOM     16  C   UNL     1      43.162   3.651  11.470  0.00  0.00    +0.000 A 
ATOM     17  N   UNL     1      43.327   2.354  11.140  0.00  0.00    +0.000 NA
ATOM     18  C   UNL     1      44.146   2.088  10.092  0.00  0.00    +0.000 A 
ATOM     19  C   UNL     1      44.835   3.046   9.344  0.00  0.00    +0.000 A 
ATOM     20  C   UNL     1      44.632   4.375   9.741  0.00  0.00    +0.000 A 
BRANCH  19  21
ATOM     21  C   UNL     1      45.728   2.693   8.224  0.00  0.00    +0.000 A 
ATOM     22  C   UNL     1      46.034   3.598   7.197  0.00  0.00    +0.000 A 
ATOM     23  C   UNL     1      46.888   3.236   6.155  0.00  0.00    +0.000 A 
ATOM     24  C   UNL     1      47.420   1.960   6.158  0.00  0.00    +0.000 A 
ATOM     25  N   UNL     1      47.162   1.049   7.117  0.00  0.00    +0.000 NA
ATOM     26  C   UNL     1      46.333   1.437   8.118  0.00  0.00    +0.000 A 
ENDBRANCH  19  21
ENDBRANCH  14  15
ENDBRANCH   5  14
TORSDOF 4
ENDMDL
MODEL 4
REMARK VINA RESULT:    -8.091      2.920      6.947
REMARK INTER + INTRA:         -10.592
REMARK INTER:                 -10.046
REMARK INTRA:                  -0.545
REMARK UNBOUND:                -0.608
REMARK  Name = 
REMARK  4 active torsions:
REMARK  status: ('A' for Active; 'I' for Inactive)
REMARK    1  A    between atoms: C_2  and  C_4
REMARK    2  A    between atoms: N_8  and  C_9
REMARK    3  A    between atoms: C_9  and  C_10
REMARK    4  A    between atoms: C_14  and  C_15
REMARK                            x       y       z     vdW  Elec       q    Type
REMARK                         _______ _______ _______ _____ _____    ______ ____
ROOT
ATOM      1  C   UNL     1      47.884   6.866  13.987  0.00  0.00    +0.000 A 
ATOM      2  C   UNL     1      47.110   5.728  13.804  0.00  0.00    +0.000 A 
ATOM      3  C   UNL     1      46.129   5.725  12.818  0.00  0.00    +0.000 A 
ATOM      4  C   UNL     1      45.912   6.864  12.047  0.00  0.00    +0.000 A 
ATOM      5  N   UNL     1      45.015   6.896  11.000  0.00  0.00    +0.000 N 
ATOM      6  N   UNL     1      46.645   7.980  12.226  0.00  0.00    +0.000 NA
ATOM      7  C   UNL     1      47.608   7.966  13.189  0.00  0.00    +0.000 A 
ATOM      8  H   UNL     1      44.957   7.850  10.652  0.00  0.00    +0.000 HD
ENDROOT
BRANCH   1  10
ATOM      9  N   UNL     1      48.589   6.811  16.306  0.00  0.00    +0.000 N 
ATOM     10  C   UNL     1      48.958   6.933  14.996  0.00  0.00    +0.000 C 
ATOM     11  O   UNL     1      50.132   7.058  14.673  0.00  0.00    +0.000 OA
ATOM     12  H   UNL     1      49.335   6.773  16.989  0.00  0.00    +0.000 HD
ATOM     13  H   UNL     1      47.678   6.471  16.594  0.00  0.00    +0.000 HD
ENDBRANCH   1  10
BRANCH   5  14
ATOM     14  C   UNL     1      43.745   6.196  11.086  0.00  0.00    +0.000 C 
BRANCH  14  15
ATOM     15  C   UNL     1      43.884   4.773  10.612  0.00  0.00    +0.000 A 
ATOM     16  C   UNL     1      43.253   3.742  11.294  0.00  0.00    +0.000 A 
ATOM     17  N   UNL     1      43.407   2.437  10.994  0.00  0.00    +0.000 NA
ATOM     18  C   UNL     1      44.233   2.140   9.961  0.00  0.00    +0.000 A 
ATOM     19  C   UNL     1      44.940   3.074   9.199  0.00  0.00    +0.000 A 
ATOM     20  C   UNL     1      44.747   4.414   9.565  0.00  0.00    +0.000 A 
BRANCH  19  21
ATOM     21  C   UNL     1      45.840   2.688   8.096  0.00  0.00    +0.000 A 
ATOM     22  C   UNL     1      46.163   3.567   7.051  0.00  0.00    +0.000 A 
ATOM     23  C   UNL     1      47.023   3.173   6.026  0.00  0.00    +0.000 A 
ATOM     24  C   UNL     1      47.544   1.893   6.063  0.00  0.00    +0.000 A 
ATOM     25  N   UNL     1      47.269   1.006   7.040  0.00  0.00    +0.000 NA
ATOM     26  C   UNL     1      46.435   1.425   8.024  0.00  0.00    +0.000 A 
ENDBRANCH  19  21
ENDBRANCH  14  15
ENDBRANCH   5  14
TORSDOF 4
ENDMDL
MODEL 5
REMARK VINA RESULT:    -7.933      1.786      2.382
REMARK INTER + INTRA:         -10.396
REMARK INTER:                 -10.247
REMARK INTRA:                  -0.149
REMARK UNBOUND:                -0.608
REMARK  Name = 
REMARK  4 active torsions:
REMARK  status: ('A' for Active; 'I' for Inactive)
REMARK    1  A    between atoms: C_2  and  C_4
REMARK    2  A    between atoms: N_8  and  C_9
REMARK    3  A    between atoms: C_9  and  C_10
REMARK    4  A    between atoms: C_14  and  C_15
REMARK                            x       y       z     vdW  Elec       q    Type
REMARK                         _______ _______ _______ _____ _____    ______ ____
ROOT
ATOM      1  C   UNL     1      46.675   2.495   7.163  0.00  0.00    +0.000 A 
ATOM      2  C   UNL     1      46.141   3.705   7.586  0.00  0.00    +0.000 A 
ATOM      3  C   UNL     1      45.403   3.747   8.765  0.00  0.00    +0.000 A 
ATOM      4  C   UNL     1      45.184   2.579   9.492  0.00  0.00    +0.000 A 
ATOM      5  N   UNL     1      44.536   2.570  10.709  0.00  0.00    +0.000 N 
ATOM      6  N   UNL     1      45.683   1.397   9.083  0.00  0.00    +0.000 NA
ATOM      7  C   UNL     1      46.410   1.372   7.931  0.00  0.00    +0.000 A 
ATOM      8  H   UNL     1      44.408   1.604  11.000  0.00  0.00    +0.000 HD
ENDROOT
BRANCH   1  10
ATOM      9  N   UNL     1      47.293   3.328   4.972  0.00  0.00    +0.000 N 
ATOM     10  C   UNL     1      47.488   2.380   5.937  0.00  0.00    +0.000 C 
ATOM     11  O   UNL     1      48.323   1.496   5.804  0.00  0.00    +0.000 OA
ATOM     12  H   UNL     1      47.909   3.295   4.170  0.00  0.00    +0.000 HD
ATOM     13  H   UNL     1      46.797   4.195   5.141  0.00  0.00    +0.000 HD
ENDBRANCH   1  10
BRANCH   5  14
ATOM     14  C   UNL     1      43.398   3.440  10.954  0.00  0.00    +0.000 C 
BRANCH  14  15
ATOM     15  C   UNL     1      43.855   4.824  11.331  0.00  0.00    +0.000 A 
ATOM     16  C   UNL     1      43.023   5.917  11.125  0.00  0.00    +0.000 A 
ATOM     17  N   UNL     1      43.392   7.195  11.344  0.00  0.00    +0.000 NA
ATOM     18  C   UNL     1      44.656   7.399  11.789  0.00  0.00    +0.000 A 
ATOM     19  C   UNL     1      45.601   6.396  12.024  0.00  0.00    +0.000 A 
ATOM     20  C   UNL     1      45.161   5.089  11.769  0.00  0.00    +0.000 A 
BRANCH  19  21
ATOM     21  C   UNL     1      46.970   6.682  12.492  0.00  0.00    +0.000 A 
ATOM     22  C   UNL     1      47.853   7.497  11.768  0.00  0.00    +0.000 A 
ATOM     23  C   UNL     1      49.140   7.754  12.242  0.00  0.00    +0.000 A 
ATOM     24  C   UNL     1      49.523   7.182  13.440  0.00  0.00    +0.000 A 
ATOM     25  N   UNL     1      48.718   6.391  14.178  0.00  0.00    +0.000 NA
ATOM     26  C   UNL     1      47.473   6.168  13.691  0.00  0.00    +0.000 A 
ENDBRANCH  19  21
ENDBRANCH  14  15
ENDBRANCH   5  14
TORSDOF 4
ENDMDL
MODEL 6
REMARK VINA RESULT:    -7.910      1.784      2.457
REMARK INTER + INTRA:         -10.368
REMARK INTER:                  -9.792
REMARK INTRA:                  -0.576
REMARK UNBOUND:                -0.608
REMARK  Name = 
REMARK  4 active torsions:
REMARK  status: ('A' for Active; 'I' for Inactive)
REMARK    1  A    between atoms: C_2  and  C_4
REMARK    2  A    between atoms: N_8  and  C_9
REMARK    3  A    between atoms: C_9  and  C_10
REMARK    4  A    between atoms: C_14  and  C_15
REMARK                            x       y       z     vdW  Elec       q    Type
REMARK                         _______ _______ _______ _____ _____    ______ ____
ROOT
ATOM      1  C   UNL     1      46.291   2.054   7.977  0.00  0.00    +0.000 A 
ATOM      2  C   UNL     1      45.508   1.789   9.092  0.00  0.00    +0.000 A 
ATOM      3  C   UNL     1      44.788   2.825   9.679  0.00  0.00    +0.000 A 
ATOM      4  C   UNL     1      44.881   4.117   9.165  0.00  0.00    +0.000 A 
ATOM      5  N   UNL     1      44.129   5.167   9.648  0.00  0.00    +0.000 N 
ATOM      6  N   UNL     1      45.651   4.389   8.094  0.00  0.00    +0.000 NA
ATOM      7  C   UNL     1      46.343   3.363   7.524  0.00  0.00    +0.000 A 
ATOM      8  H   UNL     1      44.436   6.022   9.189  0.00  0.00    +0.000 HD
ENDROOT
BRANCH   1  10
ATOM      9  N   UNL     1      46.774  -0.295   7.619  0.00  0.00    +0.000 N 
ATOM     10  C   UNL     1      47.060   1.000   7.288  0.00  0.00    +0.000 C 
ATOM     11  O   UNL     1      47.894   1.271   6.433  0.00  0.00    +0.000 OA
ATOM     12  H   UNL     1      47.243  -1.016   7.087  0.00  0.00    +0.000 HD
ATOM     13  H   UNL     1      45.943  -0.563   8.132  0.00  0.00    +0.000 HD
ENDBRANCH   1  10
BRANCH   5  14
ATOM     14  C   UNL     1      43.858   5.297  11.069  0.00  0.00    +0.000 C 
BRANCH  14  15
ATOM     15  C   UNL     1      44.581   6.485  11.645  0.00  0.00    +0.000 A 
ATOM     16  C   UNL     1      44.167   7.774  11.337  0.00  0.00    +0.000 A 
ATOM     17  N   UNL     1      44.818   8.887  11.732  0.00  0.00    +0.000 NA
ATOM     18  C   UNL     1      45.941   8.710  12.470  0.00  0.00    +0.000 A 
ATOM     19  C   UNL     1      46.477   7.474  12.839  0.00  0.00    +0.000 A 
ATOM     20  C   UNL     1      45.762   6.354  12.391  0.00  0.00    +0.000 A 
BRANCH  19  21
ATOM     21  C   UNL     1      47.715   7.345  13.630  0.00  0.00    +0.000 A 
ATOM     22  C   UNL     1      48.764   8.272  13.536  0.00  0.00    +0.000 A 
ATOM     23  C   UNL     1      49.919   8.126  14.304  0.00  0.00    +0.000 A 
ATOM     24  C   UNL     1      50.007   7.040  15.155  0.00  0.00    +0.000 A 
ATOM     25  N   UNL     1      49.033   6.118  15.287  0.00  0.00    +0.000 NA
ATOM     26  C   UNL     1      47.921   6.295  14.531  0.00  0.00    +0.000 A 
ENDBRANCH  19  21
ENDBRANCH  14  15
ENDBRANCH   5  14
TORSDOF 4
ENDMDL
MODEL 7
REMARK VINA RESULT:    -7.636      2.835      6.774
REMARK INTER + INTRA:         -10.030
REMARK INTER:                  -9.348
REMARK INTRA:                  -0.682
REMARK UNBOUND:                -0.608
REMARK  Name = 
REMARK  4 active torsions:
REMARK  status: ('A' for Active; 'I' for Inactive)
REMARK    1  A    between atoms: C_2  and  C_4
REMARK    2  A    between atoms: N_8  and  C_9
REMARK    3  A    between atoms: C_9  and  C_10
REMARK    4  A    between atoms: C_14  and  C_15
REMARK                            x       y       z     vdW  Elec       q    Type
REMARK                         _______ _______ _______ _____ _____    ______ ____
ROOT
ATOM      1  C   UNL     1      49.257   8.090  12.105  0.00  0.00    +0.000 A 
ATOM      2  C   UNL     1      48.033   8.700  11.867  0.00  0.00    +0.000 A 
ATOM      3  C   UNL     1      46.862   8.029  12.208  0.00  0.00    +0.000 A 
ATOM      4  C   UNL     1      46.925   6.750  12.755  0.00  0.00    +0.000 A 
ATOM      5  N   UNL     1      45.808   6.070  13.192  0.00  0.00    +0.000 N 
ATOM      6  N   UNL     1      48.107   6.141  12.975  0.00  0.00    +0.000 NA
ATOM      7  C   UNL     1      49.245   6.813  12.644  0.00  0.00    +0.000 A 
ATOM      8  H   UNL     1      46.086   5.128  13.458  0.00  0.00    +0.000 HD
ENDROOT
BRANCH   1  10
ATOM      9  N   UNL     1      51.679   8.123  12.209  0.00  0.00    +0.000 N 
ATOM     10  C   UNL     1      50.538   8.751  11.792  0.00  0.00    +0.000 C 
ATOM     11  O   UNL     1      50.581   9.797  11.158  0.00  0.00    +0.000 OA
ATOM     12  H   UNL     1      52.557   8.535  11.921  0.00  0.00    +0.000 HD
ATOM     13  H   UNL     1      51.697   7.158  12.517  0.00  0.00    +0.000 HD
ENDBRANCH   1  10
BRANCH   5  14
ATOM     14  C   UNL     1      44.552   6.158  12.467  0.00  0.00    +0.000 C 
BRANCH  14  15
ATOM     15  C   UNL     1      44.290   4.890  11.697  0.00  0.00    +0.000 A 
ATOM     16  C   UNL     1      43.379   3.957  12.173  0.00  0.00    +0.000 A 
ATOM     17  N   UNL     1      43.160   2.758  11.597  0.00  0.00    +0.000 NA
ATOM     18  C   UNL     1      43.886   2.470  10.489  0.00  0.00    +0.000 A 
ATOM     19  C   UNL     1      44.844   3.308   9.912  0.00  0.00    +0.000 A 
ATOM     20  C   UNL     1      45.034   4.536  10.562  0.00  0.00    +0.000 A 
BRANCH  19  21
ATOM     21  C   UNL     1      45.617   2.931   8.713  0.00  0.00    +0.000 A 
ATOM     22  C   UNL     1      45.985   3.866   7.734  0.00  0.00    +0.000 A 
ATOM     23  C   UNL     1      46.722   3.478   6.616  0.00  0.00    +0.000 A 
ATOM     24  C   UNL     1      47.077   2.148   6.494  0.00  0.00    +0.000 A 
ATOM     25  N   UNL     1      46.752   1.206   7.402  0.00  0.00    +0.000 NA
ATOM     26  C   UNL     1      46.040   1.619   8.479  0.00  0.00    +0.000 A 
ENDBRANCH  19  21
ENDBRANCH  14  15
ENDBRANCH   5  14
TORSDOF 4
ENDMDL
MODEL 8
REMARK VINA RESULT:    -7.280      2.236      2.757
REMARK INTER + INTRA:          -9.591
REMARK INTER:                  -9.222
REMARK INTRA:                  -0.369
REMARK UNBOUND:                -0.608
REMARK  Name = 
REMARK  4 active torsions:
REMARK  status: ('A' for Active; 'I' for Inactive)
REMARK    1  A    between atoms: C_2  and  C_4
REMARK    2  A    between atoms: N_8  and  C_9
REMARK    3  A    between atoms: C_9  and  C_10
REMARK    4  A    between atoms: C_14  and  C_15
REMARK                            x       y       z     vdW  Elec       q    Type
REMARK                         _______ _______ _______ _____ _____    ______ ____
ROOT
ATOM      1  C   UNL     1      46.491   2.560   7.379  0.00  0.00    +0.000 A 
ATOM      2  C   UNL     1      46.332   3.807   7.967  0.00  0.00    +0.000 A 
ATOM      3  C   UNL     1      45.543   3.925   9.108  0.00  0.00    +0.000 A 
ATOM      4  C   UNL     1      44.901   2.804   9.629  0.00  0.00    +0.000 A 
ATOM      5  N   UNL     1      44.177   2.839  10.803  0.00  0.00    +0.000 N 
ATOM      6  N   UNL     1      45.034   1.592   9.057  0.00  0.00    +0.000 NA
ATOM      7  C   UNL     1      45.816   1.490   7.946  0.00  0.00    +0.000 A 
ATOM      8  H   UNL     1      43.724   1.937  10.930  0.00  0.00    +0.000 HD
ENDROOT
BRANCH   1  10
ATOM      9  N   UNL     1      46.995   3.057   5.060  0.00  0.00    +0.000 N 
ATOM     10  C   UNL     1      47.332   2.356   6.184  0.00  0.00    +0.000 C 
ATOM     11  O   UNL     1      48.307   1.617   6.206  0.00  0.00    +0.000 OA
ATOM     12  H   UNL     1      47.620   2.979   4.269  0.00  0.00    +0.000 HD
ATOM     13  H   UNL     1      46.355   3.844   5.071  0.00  0.00    +0.000 HD
ENDBRANCH   1  10
BRANCH   5  14
ATOM     14  C   UNL     1      43.357   3.990  11.137  0.00  0.00    +0.000 C 
BRANCH  14  15
ATOM     15  C   UNL     1      44.196   5.092  11.729  0.00  0.00    +0.000 A 
ATOM     16  C   UNL     1      45.070   4.823  12.773  0.00  0.00    +0.000 A 
ATOM     17  N   UNL     1      45.782   5.767  13.421  0.00  0.00    +0.000 NA
ATOM     18  C   UNL     1      45.614   7.048  13.009  0.00  0.00    +0.000 A 
ATOM     19  C   UNL     1      44.760   7.461  11.984  0.00  0.00    +0.000 A 
ATOM     20  C   UNL     1      44.040   6.435  11.356  0.00  0.00    +0.000 A 
BRANCH  19  21
ATOM     21  C   UNL     1      44.608   8.875  11.592  0.00  0.00    +0.000 A 
ATOM     22  C   UNL     1      45.455   9.882  12.079  0.00  0.00    +0.000 A 
ATOM     23  C   UNL     1      45.288  11.209  11.684  0.00  0.00    +0.000 A 
ATOM     24  C   UNL     1      44.264  11.508  10.805  0.00  0.00    +0.000 A 
ATOM     25  N   UNL     1      43.420  10.583  10.305  0.00  0.00    +0.000 NA
ATOM     26  C   UNL     1      43.615   9.303  10.706  0.00  0.00    +0.000 A 
ENDBRANCH  19  21
ENDBRANCH  14  15
ENDBRANCH   5  14
TORSDOF 4
ENDMDL
MODEL 9
REMARK VINA RESULT:    -6.894      4.035      7.924
REMARK INTER + INTRA:          -9.114
REMARK INTER:                  -8.678
REMARK INTRA:                  -0.436
REMARK UNBOUND:                -0.608
REMARK  Name = 
REMARK  4 active torsions:
REMARK  status: ('A' for Active; 'I' for Inactive)
REMARK    1  A    between atoms: C_2  and  C_4
REMARK    2  A    between atoms: N_8  and  C_9
REMARK    3  A    between atoms: C_9  and  C_10
REMARK    4  A    between atoms: C_14  and  C_15
REMARK                            x       y       z     vdW  Elec       q    Type
REMARK                         _______ _______ _______ _____ _____    ______ ____
ROOT
ATOM      1  C   UNL     1      48.777   5.022  17.286  0.00  0.00    +0.000 A 
ATOM      2  C   UNL     1      47.774   4.072  17.152  0.00  0.00    +0.000 A 
ATOM      3  C   UNL     1      47.047   4.014  15.967  0.00  0.00    +0.000 A 
ATOM      4  C   UNL     1      47.308   4.922  14.944  0.00  0.00    +0.000 A 
ATOM      5  N   UNL     1      46.682   4.862  13.717  0.00  0.00    +0.000 N 
ATOM      6  N   UNL     1      48.267   5.860  15.069  0.00  0.00    +0.000 NA
ATOM      7  C   UNL     1      48.977   5.899  16.231  0.00  0.00    +0.000 A 
ATOM      8  H   UNL     1      46.957   5.677  13.173  0.00  0.00    +0.000 HD
ENDROOT
BRANCH   1  10
ATOM      9  N   UNL     1      49.922   3.959  19.139  0.00  0.00    +0.000 N 
ATOM     10  C   UNL     1      49.605   5.126  18.503  0.00  0.00    +0.000 C 
ATOM     11  O   UNL     1      50.018   6.205  18.906  0.00  0.00    +0.000 OA
ATOM     12  H   UNL     1      50.558   4.025  19.924  0.00  0.00    +0.000 HD
ATOM     13  H   UNL     1      49.806   3.047  18.712  0.00  0.00    +0.000 HD
ENDBRANCH   1  10
BRANCH   5  14
ATOM     14  C   UNL     1      45.278   4.503  13.614  0.00  0.00    +0.000 C 
BRANCH  14  15
ATOM     15  C   UNL     1      44.815   4.559  12.182  0.00  0.00    +0.000 A 
ATOM     16  C   UNL     1      43.625   5.195  11.855  0.00  0.00    +0.000 A 
ATOM     17  N   UNL     1      43.094   5.205  10.616  0.00  0.00    +0.000 NA
ATOM     18  C   UNL     1      43.780   4.545   9.651  0.00  0.00    +0.000 A 
ATOM     19  C   UNL     1      44.979   3.852   9.843  0.00  0.00    +0.000 A 
ATOM     20  C   UNL     1      45.476   3.870  11.154  0.00  0.00    +0.000 A 
BRANCH  19  21
ATOM     21  C   UNL     1      45.671   3.137   8.754  0.00  0.00    +0.000 A 
ATOM     22  C   UNL     1      46.242   3.808   7.663  0.00  0.00    +0.000 A 
ATOM     23  C   UNL     1      46.896   3.103   6.653  0.00  0.00    +0.000 A 
ATOM     24  C   UNL     1      46.963   1.725   6.753  0.00  0.00    +0.000 A 
ATOM     25  N   UNL     1      46.432   1.028   7.777  0.00  0.00    +0.000 NA
ATOM     26  C   UNL     1      45.810   1.746   8.744  0.00  0.00    +0.000 A 
ENDBRANCH  19  21
ENDBRANCH  14  15
ENDBRANCH   5  14
TORSDOF 4
ENDMDL
