MODEL 1
REMARK VINA RESULT:    -9.065      0.000      0.000
REMARK INTER + INTRA:         -12.433
REMARK INTER:                 -11.715
REMARK INTRA:                  -0.718
REMARK UNBOUND:                -0.718
REMARK  Name = 
REMARK  6 active torsions:
REMARK  status: ('A' for Active; 'I' for Inactive)
REMARK    1  A    between atoms: C_1  and  O_2
REMARK    2  A    between atoms: O_2  and  C_3
REMARK    3  A    between atoms: C_5  and  C_6
REMARK    4  A    between atoms: N_11  and  C_12
REMARK    5  A    between atoms: C_12  and  C_13
REMARK    6  A    between atoms: C_15  and  C_16
REMARK                            x       y       z     vdW  Elec       q    Type
REMARK                         _______ _______ _______ _____ _____    ______ ____
ROOT
ATOM      1  C   UNL     1      48.906   2.650  16.290  0.00  0.00    +0.000 A 
ATOM      2  C   UNL     1      48.882   3.530  17.335  0.00  0.00    +0.000 A 
ATOM      3  C   UNL     1      47.937   4.515  17.215  0.00  0.00    +0.000 A 
ATOM      4  N   UNL     1      47.077   4.638  16.171  0.00  0.00    +0.000 NA
ATOM      5  C   UNL     1      47.178   3.707  15.220  0.00  0.00    +0.000 A 
ATOM      6  N   UNL     1      46.309   3.695  14.141  0.00  0.00    +0.000 N 
ATOM      7  N   UNL     1      48.075   2.718  15.235  0.00  0.00    +0.000 NA
ATOM      8  H   UNL     1      46.735   3.092  13.444  0.00  0.00    +0.000 HD
ENDROOT
BRANCH   3   9
ATOM      9  C   UNL     1      47.816   5.541  18.297  0.00  0.00    +0.000 C 
ATOM     10  N   UNL     1      46.592   5.613  18.906  0.00  0.00    +0.000 N 
ATOM     11  O   UNL     1      48.742   6.271  18.622  0.00  0.00    +0.000 OA
ATOM     12  H   UNL     1      45.853   4.975  18.635  0.00  0.00    +0.000 HD
ATOM     13  H   UNL     1      46.451   6.268  19.661  0.00  0.00    +0.000 HD
ENDBRANCH   3   9
BRANCH   1  15
ATOM     14  C   UNL     1      50.910   1.931  17.262  0.00  0.00    +0.000 C 
ATOM     15  O   UNL     1      49.848   1.642  16.357  0.00  0.00    +0.000 OA
ENDBRANCH   1  15
BRANCH   6  16
ATOM     16  C   UNL     1      45.919   4.999  13.647  0.00  0.00    +0.000 C 
BRANCH  16  17
ATOM     17  C   UNL     1      45.125   4.824  12.376  0.00  0.00    +0.000 A 
ATOM     18  C   UNL     1      45.702   4.216  11.246  0.00  0.00    +0.000 A 
ATOM     19  C   UNL     1      44.997   4.062  10.033  0.00  0.00    +0.000 A 
ATOM     20  C   UNL     1      43.676   4.550   9.994  0.00  0.00    +0.000 A 
ATOM     21  C   UNL     1      43.089   5.155  11.108  0.00  0.00    +0.000 A 
ATOM     22  C   UNL     1      43.817   5.292  12.284  0.00  0.00    +0.000 A 
ATOM     23  F   UNL     1      43.242   5.892  13.336  0.00  0.00    +0.000 F 
BRANCH  19  24
ATOM     24  C   UNL     1      45.624   3.416   8.852  0.00  0.00    +0.000 A 
ATOM     25  C   UNL     1      46.042   4.170   7.737  0.00  0.00    +0.000 A 
ATOM     26  C   UNL     1      46.651   3.573   6.629  0.00  0.00    +0.000 A 
ATOM     27  C   UNL     1      46.843   2.196   6.598  0.00  0.00    +0.000 A 
ATOM     28  C   UNL     1      46.429   1.427   7.680  0.00  0.00    +0.000 A 
ATOM     29 CL   UNL     1      46.652  -0.280   7.645  0.00  0.00    +0.000 Cl
ATOM     30  C   UNL     1      45.834   2.025   8.796  0.00  0.00    +0.000 A 
ENDBRANCH  19  24
ENDBRANCH  16  17
ENDBRANCH   6  16
TORSDOF 5
ENDMDL
MODEL 2
REMARK VINA RESULT:    -8.634      2.368      3.248
REMARK INTER + INTRA:         -11.876
REMARK INTER:                 -11.320
REMARK INTRA:                  -0.556
REMARK UNBOUND:                -0.718
REMARK  Name = 
REMARK  6 active torsions:
REMARK  status: ('A' for Active; 'I' for Inactive)
REMARK    1  A    between atoms: C_1  and  O_2
REMARK    2  A    between atoms: O_2  and  C_3
REMARK    3  A    between atoms: C_5  and  C_6
REMARK    4  A    between atoms: N_11  and  C_12
REMARK    5  A    between atoms: C_12  and  C_13
REMARK    6  A    between atoms: C_15  and  C_16
REMARK                            x       y       z     vdW  Elec       q    Type
REMARK                         _______ _______ _______ _____ _____    ______ ____
ROOT
ATOM      1  C   UNL     1      48.679   7.532  13.919  0.00  0.00    +0.000 A 
ATOM      2  C   UNL     1      48.605   6.412  14.697  0.00  0.00    +0.000 A 
ATOM      3  C   UNL     1      47.522   5.616  14.430  0.00  0.00    +0.000 A 
ATOM      4  N   UNL     1      46.587   5.877  13.480  0.00  0.00    +0.000 NA
ATOM      5  C   UNL     1      46.776   6.988  12.766  0.00  0.00    +0.000 A 
ATOM      6  N   UNL     1      45.922   7.320  11.727  0.00  0.00    +0.000 N 
ATOM      7  N   UNL     1      47.788   7.838  12.959  0.00  0.00    +0.000 NA
ATOM      8  H   UNL     1      46.095   8.299  11.523  0.00  0.00    +0.000 HD
ENDROOT
BRANCH   3   9
ATOM      9  C   UNL     1      47.331   4.360  15.220  0.00  0.00    +0.000 C 
ATOM     10  N   UNL     1      46.934   4.534  16.518  0.00  0.00    +0.000 N 
ATOM     11  O   UNL     1      47.518   3.247  14.747  0.00  0.00    +0.000 OA
ATOM     12  H   UNL     1      46.759   5.467  16.873  0.00  0.00    +0.000 HD
ATOM     13  H   UNL     1      46.764   3.726  17.098  0.00  0.00    +0.000 HD
ENDBRANCH   3   9
BRANCH   1  15
ATOM     14  C   UNL     1      50.711   7.817  15.046  0.00  0.00    +0.000 C 
ATOM     15  O   UNL     1      49.748   8.374  14.155  0.00  0.00    +0.000 OA
ENDBRANCH   1  15
BRANCH   6  16
ATOM     16  C   UNL     1      44.528   6.991  11.944  0.00  0.00    +0.000 C 
BRANCH  16  17
ATOM     17  C   UNL     1      44.289   5.565  11.515  0.00  0.00    +0.000 A 
ATOM     18  C   UNL     1      44.976   5.021  10.414  0.00  0.00    +0.000 A 
ATOM     19  C   UNL     1      44.756   3.700   9.968  0.00  0.00    +0.000 A 
ATOM     20  C   UNL     1      43.807   2.936  10.675  0.00  0.00    +0.000 A 
ATOM     21  C   UNL     1      43.117   3.462  11.772  0.00  0.00    +0.000 A 
ATOM     22  C   UNL     1      43.359   4.768  12.178  0.00  0.00    +0.000 A 
ATOM     23  F   UNL     1      42.674   5.260  13.220  0.00  0.00    +0.000 F 
BRANCH  19  24
ATOM     24  C   UNL     1      45.492   3.144   8.804  0.00  0.00    +0.000 A 
ATOM     25  C   UNL     1      45.964   3.975   7.769  0.00  0.00    +0.000 A 
ATOM     26  C   UNL     1      46.675   3.463   6.679  0.00  0.00    +0.000 A 
ATOM     27  C   UNL     1      46.918   2.097   6.586  0.00  0.00    +0.000 A 
ATOM     28  C   UNL     1      46.452   1.253   7.588  0.00  0.00    +0.000 A 
ATOM     29 CL   UNL     1      46.737  -0.441   7.474  0.00  0.00    +0.000 Cl
ATOM     30  C   UNL     1      45.755   1.766   8.687  0.00  0.00    +0.000 A 
ENDBRANCH  19  24
ENDBRANCH  16  17
ENDBRANCH   6  16
TORSDOF 5
ENDMDL
MODEL 3
REMARK VINA RESULT:    -8.347      3.385      4.177
REMARK INTER + INTRA:         -11.505
REMARK INTER:                 -10.629
REMARK INTRA:                  -0.876
REMARK UNBOUND:                -0.718
REMARK  Name = 
REMARK  6 active torsions:
REMARK  status: ('A' for Active; 'I' for Inactive)
REMARK    1  A    between atoms: C_1  and  O_2
REMARK    2  A    between atoms: O_2  and  C_3
REMARK    3  A    between atoms: C_5  and  C_6
REMARK    4  A    between atoms: N_11  and  C_12
REMARK    5  A    between atoms: C_12  and  C_13
REMARK    6  A    between atoms: C_15  and  C_16
REMARK                            x       y       z     vdW  Elec       q    Type
REMARK                         _______ _______ _______ _____ _____    ______ ____
ROOT
ATOM      1  C   UNL     1      48.730   6.981  14.182  0.00  0.00    +0.000 A 
ATOM      2  C   UNL     1      49.420   7.859  13.395  0.00  0.00    +0.000 A 
ATOM      3  C   UNL     1      48.652   8.486  12.449  0.00  0.00    +0.000 A 
ATOM      4  N   UNL     1      47.319   8.285  12.279  0.00  0.00    +0.000 NA
ATOM      5  C   UNL     1      46.748   7.421  13.121  0.00  0.00    +0.000 A 
ATOM      6  N   UNL     1      45.383   7.188  13.084  0.00  0.00    +0.000 N 
ATOM      7  N   UNL     1      47.411   6.748  14.065  0.00  0.00    +0.000 NA
ATOM      8  H   UNL     1      45.230   6.331  13.605  0.00  0.00    +0.000 HD
ENDROOT
BRANCH   3   9
ATOM      9  C   UNL     1      49.297   9.470  11.525  0.00  0.00    +0.000 C 
ATOM     10  N   UNL     1      50.623   9.254  11.266  0.00  0.00    +0.000 N 
ATOM     11  O   UNL     1      48.687  10.408  11.030  0.00  0.00    +0.000 OA
ATOM     12  H   UNL     1      51.094   8.452  11.668  0.00  0.00    +0.000 HD
ATOM     13  H   UNL     1      51.111   9.868  10.632  0.00  0.00    +0.000 HD
ENDBRANCH   3   9
BRANCH   1  15
ATOM     14  C   UNL     1      49.007   6.577  16.471  0.00  0.00    +0.000 C 
ATOM     15  O   UNL     1      49.461   6.315  15.146  0.00  0.00    +0.000 OA
ENDBRANCH   1  15
BRANCH   6  16
ATOM     16  C   UNL     1      44.791   7.200  11.762  0.00  0.00    +0.000 C 
BRANCH  16  17
ATOM     17  C   UNL     1      44.472   5.782  11.357  0.00  0.00    +0.000 A 
ATOM     18  C   UNL     1      45.150   5.171  10.284  0.00  0.00    +0.000 A 
ATOM     19  C   UNL     1      44.857   3.857   9.861  0.00  0.00    +0.000 A 
ATOM     20  C   UNL     1      43.845   3.170  10.558  0.00  0.00    +0.000 A 
ATOM     21  C   UNL     1      43.163   3.763  11.625  0.00  0.00    +0.000 A 
ATOM     22  C   UNL     1      43.477   5.059  12.011  0.00  0.00    +0.000 A 
ATOM     23  F   UNL     1      42.800   5.616  13.024  0.00  0.00    +0.000 F 
BRANCH  19  24
ATOM     24  C   UNL     1      45.585   3.231   8.727  0.00  0.00    +0.000 A 
ATOM     25  C   UNL     1      46.094   4.003   7.664  0.00  0.00    +0.000 A 
ATOM     26  C   UNL     1      46.797   3.425   6.603  0.00  0.00    +0.000 A 
ATOM     27  C   UNL     1      46.995   2.049   6.568  0.00  0.00    +0.000 A 
ATOM     28  C   UNL     1      46.492   1.262   7.598  0.00  0.00    +0.000 A 
ATOM     29 CL   UNL     1      46.722  -0.444   7.555  0.00  0.00    +0.000 Cl
ATOM     30  C   UNL     1      45.803   1.841   8.668  0.00  0.00    +0.000 A 
ENDBRANCH  19  24
ENDBRANCH  16  17
ENDBRANCH   6  16
TORSDOF 5
ENDMDL
MODEL 4
REMARK VINA RESULT:    -8.220      1.645      2.287
REMARK INTER + INTRA:         -11.340
REMARK INTER:                 -10.590
REMARK INTRA:                  -0.750
REMARK UNBOUND:                -0.718
REMARK  Name = 
REMARK  6 active torsions:
REMARK  status: ('A' for Active; 'I' for Inactive)
REMARK    1  A    between atoms: C_1  and  O_2
REMARK    2  A    between atoms: O_2  and  C_3
REMARK    3  A    between atoms: C_5  and  C_6
REMARK    4  A    between atoms: N_11  and  C_12
REMARK    5  A    between atoms: C_12  and  C_13
REMARK    6  A    between atoms: C_15  and  C_16
REMARK                            x       y       z     vdW  Elec       q    Type
REMARK                         _______ _______ _______ _____ _____    ______ ____
ROOT
ATOM      1  C   UNL     1      49.075   6.590  15.863  0.00  0.00    +0.000 A 
ATOM      2  C   UNL     1      49.031   5.836  17.001  0.00  0.00    +0.000 A 
ATOM      3  C   UNL     1      48.175   4.768  16.933  0.00  0.00    +0.000 A 
ATOM      4  N   UNL     1      47.424   4.449  15.846  0.00  0.00    +0.000 NA
ATOM      5  C   UNL     1      47.567   5.245  14.785  0.00  0.00    +0.000 A 
ATOM      6  N   UNL     1      46.900   4.977  13.600  0.00  0.00    +0.000 N 
ATOM      7  N   UNL     1      48.361   6.318  14.757  0.00  0.00    +0.000 NA
ATOM      8  H   UNL     1      46.946   5.831  13.053  0.00  0.00    +0.000 HD
ENDROOT
BRANCH   3   9
ATOM      9  C   UNL     1      48.040   3.868  18.120  0.00  0.00    +0.000 C 
ATOM     10  N   UNL     1      47.128   2.855  17.990  0.00  0.00    +0.000 N 
ATOM     11  O   UNL     1      48.694   4.020  19.142  0.00  0.00    +0.000 OA
ATOM     12  H   UNL     1      46.622   2.737  17.121  0.00  0.00    +0.000 HD
ATOM     13  H   UNL     1      47.006   2.198  18.746  0.00  0.00    +0.000 HD
ENDBRANCH   3   9
BRANCH   1  15
ATOM     14  C   UNL     1      50.246   8.161  14.583  0.00  0.00    +0.000 C 
ATOM     15  O   UNL     1      49.916   7.686  15.885  0.00  0.00    +0.000 OA
ENDBRANCH   1  15
BRANCH   6  16
ATOM     16  C   UNL     1      45.567   4.432  13.751  0.00  0.00    +0.000 C 
BRANCH  16  17
ATOM     17  C   UNL     1      44.879   4.442  12.408  0.00  0.00    +0.000 A 
ATOM     18  C   UNL     1      45.496   3.867  11.281  0.00  0.00    +0.000 A 
ATOM     19  C   UNL     1      44.893   3.884  10.005  0.00  0.00    +0.000 A 
ATOM     20  C   UNL     1      43.635   4.509   9.899  0.00  0.00    +0.000 A 
ATOM     21  C   UNL     1      43.011   5.084  11.009  0.00  0.00    +0.000 A 
ATOM     22  C   UNL     1      43.637   5.050  12.248  0.00  0.00    +0.000 A 
ATOM     23  F   UNL     1      43.030   5.623  13.297  0.00  0.00    +0.000 F 
BRANCH  19  24
ATOM     24  C   UNL     1      45.560   3.270   8.828  0.00  0.00    +0.000 A 
ATOM     25  C   UNL     1      45.990   4.051   7.737  0.00  0.00    +0.000 A 
ATOM     26  C   UNL     1      46.636   3.485   6.634  0.00  0.00    +0.000 A 
ATOM     27  C   UNL     1      46.853   2.112   6.584  0.00  0.00    +0.000 A 
ATOM     28  C   UNL     1      46.428   1.316   7.642  0.00  0.00    +0.000 A 
ATOM     29 CL   UNL     1      46.682  -0.385   7.582  0.00  0.00    +0.000 Cl
ATOM     30  C   UNL     1      45.796   1.884   8.753  0.00  0.00    +0.000 A 
ENDBRANCH  19  24
ENDBRANCH  16  17
ENDBRANCH   6  16
TORSDOF 5
ENDMDL
MODEL 5
REMARK VINA RESULT:    -7.862      3.960      4.859
REMARK INTER + INTRA:         -10.878
REMARK INTER:                  -9.953
REMARK INTRA:                  -0.925
REMARK UNBOUND:                -0.718
REMARK  Name = 
REMARK  6 active torsions:
REMARK  status: ('A' for Active; 'I' for Inactive)
REMARK    1  A    between atoms: C_1  and  O_2
REMARK    2  A    between atoms: O_2  and  C_3
REMARK    3  A    between atoms: C_5  and  C_6
REMARK    4  A    between atoms: N_11  and  C_12
REMARK    5  A    between atoms: C_12  and  C_13
REMARK    6  A    between atoms: C_15  and  C_16
REMARK                            x       y       z     vdW  Elec       q    Type
REMARK                         _______ _______ _______ _____ _____    ______ ____
ROOT
ATOM      1  C   UNL     1      48.923   7.982  12.585  0.00  0.00    +0.000 A 
ATOM      2  C   UNL     1      48.670   9.247  12.135  0.00  0.00    +0.000 A 
ATOM      3  C   UNL     1      47.338   9.560  12.062  0.00  0.00    +0.000 A 
ATOM      4  N   UNL     1      46.327   8.718  12.404  0.00  0.00    +0.000 NA
ATOM      5  C   UNL     1      46.696   7.516  12.851  0.00  0.00    +0.000 A 
ATOM      6  N   UNL     1      45.753   6.600  13.289  0.00  0.00    +0.000 N 
ATOM      7  N   UNL     1      47.964   7.110  12.943  0.00  0.00    +0.000 NA
ATOM      8  H   UNL     1      46.226   5.703  13.319  0.00  0.00    +0.000 HD
ENDROOT
BRANCH   3   9
ATOM      9  C   UNL     1      46.935  10.918  11.582  0.00  0.00    +0.000 C 
ATOM     10  N   UNL     1      47.794  11.508  10.695  0.00  0.00    +0.000 N 
ATOM     11  O   UNL     1      45.910  11.472  11.953  0.00  0.00    +0.000 OA
ATOM     12  H   UNL     1      48.621  11.012  10.384  0.00  0.00    +0.000 HD
ATOM     13  H   UNL     1      47.569  12.415  10.314  0.00  0.00    +0.000 HD
ENDBRANCH   3   9
BRANCH   1  15
ATOM     14  C   UNL     1      50.974   7.860  11.464  0.00  0.00    +0.000 C 
ATOM     15  O   UNL     1      50.251   7.614  12.667  0.00  0.00    +0.000 OA
ENDBRANCH   1  15
BRANCH   6  16
ATOM     16  C   UNL     1      44.507   6.596  12.552  0.00  0.00    +0.000 C 
BRANCH  16  17
ATOM     17  C   UNL     1      44.277   5.216  11.987  0.00  0.00    +0.000 A 
ATOM     18  C   UNL     1      44.952   4.792  10.827  0.00  0.00    +0.000 A 
ATOM     19  C   UNL     1      44.739   3.519  10.256  0.00  0.00    +0.000 A 
ATOM     20  C   UNL     1      43.811   2.676  10.898  0.00  0.00    +0.000 A 
ATOM     21  C   UNL     1      43.133   3.083  12.051  0.00  0.00    +0.000 A 
ATOM     22  C   UNL     1      43.367   4.345  12.581  0.00  0.00    +0.000 A 
ATOM     23  F   UNL     1      42.693   4.723  13.677  0.00  0.00    +0.000 F 
BRANCH  19  24
ATOM     24  C   UNL     1      45.463   3.091   9.032  0.00  0.00    +0.000 A 
ATOM     25  C   UNL     1      45.880   4.022   8.061  0.00  0.00    +0.000 A 
ATOM     26  C   UNL     1      46.578   3.630   6.915  0.00  0.00    +0.000 A 
ATOM     27  C   UNL     1      46.864   2.287   6.700  0.00  0.00    +0.000 A 
ATOM     28  C   UNL     1      46.453   1.345   7.636  0.00  0.00    +0.000 A 
ATOM     29 CL   UNL     1      46.792  -0.323   7.371  0.00  0.00    +0.000 Cl
ATOM     30  C   UNL     1      45.769   1.737   8.791  0.00  0.00    +0.000 A 
ENDBRANCH  19  24
ENDBRANCH  16  17
ENDBRANCH   6  16
TORSDOF 5
ENDMDL
MODEL 6
REMARK VINA RESULT:    -7.560      2.686      4.509
REMARK INTER + INTRA:         -10.487
REMARK INTER:                  -9.562
REMARK INTRA:                  -0.925
REMARK UNBOUND:                -0.718
REMARK  Name = 
REMARK  6 active torsions:
REMARK  status: ('A' for Active; 'I' for Inactive)
REMARK    1  A    between atoms: C_1  and  O_2
REMARK    2  A    between atoms: O_2  and  C_3
REMARK    3  A    between atoms: C_5  and  C_6
REMARK    4  A    between atoms: N_11  and  C_12
REMARK    5  A    between atoms: C_12  and  C_13
REMARK    6  A    between atoms: C_15  and  C_16
REMARK                            x       y       z     vdW  Elec       q    Type
REMARK                         _______ _______ _______ _____ _____    ______ ____
ROOT
ATOM      1  C   UNL     1      47.881   5.261  18.656  0.00  0.00    +0.000 A 
ATOM      2  C   UNL     1      48.382   4.002  18.479  0.00  0.00    +0.000 A 
ATOM      3  C   UNL     1      49.166   3.863  17.364  0.00  0.00    +0.000 A 
ATOM      4  N   UNL     1      49.450   4.863  16.489  0.00  0.00    +0.000 NA
ATOM      5  C   UNL     1      48.924   6.056  16.777  0.00  0.00    +0.000 A 
ATOM      6  N   UNL     1      49.201   7.163  15.992  0.00  0.00    +0.000 N 
ATOM      7  N   UNL     1      48.135   6.291  17.828  0.00  0.00    +0.000 NA
ATOM      8  H   UNL     1      48.503   7.859  16.233  0.00  0.00    +0.000 HD
ENDROOT
BRANCH   3   9
ATOM      9  C   UNL     1      49.770   2.528  17.062  0.00  0.00    +0.000 C 
ATOM     10  N   UNL     1      50.848   2.182  17.831  0.00  0.00    +0.000 N 
ATOM     11  O   UNL     1      49.337   1.789  16.188  0.00  0.00    +0.000 OA
ATOM     12  H   UNL     1      51.165   2.802  18.567  0.00  0.00    +0.000 HD
ATOM     13  H   UNL     1      51.287   1.284  17.695  0.00  0.00    +0.000 HD
ENDBRANCH   3   9
BRANCH   1  15
ATOM     14  C   UNL     1      47.507   6.531  20.586  0.00  0.00    +0.000 C 
ATOM     15  O   UNL     1      47.076   5.452  19.761  0.00  0.00    +0.000 OA
ENDBRANCH   1  15
BRANCH   6  16
ATOM     16  C   UNL     1      49.319   6.900  14.573  0.00  0.00    +0.000 C 
BRANCH  16  17
ATOM     17  C   UNL     1      47.984   7.149  13.916  0.00  0.00    +0.000 A 
ATOM     18  C   UNL     1      47.273   6.096  13.310  0.00  0.00    +0.000 A 
ATOM     19  C   UNL     1      46.036   6.300  12.662  0.00  0.00    +0.000 A 
ATOM     20  C   UNL     1      45.533   7.615  12.641  0.00  0.00    +0.000 A 
ATOM     21  C   UNL     1      46.227   8.671  13.238  0.00  0.00    +0.000 A 
ATOM     22  C   UNL     1      47.444   8.432  13.863  0.00  0.00    +0.000 A 
ATOM     23  F   UNL     1      48.103   9.461  14.414  0.00  0.00    +0.000 F 
BRANCH  19  24
ATOM     24  C   UNL     1      45.301   5.174  12.030  0.00  0.00    +0.000 A 
ATOM     25  C   UNL     1      44.627   4.210  12.805  0.00  0.00    +0.000 A 
ATOM     26  C   UNL     1      43.916   3.158  12.217  0.00  0.00    +0.000 A 
ATOM     27  C   UNL     1      43.877   3.032  10.833  0.00  0.00    +0.000 A 
ATOM     28  C   UNL     1      44.544   3.963  10.045  0.00  0.00    +0.000 A 
ATOM     29 CL   UNL     1      44.511   3.807   8.331  0.00  0.00    +0.000 Cl
ATOM     30  C   UNL     1      45.242   5.025  10.631  0.00  0.00    +0.000 A 
ENDBRANCH  19  24
ENDBRANCH  16  17
ENDBRANCH   6  16
TORSDOF 5
ENDMDL
MODEL 7
REMARK VINA RESULT:    -7.347      3.499      3.970
REMARK INTER + INTRA:         -10.213
REMARK INTER:                  -9.468
REMARK INTRA:                  -0.745
REMARK UNBOUND:                -0.718
REMARK  Name = 
REMARK  6 active torsions:
REMARK  status: ('A' for Active; 'I' for Inactive)
REMARK    1  A    between atoms: C_1  and  O_2
REMARK    2  A    between atoms: O_2  and  C_3
REMARK    3  A    between atoms: C_5  and  C_6
REMARK    4  A    between atoms: N_11  and  C_12
REMARK    5  A    between atoms: C_12  and  C_13
REMARK    6  A    between atoms: C_15  and  C_16
REMARK                            x       y       z     vdW  Elec       q    Type
REMARK                         _______ _______ _______ _____ _____    ______ ____
ROOT
ATOM      1  C   UNL     1      49.951   8.890  12.645  0.00  0.00    +0.000 A 
ATOM      2  C   UNL     1      49.856   9.013  14.002  0.00  0.00    +0.000 A 
ATOM      3  C   UNL     1      48.765   8.387  14.546  0.00  0.00    +0.000 A 
ATOM      4  N   UNL     1      47.840   7.690  13.835  0.00  0.00    +0.000 NA
ATOM      5  C   UNL     1      48.050   7.619  12.519  0.00  0.00    +0.000 A 
ATOM      6  N   UNL     1      47.208   6.880  11.704  0.00  0.00    +0.000 N 
ATOM      7  N   UNL     1      49.071   8.207  11.892  0.00  0.00    +0.000 NA
ATOM      8  H   UNL     1      47.396   7.186  10.755  0.00  0.00    +0.000 HD
ENDROOT
BRANCH   3   9
ATOM      9  C   UNL     1      48.552   8.452  16.025  0.00  0.00    +0.000 C 
ATOM     10  N   UNL     1      47.592   9.333  16.444  0.00  0.00    +0.000 N 
ATOM     11  O   UNL     1      49.189   7.769  16.815  0.00  0.00    +0.000 OA
ATOM     12  H   UNL     1      47.060   9.864  15.764  0.00  0.00    +0.000 HD
ATOM     13  H   UNL     1      47.382   9.408  17.428  0.00  0.00    +0.000 HD
ENDBRANCH   3   9
BRANCH   1  15
ATOM     14  C   UNL     1      52.275   8.896  12.361  0.00  0.00    +0.000 C 
ATOM     15  O   UNL     1      51.029   9.512  12.047  0.00  0.00    +0.000 OA
ENDBRANCH   1  15
BRANCH   6  16
ATOM     16  C   UNL     1      45.809   6.906  12.075  0.00  0.00    +0.000 C 
BRANCH  16  17
ATOM     17  C   UNL     1      45.113   5.723  11.448  0.00  0.00    +0.000 A 
ATOM     18  C   UNL     1      45.693   5.041  10.362  0.00  0.00    +0.000 A 
ATOM     19  C   UNL     1      45.057   3.949   9.734  0.00  0.00    +0.000 A 
ATOM     20  C   UNL     1      43.801   3.562  10.240  0.00  0.00    +0.000 A 
ATOM     21  C   UNL     1      43.213   4.229  11.318  0.00  0.00    +0.000 A 
ATOM     22  C   UNL     1      43.868   5.302  11.908  0.00  0.00    +0.000 A 
ATOM     23  F   UNL     1      43.279   5.939  12.930  0.00  0.00    +0.000 F 
BRANCH  19  24
ATOM     24  C   UNL     1      45.686   3.243   8.589  0.00  0.00    +0.000 A 
ATOM     25  C   UNL     1      46.106   3.938   7.437  0.00  0.00    +0.000 A 
ATOM     26  C   UNL     1      46.717   3.284   6.363  0.00  0.00    +0.000 A 
ATOM     27  C   UNL     1      46.909   1.908   6.404  0.00  0.00    +0.000 A 
ATOM     28  C   UNL     1      46.493   1.195   7.524  0.00  0.00    +0.000 A 
ATOM     29 CL   UNL     1      46.716  -0.511   7.577  0.00  0.00    +0.000 Cl
ATOM     30  C   UNL     1      45.897   1.850   8.606  0.00  0.00    +0.000 A 
ENDBRANCH  19  24
ENDBRANCH  16  17
ENDBRANCH   6  16
TORSDOF 5
ENDMDL
MODEL 8
REMARK VINA RESULT:    -7.344      4.671      9.460
REMARK INTER + INTRA:         -10.208
REMARK INTER:                  -9.421
REMARK INTRA:                  -0.787
REMARK UNBOUND:                -0.718
REMARK  Name = 
REMARK  6 active torsions:
REMARK  status: ('A' for Active; 'I' for Inactive)
REMARK    1  A    between atoms: C_1  and  O_2
REMARK    2  A    between atoms: O_2  and  C_3
REMARK    3  A    between atoms: C_5  and  C_6
REMARK    4  A    between atoms: N_11  and  C_12
REMARK    5  A    between atoms: C_12  and  C_13
REMARK    6  A    between atoms: C_15  and  C_16
REMARK                            x       y       z     vdW  Elec       q    Type
REMARK                         _______ _______ _______ _____ _____    ______ ____
ROOT
ATOM      1  C   UNL     1      45.081   6.135  11.550  0.00  0.00    +0.000 A 
ATOM      2  C   UNL     1      44.460   5.065  10.970  0.00  0.00    +0.000 A 
ATOM      3  C   UNL     1      44.561   3.903  11.688  0.00  0.00    +0.000 A 
ATOM      4  N   UNL     1      45.205   3.784  12.878  0.00  0.00    +0.000 NA
ATOM      5  C   UNL     1      45.755   4.901  13.358  0.00  0.00    +0.000 A 
ATOM      6  N   UNL     1      46.381   4.912  14.594  0.00  0.00    +0.000 N 
ATOM      7  N   UNL     1      45.727   6.078  12.728  0.00  0.00    +0.000 NA
ATOM      8  H   UNL     1      46.936   5.762  14.620  0.00  0.00    +0.000 HD
ENDROOT
BRANCH   3   9
ATOM      9  C   UNL     1      43.921   2.660  11.154  0.00  0.00    +0.000 C 
ATOM     10  N   UNL     1      44.465   2.167   9.999  0.00  0.00    +0.000 N 
ATOM     11  O   UNL     1      42.974   2.116  11.705  0.00  0.00    +0.000 OA
ATOM     12  H   UNL     1      45.268   2.624   9.582  0.00  0.00    +0.000 HD
ATOM     13  H   UNL     1      44.095   1.318   9.599  0.00  0.00    +0.000 HD
ENDBRANCH   3   9
BRANCH   1  15
ATOM     14  C   UNL     1      44.928   8.465  11.716  0.00  0.00    +0.000 C 
ATOM     15  O   UNL     1      45.017   7.330  10.860  0.00  0.00    +0.000 OA
ENDBRANCH   1  15
BRANCH   6  16
ATOM     16  C   UNL     1      47.113   3.708  14.926  0.00  0.00    +0.000 C 
BRANCH  16  17
ATOM     17  C   UNL     1      47.737   3.875  16.290  0.00  0.00    +0.000 A 
ATOM     18  C   UNL     1      47.562   5.066  17.019  0.00  0.00    +0.000 A 
ATOM     19  C   UNL     1      48.154   5.266  18.285  0.00  0.00    +0.000 A 
ATOM     20  C   UNL     1      48.940   4.215  18.797  0.00  0.00    +0.000 A 
ATOM     21  C   UNL     1      49.122   3.026  18.085  0.00  0.00    +0.000 A 
ATOM     22  C   UNL     1      48.526   2.868  16.841  0.00  0.00    +0.000 A 
ATOM     23  F   UNL     1      48.728   1.728  16.165  0.00  0.00    +0.000 F 
BRANCH  19  24
ATOM     24  C   UNL     1      47.957   6.530  19.039  0.00  0.00    +0.000 A 
ATOM     25  C   UNL     1      47.666   6.526  20.417  0.00  0.00    +0.000 A 
ATOM     26  C   UNL     1      47.498   7.712  21.139  0.00  0.00    +0.000 A 
ATOM     27  C   UNL     1      47.598   8.939  20.493  0.00  0.00    +0.000 A 
ATOM     28  C   UNL     1      47.872   8.972  19.131  0.00  0.00    +0.000 A 
ATOM     29 CL   UNL     1      47.985  10.488  18.322  0.00  0.00    +0.000 Cl
ATOM     30  C   UNL     1      48.056   7.787  18.411  0.00  0.00    +0.000 A 
ENDBRANCH  19  24
ENDBRANCH  16  17
ENDBRANCH   6  16
TORSDOF 5
ENDMDL
MODEL 9
REMARK VINA RESULT:    -7.183      3.643      5.408
REMARK INTER + INTRA:         -10.000
REMARK INTER:                  -9.251
REMARK INTRA:                  -0.750
REMARK UNBOUND:                -0.718
REMARK  Name = 
REMARK  6 active torsions:
REMARK  status: ('A' for Active; 'I' for Inactive)
REMARK    1  A    between atoms: C_1  and  O_2
REMARK    2  A    between atoms: O_2  and  C_3
REMARK    3  A    between atoms: C_5  and  C_6
REMARK    4  A    between atoms: N_11  and  C_12
REMARK    5  A    between atoms: C_12  and  C_13
REMARK    6  A    between atoms: C_15  and  C_16
REMARK                            x       y       z     vdW  Elec       q    Type
REMARK                         _______ _______ _______ _____ _____    ______ ____
ROOT
ATOM      1  C   UNL     1      48.127   4.862  18.716  0.00  0.00    +0.000 A 
ATOM      2  C   UNL     1      49.120   3.924  18.740  0.00  0.00    +0.000 A 
ATOM      3  C   UNL     1      49.403   3.375  17.516  0.00  0.00    +0.000 A 
ATOM      4  N   UNL     1      48.780   3.712  16.357  0.00  0.00    +0.000 NA
ATOM      5  C   UNL     1      47.842   4.657  16.452  0.00  0.00    +0.000 A 
ATOM      6  N   UNL     1      47.187   5.125  15.324  0.00  0.00    +0.000 N 
ATOM      7  N   UNL     1      47.482   5.240  17.598  0.00  0.00    +0.000 NA
ATOM      8  H   UNL     1      46.365   5.616  15.661  0.00  0.00    +0.000 HD
ENDROOT
BRANCH   3   9
ATOM      9  C   UNL     1      50.472   2.334  17.416  0.00  0.00    +0.000 C 
ATOM     10  N   UNL     1      51.557   2.523  18.229  0.00  0.00    +0.000 N 
ATOM     11  O   UNL     1      50.391   1.376  16.660  0.00  0.00    +0.000 OA
ATOM     12  H   UNL     1      51.582   3.310  18.866  0.00  0.00    +0.000 HD
ATOM     13  H   UNL     1      52.302   1.843  18.227  0.00  0.00    +0.000 HD
ENDBRANCH   3   9
BRANCH   1  15
ATOM     14  C   UNL     1      48.503   4.869  21.026  0.00  0.00    +0.000 C 
ATOM     15  O   UNL     1      47.797   5.438  19.926  0.00  0.00    +0.000 OA
ENDBRANCH   1  15
BRANCH   6  16
ATOM     16  C   UNL     1      46.917   4.129  14.309  0.00  0.00    +0.000 C 
BRANCH  16  17
ATOM     17  C   UNL     1      46.100   4.761  13.209  0.00  0.00    +0.000 A 
ATOM     18  C   UNL     1      46.102   6.156  13.023  0.00  0.00    +0.000 A 
ATOM     19  C   UNL     1      45.329   6.782  12.022  0.00  0.00    +0.000 A 
ATOM     20  C   UNL     1      44.540   5.947  11.206  0.00  0.00    +0.000 A 
ATOM     21  C   UNL     1      44.528   4.560  11.378  0.00  0.00    +0.000 A 
ATOM     22  C   UNL     1      45.301   3.981  12.377  0.00  0.00    +0.000 A 
ATOM     23  F   UNL     1      45.261   2.651  12.538  0.00  0.00    +0.000 F 
BRANCH  19  24
ATOM     24  C   UNL     1      45.346   8.256  11.842  0.00  0.00    +0.000 A 
ATOM     25  C   UNL     1      46.379   9.051  12.377  0.00  0.00    +0.000 A 
ATOM     26  C   UNL     1      46.413  10.437  12.196  0.00  0.00    +0.000 A 
ATOM     27  C   UNL     1      45.400  11.071  11.485  0.00  0.00    +0.000 A 
ATOM     28  C   UNL     1      44.362  10.312  10.956  0.00  0.00    +0.000 A 
ATOM     29 CL   UNL     1      43.096  11.091  10.087  0.00  0.00    +0.000 Cl
ATOM     30  C   UNL     1      44.334   8.924  11.124  0.00  0.00    +0.000 A 
ENDBRANCH  19  24
ENDBRANCH  16  17
ENDBRANCH   6  16
TORSDOF 5
ENDMDL
