MODEL 1
REMARK VINA RESULT:    -9.186      0.000      0.000
REMARK INTER + INTRA:         -12.870
REMARK INTER:                 -11.871
REMARK INTRA:                  -0.999
REMARK UNBOUND:                -0.999
REMARK  Name = 
REMARK  6 active torsions:
REMARK  status: ('A' for Active; 'I' for Inactive)
REMARK    1  A    between atoms: C_1  and  O_2
REMARK    2  A    between atoms: O_2  and  C_3
REMARK    3  A    between atoms: C_6  and  C_7
REMARK    4  A    between atoms: C_11  and  C_12
REMARK    5  A    between atoms: C_12  and  N_13
REMARK    6  A    between atoms: C_17  and  C_18
REMARK                            x       y       z     vdW  Elec       q    Type
REMARK                         _______ _______ _______ _____ _____    ______ ____
ROOT
ATOM      1  C   UNL     1      43.887   5.125  11.161  0.00  0.00    +0.000 C 
ATOM      2  C   UNL     1      42.608   5.795  11.649  0.00  0.00    +0.000 C 
ATOM      3  C   UNL     1      42.707   4.308  11.655  0.00  0.00    +0.000 C 
ENDROOT
BRANCH   1   4
ATOM      4  N   UNL     1      44.209   5.134   9.720  0.00  0.00    +0.000 N 
ATOM      5  C   UNL     1      45.010   4.165   9.091  0.00  0.00    +0.000 A 
ATOM      6  C   UNL     1      44.991   2.813   9.425  0.00  0.00    +0.000 A 
ATOM      7  C   UNL     1      45.736   1.893   8.679  0.00  0.00    +0.000 A 
ATOM      8  C   UNL     1      46.502   2.345   7.612  0.00  0.00    +0.000 A 
ATOM      9  C   UNL     1      46.467   3.703   7.335  0.00  0.00    +0.000 A 
ATOM     10  N   UNL     1      45.745   4.611   8.048  0.00  0.00    +0.000 NA
ATOM     11  H   UNL     1      44.522   6.023   9.335  0.00  0.00    +0.000 HD
BRANCH   8  12
ATOM     12  C   UNL     1      47.300   1.442   6.758  0.00  0.00    +0.000 C 
ATOM     13  N   UNL     1      48.309   1.994   6.021  0.00  0.00    +0.000 N 
ATOM     14  O   UNL     1      47.054   0.241   6.692  0.00  0.00    +0.000 OA
ATOM     15  H   UNL     1      48.427   2.989   5.899  0.00  0.00    +0.000 HD
ATOM     16  H   UNL     1      48.798   1.381   5.380  0.00  0.00    +0.000 HD
ENDBRANCH   8  12
ENDBRANCH   1   4
BRANCH   1  21
ATOM     17  C   UNL     1      47.155   6.614  12.560  0.00  0.00    +0.000 A 
ATOM     18  C   UNL     1      47.381   5.790  13.672  0.00  0.00    +0.000 A 
ATOM     19  C   UNL     1      46.497   4.759  13.985  0.00  0.00    +0.000 A 
ATOM     20  C   UNL     1      45.371   4.537  13.185  0.00  0.00    +0.000 A 
ATOM     21  C   UNL     1      45.104   5.338  12.063  0.00  0.00    +0.000 A 
ATOM     22  C   UNL     1      46.009   6.368  11.783  0.00  0.00    +0.000 A 
BRANCH  17  26
ATOM     23  C   UNL     1      49.606   9.886  11.451  0.00  0.00    +0.000 A 
ATOM     24  C   UNL     1      50.182   8.621  11.512  0.00  0.00    +0.000 A 
ATOM     25  C   UNL     1      49.401   7.524  11.875  0.00  0.00    +0.000 A 
ATOM     26  C   UNL     1      48.057   7.714  12.181  0.00  0.00    +0.000 A 
ATOM     27  N   UNL     1      47.480   8.943  12.109  0.00  0.00    +0.000 NA
ATOM     28  C   UNL     1      48.258   9.987  11.754  0.00  0.00    +0.000 A 
BRANCH  23  30
ATOM     29  C   UNL     1      51.420  10.901  10.334  0.00  0.00    +0.000 C 
ATOM     30  O   UNL     1      50.244  11.050  11.115  0.00  0.00    +0.000 OA
ENDBRANCH  23  30
ENDBRANCH  17  26
ENDBRANCH   1  21
TORSDOF 5
ENDMDL
MODEL 2
REMARK VINA RESULT:    -9.065      2.835      4.303
REMARK INTER + INTRA:         -12.714
REMARK INTER:                 -11.821
REMARK INTRA:                  -0.893
REMARK UNBOUND:                -0.999
REMARK  Name = 
REMARK  6 active torsions:
REMARK  status: ('A' for Active; 'I' for Inactive)
REMARK    1  A    between atoms: C_1  and  O_2
REMARK    2  A    between atoms: O_2  and  C_3
REMARK    3  A    between atoms: C_6  and  C_7
REMARK    4  A    between atoms: C_11  and  C_12
REMARK    5  A    between atoms: C_12  and  N_13
REMARK    6  A    between atoms: C_17  and  C_18
REMARK                            x       y       z     vdW  Elec       q    Type
REMARK                         _______ _______ _______ _____ _____    ______ ____
ROOT
ATOM      1  C   UNL     1      43.995   4.953  11.313  0.00  0.00    +0.000 C 
ATOM      2  C   UNL     1      42.646   5.216  11.971  0.00  0.00    +0.000 C 
ATOM      3  C   UNL     1      43.254   3.859  12.061  0.00  0.00    +0.000 C 
ENDROOT
BRANCH   1   4
ATOM      4  N   UNL     1      44.086   4.888   9.840  0.00  0.00    +0.000 N 
ATOM      5  C   UNL     1      44.923   3.998   9.147  0.00  0.00    +0.000 A 
ATOM      6  C   UNL     1      45.168   2.689   9.558  0.00  0.00    +0.000 A 
ATOM      7  C   UNL     1      45.925   1.829   8.755  0.00  0.00    +0.000 A 
ATOM      8  C   UNL     1      46.438   2.298   7.552  0.00  0.00    +0.000 A 
ATOM      9  C   UNL     1      46.148   3.608   7.206  0.00  0.00    +0.000 A 
ATOM     10  N   UNL     1      45.411   4.457   7.973  0.00  0.00    +0.000 NA
ATOM     11  H   UNL     1      44.194   5.779   9.359  0.00  0.00    +0.000 HD
BRANCH   8  12
ATOM     12  C   UNL     1      47.227   1.452   6.633  0.00  0.00    +0.000 C 
ATOM     13  N   UNL     1      48.199   2.059   5.890  0.00  0.00    +0.000 N 
ATOM     14  O   UNL     1      47.004   0.250   6.520  0.00  0.00    +0.000 OA
ATOM     15  H   UNL     1      48.292   3.062   5.811  0.00  0.00    +0.000 HD
ATOM     16  H   UNL     1      48.679   1.487   5.207  0.00  0.00    +0.000 HD
ENDBRANCH   8  12
ENDBRANCH   1   4
BRANCH   1  21
ATOM     17  C   UNL     1      46.869   5.717  13.764  0.00  0.00    +0.000 A 
ATOM     18  C   UNL     1      47.357   6.927  13.251  0.00  0.00    +0.000 A 
ATOM     19  C   UNL     1      46.778   7.506  12.123  0.00  0.00    +0.000 A 
ATOM     20  C   UNL     1      45.698   6.880  11.491  0.00  0.00    +0.000 A 
ATOM     21  C   UNL     1      45.177   5.667  11.971  0.00  0.00    +0.000 A 
ATOM     22  C   UNL     1      45.788   5.111  13.100  0.00  0.00    +0.000 A 
BRANCH  17  26
ATOM     23  C   UNL     1      48.633   3.969  17.195  0.00  0.00    +0.000 A 
ATOM     24  C   UNL     1      47.693   3.228  16.487  0.00  0.00    +0.000 A 
ATOM     25  C   UNL     1      47.093   3.776  15.354  0.00  0.00    +0.000 A 
ATOM     26  C   UNL     1      47.439   5.064  14.954  0.00  0.00    +0.000 A 
ATOM     27  N   UNL     1      48.368   5.791  15.629  0.00  0.00    +0.000 NA
ATOM     28  C   UNL     1      48.934   5.237  16.721  0.00  0.00    +0.000 A 
BRANCH  23  30
ATOM     29  C   UNL     1      50.106   4.556  18.942  0.00  0.00    +0.000 C 
ATOM     30  O   UNL     1      49.299   3.567  18.322  0.00  0.00    +0.000 OA
ENDBRANCH  23  30
ENDBRANCH  17  26
ENDBRANCH   1  21
TORSDOF 5
ENDMDL
MODEL 3
REMARK VINA RESULT:    -7.328      3.095      7.211
REMARK INTER + INTRA:         -10.468
REMARK INTER:                 -10.449
REMARK INTRA:                  -0.019
REMARK UNBOUND:                -0.999
REMARK  Name = 
REMARK  6 active torsions:
REMARK  status: ('A' for Active; 'I' for Inactive)
REMARK    1  A    between atoms: C_1  and  O_2
REMARK    2  A    between atoms: O_2  and  C_3
REMARK    3  A    between atoms: C_6  and  C_7
REMARK    4  A    between atoms: C_11  and  C_12
REMARK    5  A    between atoms: C_12  and  N_13
REMARK    6  A    between atoms: C_17  and  C_18
REMARK                            x       y       z     vdW  Elec       q    Type
REMARK                         _______ _______ _______ _____ _____    ______ ____
ROOT
ATOM      1  C   UNL     1      46.154   7.724  12.194  0.00  0.00    +0.000 C 
ATOM      2  C   UNL     1      45.461   8.901  12.869  0.00  0.00    +0.000 C 
ATOM      3  C   UNL     1      46.238   9.126  11.618  0.00  0.00    +0.000 C 
ENDROOT
BRANCH   1   4
ATOM      4  N   UNL     1      47.350   7.126  12.820  0.00  0.00    +0.000 N 
ATOM      5  C   UNL     1      47.299   6.161  13.840  0.00  0.00    +0.000 A 
ATOM      6  C   UNL     1      46.347   5.145  13.895  0.00  0.00    +0.000 A 
ATOM      7  C   UNL     1      46.428   4.155  14.880  0.00  0.00    +0.000 A 
ATOM      8  C   UNL     1      47.461   4.204  15.808  0.00  0.00    +0.000 A 
ATOM      9  C   UNL     1      48.375   5.240  15.688  0.00  0.00    +0.000 A 
ATOM     10  N   UNL     1      48.312   6.209  14.733  0.00  0.00    +0.000 NA
ATOM     11  H   UNL     1      48.076   7.779  13.113  0.00  0.00    +0.000 HD
BRANCH   8  12
ATOM     12  C   UNL     1      47.636   3.189  16.867  0.00  0.00    +0.000 C 
ATOM     13  N   UNL     1      48.877   2.640  17.019  0.00  0.00    +0.000 N 
ATOM     14  O   UNL     1      46.697   2.832  17.572  0.00  0.00    +0.000 OA
ATOM     15  H   UNL     1      49.625   2.763  16.351  0.00  0.00    +0.000 HD
ATOM     16  H   UNL     1      48.969   1.890  17.694  0.00  0.00    +0.000 HD
ENDBRANCH   8  12
ENDBRANCH   1   4
BRANCH   1  21
ATOM     17  C   UNL     1      44.889   4.776  10.058  0.00  0.00    +0.000 A 
ATOM     18  C   UNL     1      43.523   4.769  10.376  0.00  0.00    +0.000 A 
ATOM     19  C   UNL     1      42.997   5.698  11.272  0.00  0.00    +0.000 A 
ATOM     20  C   UNL     1      43.833   6.651  11.863  0.00  0.00    +0.000 A 
ATOM     21  C   UNL     1      45.207   6.695  11.573  0.00  0.00    +0.000 A 
ATOM     22  C   UNL     1      45.702   5.743  10.675  0.00  0.00    +0.000 A 
BRANCH  17  26
ATOM     23  C   UNL     1      46.668   2.168   7.233  0.00  0.00    +0.000 A 
ATOM     24  C   UNL     1      45.988   1.609   8.310  0.00  0.00    +0.000 A 
ATOM     25  C   UNL     1      45.393   2.442   9.258  0.00  0.00    +0.000 A 
ATOM     26  C   UNL     1      45.497   3.822   9.115  0.00  0.00    +0.000 A 
ATOM     27  N   UNL     1      46.145   4.379   8.059  0.00  0.00    +0.000 NA
ATOM     28  C   UNL     1      46.711   3.551   7.156  0.00  0.00    +0.000 A 
BRANCH  23  30
ATOM     29  C   UNL     1      48.046   2.276   5.321  0.00  0.00    +0.000 C 
ATOM     30  O   UNL     1      47.301   1.482   6.232  0.00  0.00    +0.000 OA
ENDBRANCH  23  30
ENDBRANCH  17  26
ENDBRANCH   1  21
TORSDOF 5
ENDMDL
MODEL 4
REMARK VINA RESULT:    -7.263      2.245      2.898
REMARK INTER + INTRA:         -10.384
REMARK INTER:                 -10.074
REMARK INTRA:                  -0.311
REMARK UNBOUND:                -0.999
REMARK  Name = 
REMARK  6 active torsions:
REMARK  status: ('A' for Active; 'I' for Inactive)
REMARK    1  A    between atoms: C_1  and  O_2
REMARK    2  A    between atoms: O_2  and  C_3
REMARK    3  A    between atoms: C_6  and  C_7
REMARK    4  A    between atoms: C_11  and  C_12
REMARK    5  A    between atoms: C_12  and  N_13
REMARK    6  A    between atoms: C_17  and  C_18
REMARK                            x       y       z     vdW  Elec       q    Type
REMARK                         _______ _______ _______ _____ _____    ______ ____
ROOT
ATOM      1  C   UNL     1      44.088   5.463  11.103  0.00  0.00    +0.000 C 
ATOM      2  C   UNL     1      42.736   5.125  11.720  0.00  0.00    +0.000 C 
ATOM      3  C   UNL     1      43.903   4.235  11.976  0.00  0.00    +0.000 C 
ENDROOT
BRANCH   1   4
ATOM      4  N   UNL     1      44.286   5.294   9.649  0.00  0.00    +0.000 N 
ATOM      5  C   UNL     1      45.072   4.277   9.081  0.00  0.00    +0.000 A 
ATOM      6  C   UNL     1      45.138   2.979   9.583  0.00  0.00    +0.000 A 
ATOM      7  C   UNL     1      45.855   1.994   8.897  0.00  0.00    +0.000 A 
ATOM      8  C   UNL     1      46.510   2.327   7.718  0.00  0.00    +0.000 A 
ATOM      9  C   UNL     1      46.395   3.635   7.275  0.00  0.00    +0.000 A 
ATOM     10  N   UNL     1      45.698   4.606   7.929  0.00  0.00    +0.000 NA
ATOM     11  H   UNL     1      44.530   6.136   9.130  0.00  0.00    +0.000 HD
BRANCH   8  12
ATOM     12  C   UNL     1      47.270   1.345   6.918  0.00  0.00    +0.000 C 
ATOM     13  N   UNL     1      48.211   1.825   6.053  0.00  0.00    +0.000 N 
ATOM     14  O   UNL     1      47.051   0.141   7.008  0.00  0.00    +0.000 OA
ATOM     15  H   UNL     1      48.296   2.802   5.810  0.00  0.00    +0.000 HD
ATOM     16  H   UNL     1      48.671   1.151   5.453  0.00  0.00    +0.000 HD
ENDBRANCH   8  12
ENDBRANCH   1   4
BRANCH   1  21
ATOM     17  C   UNL     1      46.521   7.700  13.084  0.00  0.00    +0.000 A 
ATOM     18  C   UNL     1      46.037   8.979  12.775  0.00  0.00    +0.000 A 
ATOM     19  C   UNL     1      44.936   9.138  11.934  0.00  0.00    +0.000 A 
ATOM     20  C   UNL     1      44.304   8.016  11.390  0.00  0.00    +0.000 A 
ATOM     21  C   UNL     1      44.755   6.716  11.673  0.00  0.00    +0.000 A 
ATOM     22  C   UNL     1      45.866   6.594  12.514  0.00  0.00    +0.000 A 
BRANCH  17  26
ATOM     23  C   UNL     1      49.919   7.197  15.563  0.00  0.00    +0.000 A 
ATOM     24  C   UNL     1      49.016   6.145  15.461  0.00  0.00    +0.000 A 
ATOM     25  C   UNL     1      47.886   6.280  14.654  0.00  0.00    +0.000 A 
ATOM     26  C   UNL     1      47.676   7.473  13.969  0.00  0.00    +0.000 A 
ATOM     27  N   UNL     1      48.560   8.502  14.048  0.00  0.00    +0.000 NA
ATOM     28  C   UNL     1      49.645   8.345  14.835  0.00  0.00    +0.000 A 
BRANCH  23  30
ATOM     29  C   UNL     1      52.268   7.415  15.592  0.00  0.00    +0.000 C 
ATOM     30  O   UNL     1      51.063   7.212  16.314  0.00  0.00    +0.000 OA
ENDBRANCH  23  30
ENDBRANCH  17  26
ENDBRANCH   1  21
TORSDOF 5
ENDMDL
MODEL 5
REMARK VINA RESULT:    -6.957      5.307      8.498
REMARK INTER + INTRA:          -9.989
REMARK INTER:                  -9.100
REMARK INTRA:                  -0.889
REMARK UNBOUND:                -0.999
REMARK  Name = 
REMARK  6 active torsions:
REMARK  status: ('A' for Active; 'I' for Inactive)
REMARK    1  A    between atoms: C_1  and  O_2
REMARK    2  A    between atoms: O_2  and  C_3
REMARK    3  A    between atoms: C_6  and  C_7
REMARK    4  A    between atoms: C_11  and  C_12
REMARK    5  A    between atoms: C_12  and  N_13
REMARK    6  A    between atoms: C_17  and  C_18
REMARK                            x       y       z     vdW  Elec       q    Type
REMARK                         _______ _______ _______ _____ _____    ______ ____
ROOT
ATOM      1  C   UNL     1      49.236   7.092  16.778  0.00  0.00    +0.000 C 
ATOM      2  C   UNL     1      48.698   8.331  17.483  0.00  0.00    +0.000 C 
ATOM      3  C   UNL     1      50.155   8.026  17.545  0.00  0.00    +0.000 C 
ENDROOT
BRANCH   1   4
ATOM      4  N   UNL     1      48.939   5.755  17.331  0.00  0.00    +0.000 N 
ATOM      5  C   UNL     1      49.858   4.692  17.343  0.00  0.00    +0.000 A 
ATOM      6  C   UNL     1      51.224   4.855  17.568  0.00  0.00    +0.000 A 
ATOM      7  C   UNL     1      52.058   3.737  17.676  0.00  0.00    +0.000 A 
ATOM      8  C   UNL     1      51.512   2.467  17.543  0.00  0.00    +0.000 A 
ATOM      9  C   UNL     1      50.145   2.382  17.327  0.00  0.00    +0.000 A 
ATOM     10  N   UNL     1      49.319   3.459  17.224  0.00  0.00    +0.000 NA
ATOM     11  H   UNL     1      48.057   5.336  17.041  0.00  0.00    +0.000 HD
BRANCH   8  12
ATOM     12  C   UNL     1      52.314   1.232  17.665  0.00  0.00    +0.000 C 
ATOM     13  N   UNL     1      51.693   0.118  18.154  0.00  0.00    +0.000 N 
ATOM     14  O   UNL     1      53.503   1.210  17.362  0.00  0.00    +0.000 OA
ATOM     15  H   UNL     1      50.780   0.136  18.587  0.00  0.00    +0.000 HD
ATOM     16  H   UNL     1      52.270  -0.700  18.308  0.00  0.00    +0.000 HD
ENDBRANCH   8  12
ENDBRANCH   1   4
BRANCH   1  21
ATOM     17  C   UNL     1      47.982   6.608  13.167  0.00  0.00    +0.000 A 
ATOM     18  C   UNL     1      49.013   7.210  12.432  0.00  0.00    +0.000 A 
ATOM     19  C   UNL     1      50.112   7.774  13.079  0.00  0.00    +0.000 A 
ATOM     20  C   UNL     1      50.192   7.743  14.475  0.00  0.00    +0.000 A 
ATOM     21  C   UNL     1      49.182   7.151  15.251  0.00  0.00    +0.000 A 
ATOM     22  C   UNL     1      48.092   6.601  14.568  0.00  0.00    +0.000 A 
BRANCH  17  26
ATOM     23  C   UNL     1      44.582   4.720  11.487  0.00  0.00    +0.000 A 
ATOM     24  C   UNL     1      45.274   5.644  10.711  0.00  0.00    +0.000 A 
ATOM     25  C   UNL     1      46.396   6.284  11.237  0.00  0.00    +0.000 A 
ATOM     26  C   UNL     1      46.802   5.993  12.536  0.00  0.00    +0.000 A 
ATOM     27  N   UNL     1      46.143   5.080  13.297  0.00  0.00    +0.000 NA
ATOM     28  C   UNL     1      45.061   4.475  12.765  0.00  0.00    +0.000 A 
BRANCH  23  30
ATOM     29  C   UNL     1      43.318   2.740  11.704  0.00  0.00    +0.000 C 
ATOM     30  O   UNL     1      43.467   4.020  11.110  0.00  0.00    +0.000 OA
ENDBRANCH  23  30
ENDBRANCH  17  26
ENDBRANCH   1  21
TORSDOF 5
ENDMDL
MODEL 6
REMARK VINA RESULT:    -6.695      3.399      8.368
REMARK INTER + INTRA:          -9.650
REMARK INTER:                  -8.609
REMARK INTRA:                  -1.041
REMARK UNBOUND:                -0.999
REMARK  Name = 
REMARK  6 active torsions:
REMARK  status: ('A' for Active; 'I' for Inactive)
REMARK    1  A    between atoms: C_1  and  O_2
REMARK    2  A    between atoms: O_2  and  C_3
REMARK    3  A    between atoms: C_6  and  C_7
REMARK    4  A    between atoms: C_11  and  C_12
REMARK    5  A    between atoms: C_12  and  N_13
REMARK    6  A    between atoms: C_17  and  C_18
REMARK                            x       y       z     vdW  Elec       q    Type
REMARK                         _______ _______ _______ _____ _____    ______ ____
ROOT
ATOM      1  C   UNL     1      49.134   8.551  12.637  0.00  0.00    +0.000 C 
ATOM      2  C   UNL     1      49.887   9.293  11.539  0.00  0.00    +0.000 C 
ATOM      3  C   UNL     1      50.184   7.854  11.790  0.00  0.00    +0.000 C 
ENDROOT
BRANCH   1   4
ATOM      4  N   UNL     1      49.428   8.852  14.052  0.00  0.00    +0.000 N 
ATOM      5  C   UNL     1      49.007   8.050  15.126  0.00  0.00    +0.000 A 
ATOM      6  C   UNL     1      48.963   6.658  15.079  0.00  0.00    +0.000 A 
ATOM      7  C   UNL     1      48.639   5.924  16.225  0.00  0.00    +0.000 A 
ATOM      8  C   UNL     1      48.350   6.599  17.404  0.00  0.00    +0.000 A 
ATOM      9  C   UNL     1      48.420   7.983  17.378  0.00  0.00    +0.000 A 
ATOM     10  N   UNL     1      48.738   8.712  16.272  0.00  0.00    +0.000 NA
ATOM     11  H   UNL     1      49.249   9.809  14.353  0.00  0.00    +0.000 HD
BRANCH   8  12
ATOM     12  C   UNL     1      48.021   5.905  18.666  0.00  0.00    +0.000 C 
ATOM     13  N   UNL     1      46.723   5.533  18.865  0.00  0.00    +0.000 N 
ATOM     14  O   UNL     1      48.878   5.689  19.519  0.00  0.00    +0.000 OA
ATOM     15  H   UNL     1      45.959   5.851  18.285  0.00  0.00    +0.000 HD
ATOM     16  H   UNL     1      46.493   5.129  19.765  0.00  0.00    +0.000 HD
ENDBRANCH   8  12
ENDBRANCH   1   4
BRANCH   1  21
ATOM     17  C   UNL     1      45.865   6.830  11.538  0.00  0.00    +0.000 A 
ATOM     18  C   UNL     1      44.923   7.838  11.790  0.00  0.00    +0.000 A 
ATOM     19  C   UNL     1      45.320   9.068  12.311  0.00  0.00    +0.000 A 
ATOM     20  C   UNL     1      46.670   9.308  12.588  0.00  0.00    +0.000 A 
ATOM     21  C   UNL     1      47.647   8.327  12.352  0.00  0.00    +0.000 A 
ATOM     22  C   UNL     1      47.212   7.102  11.835  0.00  0.00    +0.000 A 
BRANCH  17  26
ATOM     23  C   UNL     1      44.840   3.116   9.779  0.00  0.00    +0.000 A 
ATOM     24  C   UNL     1      44.646   3.273  11.147  0.00  0.00    +0.000 A 
ATOM     25  C   UNL     1      44.975   4.484  11.756  0.00  0.00    +0.000 A 
ATOM     26  C   UNL     1      45.503   5.515  10.984  0.00  0.00    +0.000 A 
ATOM     27  N   UNL     1      45.682   5.377   9.644  0.00  0.00    +0.000 NA
ATOM     28  C   UNL     1      45.355   4.196   9.080  0.00  0.00    +0.000 A 
BRANCH  23  30
ATOM     29  C   UNL     1      45.681   1.407   8.386  0.00  0.00    +0.000 C 
ATOM     30  O   UNL     1      44.568   1.991   9.047  0.00  0.00    +0.000 OA
ENDBRANCH  23  30
ENDBRANCH  17  26
ENDBRANCH   1  21
TORSDOF 5
ENDMDL
MODEL 7
REMARK VINA RESULT:    -6.468      4.433      6.887
REMARK INTER + INTRA:          -9.357
REMARK INTER:                  -9.057
REMARK INTRA:                  -0.300
REMARK UNBOUND:                -0.999
REMARK  Name = 
REMARK  6 active torsions:
REMARK  status: ('A' for Active; 'I' for Inactive)
REMARK    1  A    between atoms: C_1  and  O_2
REMARK    2  A    between atoms: O_2  and  C_3
REMARK    3  A    between atoms: C_6  and  C_7
REMARK    4  A    between atoms: C_11  and  C_12
REMARK    5  A    between atoms: C_12  and  N_13
REMARK    6  A    between atoms: C_17  and  C_18
REMARK                            x       y       z     vdW  Elec       q    Type
REMARK                         _______ _______ _______ _____ _____    ______ ____
ROOT
ATOM      1  C   UNL     1      47.929   8.269  13.595  0.00  0.00    +0.000 C 
ATOM      2  C   UNL     1      48.968   7.897  12.544  0.00  0.00    +0.000 C 
ATOM      3  C   UNL     1      48.694   9.333  12.827  0.00  0.00    +0.000 C 
ENDROOT
BRANCH   1   4
ATOM      4  N   UNL     1      46.496   8.060  13.308  0.00  0.00    +0.000 N 
ATOM      5  C   UNL     1      45.955   6.835  12.880  0.00  0.00    +0.000 A 
ATOM      6  C   UNL     1      46.393   5.595  13.339  0.00  0.00    +0.000 A 
ATOM      7  C   UNL     1      45.731   4.426  12.949  0.00  0.00    +0.000 A 
ATOM      8  C   UNL     1      44.642   4.516  12.091  0.00  0.00    +0.000 A 
ATOM      9  C   UNL     1      44.260   5.783  11.680  0.00  0.00    +0.000 A 
ATOM     10  N   UNL     1      44.891   6.931  12.053  0.00  0.00    +0.000 NA
ATOM     11  H   UNL     1      46.048   8.763  12.724  0.00  0.00    +0.000 HD
BRANCH   8  12
ATOM     12  C   UNL     1      43.871   3.337  11.647  0.00  0.00    +0.000 C 
ATOM     13  N   UNL     1      43.742   2.297  12.523  0.00  0.00    +0.000 N 
ATOM     14  O   UNL     1      43.381   3.279  10.523  0.00  0.00    +0.000 OA
ATOM     15  H   UNL     1      44.277   2.220  13.377  0.00  0.00    +0.000 HD
ATOM     16  H   UNL     1      43.280   1.463  12.182  0.00  0.00    +0.000 HD
ENDBRANCH   8  12
ENDBRANCH   1   4
BRANCH   1  21
ATOM     17  C   UNL     1      49.078   6.236  16.660  0.00  0.00    +0.000 A 
ATOM     18  C   UNL     1      49.060   7.214  17.665  0.00  0.00    +0.000 A 
ATOM     19  C   UNL     1      48.684   8.525  17.374  0.00  0.00    +0.000 A 
ATOM     20  C   UNL     1      48.320   8.875  16.070  0.00  0.00    +0.000 A 
ATOM     21  C   UNL     1      48.325   7.928  15.033  0.00  0.00    +0.000 A 
ATOM     22  C   UNL     1      48.714   6.625  15.359  0.00  0.00    +0.000 A 
BRANCH  17  26
ATOM     23  C   UNL     1      50.354   2.260  17.370  0.00  0.00    +0.000 A 
ATOM     24  C   UNL     1      49.005   2.484  17.118  0.00  0.00    +0.000 A 
ATOM     25  C   UNL     1      48.554   3.783  16.882  0.00  0.00    +0.000 A 
ATOM     26  C   UNL     1      49.461   4.837  16.912  0.00  0.00    +0.000 A 
ATOM     27  N   UNL     1      50.784   4.628  17.141  0.00  0.00    +0.000 NA
ATOM     28  C   UNL     1      51.195   3.362  17.366  0.00  0.00    +0.000 A 
BRANCH  23  30
ATOM     29  C   UNL     1      52.360   1.042  17.621  0.00  0.00    +0.000 C 
ATOM     30  O   UNL     1      50.940   1.048  17.621  0.00  0.00    +0.000 OA
ENDBRANCH  23  30
ENDBRANCH  17  26
ENDBRANCH   1  21
TORSDOF 5
ENDMDL
