MODEL 1
REMARK VINA RESULT:    -9.461      0.000      0.000
REMARK INTER + INTRA:         -13.921
REMARK INTER:                 -12.780
REMARK INTRA:                  -1.141
REMARK UNBOUND:                -1.141
REMARK  Name = 
REMARK  6 active torsions:
REMARK  status: ('A' for Active; 'I' for Inactive)
REMARK    1  A    between atoms: C_2  and  C_4
REMARK    2  A    between atoms: C_7  and  N_8
REMARK    3  A    between atoms: N_8  and  C_9
REMARK    4  A    between atoms: C_9  and  C_10
REMARK    5  A    between atoms: C_10  and  C_13
REMARK    6  A    between atoms: C_17  and  C_18
REMARK                            x       y       z     vdW  Elec       q    Type
REMARK                         _______ _______ _______ _____ _____    ______ ____
ROOT
ATOM      1  C   UNL     1      43.522   5.421  12.194  0.00  0.00    +0.000 C 
ATOM      2  F   UNL     1      43.112   6.541  11.521  0.00  0.00    +0.000 F 
ATOM      3  F   UNL     1      42.710   5.356  13.294  0.00  0.00    +0.000 F 
ENDROOT
BRANCH   1   4
ATOM      4  C   UNL     1      44.991   5.510  12.564  0.00  0.00    +0.000 A 
ATOM      5  C   UNL     1      45.846   6.354  11.842  0.00  0.00    +0.000 A 
ATOM      6  C   UNL     1      47.187   6.466  12.191  0.00  0.00    +0.000 A 
ATOM      7  C   UNL     1      47.682   5.753  13.285  0.00  0.00    +0.000 A 
ATOM      8  C   UNL     1      46.852   4.920  14.060  0.00  0.00    +0.000 A 
ATOM      9  C   UNL     1      45.511   4.783  13.653  0.00  0.00    +0.000 A 
BRANCH   8  10
ATOM     10  C   UNL     1      47.352   4.269  15.292  0.00  0.00    +0.000 A 
ATOM     11  C   UNL     1      47.225   4.872  16.547  0.00  0.00    +0.000 A 
ATOM     12  C   UNL     1      47.671   4.201  17.683  0.00  0.00    +0.000 A 
ATOM     13  C   UNL     1      48.231   2.941  17.546  0.00  0.00    +0.000 A 
ATOM     14  C   UNL     1      48.321   2.404  16.273  0.00  0.00    +0.000 A 
ATOM     15  N   UNL     1      47.893   3.032  15.152  0.00  0.00    +0.000 NA
ENDBRANCH   8  10
ENDBRANCH   1   4
BRANCH   1  16
ATOM     16  C   UNL     1      43.230   4.180  11.311  0.00  0.00    +0.000 C 
BRANCH  16  17
ATOM     17  N   UNL     1      43.473   4.424   9.876  0.00  0.00    +0.000 N 
ATOM     18  H   UNL     1      42.628   4.535   9.319  0.00  0.00    +0.000 HD
BRANCH  17  22
ATOM     19  C   UNL     1      46.512   2.471   7.698  0.00  0.00    +0.000 A 
ATOM     20  C   UNL     1      46.374   3.856   7.599  0.00  0.00    +0.000 A 
ATOM     21  C   UNL     1      45.384   4.517   8.337  0.00  0.00    +0.000 A 
ATOM     22  C   UNL     1      44.532   3.826   9.204  0.00  0.00    +0.000 A 
ATOM     23  C   UNL     1      44.674   2.432   9.276  0.00  0.00    +0.000 A 
ATOM     24  C   UNL     1      45.649   1.756   8.530  0.00  0.00    +0.000 A 
BRANCH  19  26
ATOM     25  N   UNL     1      48.601   2.441   6.444  0.00  0.00    +0.000 N 
ATOM     26  C   UNL     1      47.522   1.732   6.897  0.00  0.00    +0.000 C 
ATOM     27  O   UNL     1      47.418   0.534   6.673  0.00  0.00    +0.000 OA
ATOM     28  H   UNL     1      49.327   1.909   5.982  0.00  0.00    +0.000 HD
ATOM     29  H   UNL     1      48.843   3.353   6.805  0.00  0.00    +0.000 HD
ENDBRANCH  19  26
ENDBRANCH  17  22
ENDBRANCH  16  17
ENDBRANCH   1  16
TORSDOF 6
ENDMDL
MODEL 2
REMARK VINA RESULT:    -9.090      2.107      3.980
REMARK INTER + INTRA:         -13.419
REMARK INTER:                 -12.300
REMARK INTRA:                  -1.119
REMARK UNBOUND:                -1.141
REMARK  Name = 
REMARK  6 active torsions:
REMARK  status: ('A' for Active; 'I' for Inactive)
REMARK    1  A    between atoms: C_2  and  C_4
REMARK    2  A    between atoms: C_7  and  N_8
REMARK    3  A    between atoms: N_8  and  C_9
REMARK    4  A    between atoms: C_9  and  C_10
REMARK    5  A    between atoms: C_10  and  C_13
REMARK    6  A    between atoms: C_17  and  C_18
REMARK                            x       y       z     vdW  Elec       q    Type
REMARK                         _______ _______ _______ _____ _____    ______ ____
ROOT
ATOM      1  C   UNL     1      43.292   4.994  12.570  0.00  0.00    +0.000 C 
ATOM      2  F   UNL     1      42.551   6.120  12.329  0.00  0.00    +0.000 F 
ATOM      3  F   UNL     1      42.687   4.400  13.646  0.00  0.00    +0.000 F 
ENDROOT
BRANCH   1   4
ATOM      4  C   UNL     1      44.744   5.340  12.844  0.00  0.00    +0.000 A 
ATOM      5  C   UNL     1      45.616   4.360  13.337  0.00  0.00    +0.000 A 
ATOM      6  C   UNL     1      46.955   4.656  13.564  0.00  0.00    +0.000 A 
ATOM      7  C   UNL     1      47.443   5.933  13.274  0.00  0.00    +0.000 A 
ATOM      8  C   UNL     1      46.611   6.938  12.745  0.00  0.00    +0.000 A 
ATOM      9  C   UNL     1      45.248   6.628  12.575  0.00  0.00    +0.000 A 
BRANCH   8  10
ATOM     10  C   UNL     1      47.159   8.246  12.321  0.00  0.00    +0.000 A 
ATOM     11  C   UNL     1      48.500   8.399  11.957  0.00  0.00    +0.000 A 
ATOM     12  C   UNL     1      48.960   9.640  11.524  0.00  0.00    +0.000 A 
ATOM     13  C   UNL     1      48.073  10.703  11.458  0.00  0.00    +0.000 A 
ATOM     14  C   UNL     1      46.759  10.477  11.830  0.00  0.00    +0.000 A 
ATOM     15  N   UNL     1      46.284   9.281  12.253  0.00  0.00    +0.000 NA
ENDBRANCH   8  10
ENDBRANCH   1   4
BRANCH   1  16
ATOM     16  C   UNL     1      43.151   4.041  11.357  0.00  0.00    +0.000 C 
BRANCH  16  17
ATOM     17  N   UNL     1      43.718   4.601  10.115  0.00  0.00    +0.000 N 
ATOM     18  H   UNL     1      43.103   5.248   9.625  0.00  0.00    +0.000 HD
BRANCH  17  22
ATOM     19  C   UNL     1      46.418   2.439   7.700  0.00  0.00    +0.000 A 
ATOM     20  C   UNL     1      45.612   1.758   8.614  0.00  0.00    +0.000 A 
ATOM     21  C   UNL     1      44.696   2.464   9.403  0.00  0.00    +0.000 A 
ATOM     22  C   UNL     1      44.540   3.849   9.284  0.00  0.00    +0.000 A 
ATOM     23  C   UNL     1      45.371   4.518   8.374  0.00  0.00    +0.000 A 
ATOM     24  C   UNL     1      46.305   3.826   7.590  0.00  0.00    +0.000 A 
BRANCH  19  26
ATOM     25  N   UNL     1      48.525   2.445   6.477  0.00  0.00    +0.000 N 
ATOM     26  C   UNL     1      47.431   1.728   6.878  0.00  0.00    +0.000 C 
ATOM     27  O   UNL     1      47.316   0.543   6.592  0.00  0.00    +0.000 OA
ATOM     28  H   UNL     1      49.252   1.927   5.999  0.00  0.00    +0.000 HD
ATOM     29  H   UNL     1      48.772   3.334   6.887  0.00  0.00    +0.000 HD
ENDBRANCH  19  26
ENDBRANCH  17  22
ENDBRANCH  16  17
ENDBRANCH   1  16
TORSDOF 6
ENDMDL
MODEL 3
REMARK VINA RESULT:    -8.572      2.720      4.985
REMARK INTER + INTRA:         -12.720
REMARK INTER:                 -11.721
REMARK INTRA:                  -0.999
REMARK UNBOUND:                -1.141
REMARK  Name = 
REMARK  6 active torsions:
REMARK  status: ('A' for Active; 'I' for Inactive)
REMARK    1  A    between atoms: C_2  and  C_4
REMARK    2  A    between atoms: C_7  and  N_8
REMARK    3  A    between atoms: N_8  and  C_9
REMARK    4  A    between atoms: C_9  and  C_10
REMARK    5  A    between atoms: C_10  and  C_13
REMARK    6  A    between atoms: C_17  and  C_18
REMARK                            x       y       z     vdW  Elec       q    Type
REMARK                         _______ _______ _______ _____ _____    ______ ____
ROOT
ATOM      1  C   UNL     1      44.241   4.182  12.448  0.00  0.00    +0.000 C 
ATOM      2  F   UNL     1      43.579   4.133  13.646  0.00  0.00    +0.000 F 
ATOM      3  F   UNL     1      45.030   3.062  12.439  0.00  0.00    +0.000 F 
ENDROOT
BRANCH   1   4
ATOM      4  C   UNL     1      45.049   5.458  12.318  0.00  0.00    +0.000 A 
ATOM      5  C   UNL     1      46.446   5.418  12.435  0.00  0.00    +0.000 A 
ATOM      6  C   UNL     1      47.200   6.576  12.289  0.00  0.00    +0.000 A 
ATOM      7  C   UNL     1      46.566   7.787  11.998  0.00  0.00    +0.000 A 
ATOM      8  C   UNL     1      45.169   7.868  11.838  0.00  0.00    +0.000 A 
ATOM      9  C   UNL     1      44.424   6.691  12.044  0.00  0.00    +0.000 A 
BRANCH   8  10
ATOM     10  C   UNL     1      44.516   9.124  11.404  0.00  0.00    +0.000 A 
ATOM     11  C   UNL     1      43.311   9.120  10.697  0.00  0.00    +0.000 A 
ATOM     12  C   UNL     1      42.713  10.328  10.347  0.00  0.00    +0.000 A 
ATOM     13  C   UNL     1      43.326  11.515  10.714  0.00  0.00    +0.000 A 
ATOM     14  C   UNL     1      44.516  11.442  11.418  0.00  0.00    +0.000 A 
ATOM     15  N   UNL     1      45.119  10.283  11.772  0.00  0.00    +0.000 NA
ENDBRANCH   8  10
ENDBRANCH   1   4
BRANCH   1  16
ATOM     16  C   UNL     1      43.204   4.044  11.305  0.00  0.00    +0.000 C 
BRANCH  16  17
ATOM     17  N   UNL     1      43.687   4.587  10.021  0.00  0.00    +0.000 N 
ATOM     18  H   UNL     1      42.997   5.136   9.509  0.00  0.00    +0.000 HD
BRANCH  17  22
ATOM     19  C   UNL     1      46.563   2.547   7.704  0.00  0.00    +0.000 A 
ATOM     20  C   UNL     1      45.687   1.822   8.512  0.00  0.00    +0.000 A 
ATOM     21  C   UNL     1      44.713   2.487   9.267  0.00  0.00    +0.000 A 
ATOM     22  C   UNL     1      44.570   3.878   9.215  0.00  0.00    +0.000 A 
ATOM     23  C   UNL     1      45.471   4.592   8.412  0.00  0.00    +0.000 A 
ATOM     24  C   UNL     1      46.461   3.940   7.665  0.00  0.00    +0.000 A 
BRANCH  19  26
ATOM     25  N   UNL     1      48.545   2.683   6.294  0.00  0.00    +0.000 N 
ATOM     26  C   UNL     1      47.636   1.878   6.925  0.00  0.00    +0.000 C 
ATOM     27  O   UNL     1      47.729   0.659   6.869  0.00  0.00    +0.000 OA
ATOM     28  H   UNL     1      49.324   2.216   5.846  0.00  0.00    +0.000 HD
ATOM     29  H   UNL     1      48.646   3.664   6.512  0.00  0.00    +0.000 HD
ENDBRANCH  19  26
ENDBRANCH  17  22
ENDBRANCH  16  17
ENDBRANCH   1  16
TORSDOF 6
ENDMDL
MODEL 4
REMARK VINA RESULT:    -8.552      1.720      2.032
REMARK INTER + INTRA:         -12.692
REMARK INTER:                 -11.527
REMARK INTRA:                  -1.165
REMARK UNBOUND:                -1.141
REMARK  Name = 
REMARK  6 active torsions:
REMARK  status: ('A' for Active; 'I' for Inactive)
REMARK    1  A    between atoms: C_2  and  C_4
REMARK    2  A    between atoms: C_7  and  N_8
REMARK    3  A    between atoms: N_8  and  C_9
REMARK    4  A    between atoms: C_9  and  C_10
REMARK    5  A    between atoms: C_10  and  C_13
REMARK    6  A    between atoms: C_17  and  C_18
REMARK                            x       y       z     vdW  Elec       q    Type
REMARK                         _______ _______ _______ _____ _____    ______ ____
ROOT
ATOM      1  C   UNL     1      44.701   4.398  12.509  0.00  0.00    +0.000 C 
ATOM      2  F   UNL     1      43.911   4.488  13.624  0.00  0.00    +0.000 F 
ATOM      3  F   UNL     1      45.072   3.081  12.447  0.00  0.00    +0.000 F 
ENDROOT
BRANCH   1   4
ATOM      4  C   UNL     1      45.894   5.330  12.604  0.00  0.00    +0.000 A 
ATOM      5  C   UNL     1      46.113   6.291  11.607  0.00  0.00    +0.000 A 
ATOM      6  C   UNL     1      47.186   7.170  11.697  0.00  0.00    +0.000 A 
ATOM      7  C   UNL     1      48.038   7.115  12.803  0.00  0.00    +0.000 A 
ATOM      8  C   UNL     1      47.836   6.190  13.845  0.00  0.00    +0.000 A 
ATOM      9  C   UNL     1      46.774   5.275  13.703  0.00  0.00    +0.000 A 
BRANCH   8  10
ATOM     10  C   UNL     1      48.663   6.220  15.073  0.00  0.00    +0.000 A 
ATOM     11  C   UNL     1      49.701   7.141  15.237  0.00  0.00    +0.000 A 
ATOM     12  C   UNL     1      50.425   7.159  16.427  0.00  0.00    +0.000 A 
ATOM     13  C   UNL     1      50.096   6.261  17.430  0.00  0.00    +0.000 A 
ATOM     14  C   UNL     1      49.053   5.381  17.199  0.00  0.00    +0.000 A 
ATOM     15  N   UNL     1      48.332   5.342  16.053  0.00  0.00    +0.000 NA
ENDBRANCH   8  10
ENDBRANCH   1   4
BRANCH   1  16
ATOM     16  C   UNL     1      43.832   4.708  11.263  0.00  0.00    +0.000 C 
BRANCH  16  17
ATOM     17  N   UNL     1      43.759   3.578  10.317  0.00  0.00    +0.000 N 
ATOM     18  H   UNL     1      43.311   2.743  10.692  0.00  0.00    +0.000 HD
BRANCH  17  22
ATOM     19  C   UNL     1      46.673   2.674   7.404  0.00  0.00    +0.000 A 
ATOM     20  C   UNL     1      46.307   4.002   7.625  0.00  0.00    +0.000 A 
ATOM     21  C   UNL     1      45.358   4.315   8.606  0.00  0.00    +0.000 A 
ATOM     22  C   UNL     1      44.775   3.325   9.404  0.00  0.00    +0.000 A 
ATOM     23  C   UNL     1      45.141   1.994   9.154  0.00  0.00    +0.000 A 
ATOM     24  C   UNL     1      46.076   1.666   8.163  0.00  0.00    +0.000 A 
BRANCH  19  26
ATOM     25  N   UNL     1      47.690   3.100   5.231  0.00  0.00    +0.000 N 
ATOM     26  C   UNL     1      47.642   2.302   6.341  0.00  0.00    +0.000 C 
ATOM     27  O   UNL     1      48.393   1.342   6.459  0.00  0.00    +0.000 OA
ATOM     28  H   UNL     1      48.417   2.892   4.559  0.00  0.00    +0.000 HD
ATOM     29  H   UNL     1      47.271   4.018   5.203  0.00  0.00    +0.000 HD
ENDBRANCH  19  26
ENDBRANCH  17  22
ENDBRANCH  16  17
ENDBRANCH   1  16
TORSDOF 6
ENDMDL
MODEL 5
REMARK VINA RESULT:    -8.277      2.179      3.217
REMARK INTER + INTRA:         -12.321
REMARK INTER:                 -11.338
REMARK INTRA:                  -0.983
REMARK UNBOUND:                -1.141
REMARK  Name = 
REMARK  6 active torsions:
REMARK  status: ('A' for Active; 'I' for Inactive)
REMARK    1  A    between atoms: C_2  and  C_4
REMARK    2  A    between atoms: C_7  and  N_8
REMARK    3  A    between atoms: N_8  and  C_9
REMARK    4  A    between atoms: C_9  and  C_10
REMARK    5  A    between atoms: C_10  and  C_13
REMARK    6  A    between atoms: C_17  and  C_18
REMARK                            x       y       z     vdW  Elec       q    Type
REMARK                         _______ _______ _______ _____ _____    ______ ____
ROOT
ATOM      1  C   UNL     1      44.953   6.393  11.513  0.00  0.00    +0.000 C 
ATOM      2  F   UNL     1      45.673   6.654  10.378  0.00  0.00    +0.000 F 
ATOM      3  F   UNL     1      44.290   7.560  11.783  0.00  0.00    +0.000 F 
ENDROOT
BRANCH   1   4
ATOM      4  C   UNL     1      45.859   5.967  12.652  0.00  0.00    +0.000 A 
ATOM      5  C   UNL     1      45.564   4.809  13.387  0.00  0.00    +0.000 A 
ATOM      6  C   UNL     1      46.402   4.393  14.414  0.00  0.00    +0.000 A 
ATOM      7  C   UNL     1      47.562   5.116  14.702  0.00  0.00    +0.000 A 
ATOM      8  C   UNL     1      47.916   6.265  13.968  0.00  0.00    +0.000 A 
ATOM      9  C   UNL     1      47.022   6.696  12.968  0.00  0.00    +0.000 A 
BRANCH   8  10
ATOM     10  C   UNL     1      49.207   6.953  14.192  0.00  0.00    +0.000 A 
ATOM     11  C   UNL     1      49.726   7.863  13.267  0.00  0.00    +0.000 A 
ATOM     12  C   UNL     1      50.924   8.518  13.540  0.00  0.00    +0.000 A 
ATOM     13  C   UNL     1      51.579   8.256  14.733  0.00  0.00    +0.000 A 
ATOM     14  C   UNL     1      51.003   7.346  15.604  0.00  0.00    +0.000 A 
ATOM     15  N   UNL     1      49.839   6.697  15.365  0.00  0.00    +0.000 NA
ENDBRANCH   8  10
ENDBRANCH   1   4
BRANCH   1  16
ATOM     16  C   UNL     1      43.895   5.308  11.187  0.00  0.00    +0.000 C 
BRANCH  16  17
ATOM     17  N   UNL     1      43.775   5.035   9.742  0.00  0.00    +0.000 N 
ATOM     18  H   UNL     1      42.841   5.180   9.362  0.00  0.00    +0.000 HD
BRANCH  17  22
ATOM     19  C   UNL     1      46.170   2.036   7.991  0.00  0.00    +0.000 A 
ATOM     20  C   UNL     1      45.193   1.682   8.922  0.00  0.00    +0.000 A 
ATOM     21  C   UNL     1      44.376   2.667   9.492  0.00  0.00    +0.000 A 
ATOM     22  C   UNL     1      44.493   4.014   9.131  0.00  0.00    +0.000 A 
ATOM     23  C   UNL     1      45.493   4.353   8.207  0.00  0.00    +0.000 A 
ATOM     24  C   UNL     1      46.328   3.379   7.643  0.00  0.00    +0.000 A 
BRANCH  19  26
ATOM     25  N   UNL     1      46.800  -0.293   7.648  0.00  0.00    +0.000 N 
ATOM     26  C   UNL     1      47.082   1.023   7.400  0.00  0.00    +0.000 C 
ATOM     27  O   UNL     1      48.031   1.341   6.696  0.00  0.00    +0.000 OA
ATOM     28  H   UNL     1      47.371  -0.974   7.164  0.00  0.00    +0.000 HD
ATOM     29  H   UNL     1      45.908  -0.598   8.010  0.00  0.00    +0.000 HD
ENDBRANCH  19  26
ENDBRANCH  17  22
ENDBRANCH  16  17
ENDBRANCH   1  16
TORSDOF 6
ENDMDL
MODEL 6
REMARK VINA RESULT:    -8.082      1.679      2.124
REMARK INTER + INTRA:         -12.058
REMARK INTER:                 -10.970
REMARK INTRA:                  -1.087
REMARK UNBOUND:                -1.141
REMARK  Name = 
REMARK  6 active torsions:
REMARK  status: ('A' for Active; 'I' for Inactive)
REMARK    1  A    between atoms: C_2  and  C_4
REMARK    2  A    between atoms: C_7  and  N_8
REMARK    3  A    between atoms: N_8  and  C_9
REMARK    4  A    between atoms: C_9  and  C_10
REMARK    5  A    between atoms: C_10  and  C_13
REMARK    6  A    between atoms: C_17  and  C_18
REMARK                            x       y       z     vdW  Elec       q    Type
REMARK                         _______ _______ _______ _____ _____    ______ ____
ROOT
ATOM      1  C   UNL     1      44.848   5.822  12.166  0.00  0.00    +0.000 C 
ATOM      2  F   UNL     1      44.348   6.466  11.066  0.00  0.00    +0.000 F 
ATOM      3  F   UNL     1      44.005   6.168  13.188  0.00  0.00    +0.000 F 
ENDROOT
BRANCH   1   4
ATOM      4  C   UNL     1      46.283   6.232  12.438  0.00  0.00    +0.000 A 
ATOM      5  C   UNL     1      46.992   6.975  11.483  0.00  0.00    +0.000 A 
ATOM      6  C   UNL     1      48.297   7.382  11.733  0.00  0.00    +0.000 A 
ATOM      7  C   UNL     1      48.900   7.072  12.955  0.00  0.00    +0.000 A 
ATOM      8  C   UNL     1      48.215   6.357  13.956  0.00  0.00    +0.000 A 
ATOM      9  C   UNL     1      46.913   5.911  13.656  0.00  0.00    +0.000 A 
BRANCH   8  10
ATOM     10  C   UNL     1      48.812   6.142  15.293  0.00  0.00    +0.000 A 
ATOM     11  C   UNL     1      48.178   5.364  16.265  0.00  0.00    +0.000 A 
ATOM     12  C   UNL     1      48.798   5.155  17.494  0.00  0.00    +0.000 A 
ATOM     13  C   UNL     1      50.040   5.723  17.728  0.00  0.00    +0.000 A 
ATOM     14  C   UNL     1      50.610   6.478  16.717  0.00  0.00    +0.000 A 
ATOM     15  N   UNL     1      50.031   6.696  15.513  0.00  0.00    +0.000 NA
ENDBRANCH   8  10
ENDBRANCH   1   4
BRANCH   1  16
ATOM     16  C   UNL     1      44.724   4.293  11.942  0.00  0.00    +0.000 C 
BRANCH  16  17
ATOM     17  N   UNL     1      44.102   3.950  10.648  0.00  0.00    +0.000 N 
ATOM     18  H   UNL     1      43.190   3.504  10.724  0.00  0.00    +0.000 HD
BRANCH  17  22
ATOM     19  C   UNL     1      46.616   2.765   7.474  0.00  0.00    +0.000 A 
ATOM     20  C   UNL     1      45.960   1.796   8.234  0.00  0.00    +0.000 A 
ATOM     21  C   UNL     1      45.105   2.179   9.275  0.00  0.00    +0.000 A 
ATOM     22  C   UNL     1      44.861   3.525   9.565  0.00  0.00    +0.000 A 
ATOM     23  C   UNL     1      45.543   4.486   8.802  0.00  0.00    +0.000 A 
ATOM     24  C   UNL     1      46.415   4.115   7.769  0.00  0.00    +0.000 A 
BRANCH  19  26
ATOM     25  N   UNL     1      47.349   2.944   5.158  0.00  0.00    +0.000 N 
ATOM     26  C   UNL     1      47.563   2.394   6.392  0.00  0.00    +0.000 C 
ATOM     27  O   UNL     1      48.516   1.652   6.594  0.00  0.00    +0.000 OA
ATOM     28  H   UNL     1      48.054   2.759   4.455  0.00  0.00    +0.000 HD
ATOM     29  H   UNL     1      46.735   3.732   5.013  0.00  0.00    +0.000 HD
ENDBRANCH  19  26
ENDBRANCH  17  22
ENDBRANCH  16  17
ENDBRANCH   1  16
TORSDOF 6
ENDMDL
MODEL 7
REMARK VINA RESULT:    -8.047      2.508      3.262
REMARK INTER + INTRA:         -12.010
REMARK INTER:                 -11.245
REMARK INTRA:                  -0.765
REMARK UNBOUND:                -1.141
REMARK  Name = 
REMARK  6 active torsions:
REMARK  status: ('A' for Active; 'I' for Inactive)
REMARK    1  A    between atoms: C_2  and  C_4
REMARK    2  A    between atoms: C_7  and  N_8
REMARK    3  A    between atoms: N_8  and  C_9
REMARK    4  A    between atoms: C_9  and  C_10
REMARK    5  A    between atoms: C_10  and  C_13
REMARK    6  A    between atoms: C_17  and  C_18
REMARK                            x       y       z     vdW  Elec       q    Type
REMARK                         _______ _______ _______ _____ _____    ______ ____
ROOT
ATOM      1  C   UNL     1      44.497   4.524  12.278  0.00  0.00    +0.000 C 
ATOM      2  F   UNL     1      43.973   4.299  13.523  0.00  0.00    +0.000 F 
ATOM      3  F   UNL     1      45.419   3.527  12.101  0.00  0.00    +0.000 F 
ENDROOT
BRANCH   1   4
ATOM      4  C   UNL     1      45.117   5.905  12.185  0.00  0.00    +0.000 A 
ATOM      5  C   UNL     1      44.346   6.990  11.743  0.00  0.00    +0.000 A 
ATOM      6  C   UNL     1      44.894   8.266  11.681  0.00  0.00    +0.000 A 
ATOM      7  C   UNL     1      46.215   8.476  12.086  0.00  0.00    +0.000 A 
ATOM      8  C   UNL     1      47.014   7.423  12.569  0.00  0.00    +0.000 A 
ATOM      9  C   UNL     1      46.453   6.131  12.571  0.00  0.00    +0.000 A 
BRANCH   8  10
ATOM     10  C   UNL     1      48.367   7.672  13.116  0.00  0.00    +0.000 A 
ATOM     11  C   UNL     1      48.778   7.132  14.338  0.00  0.00    +0.000 A 
ATOM     12  C   UNL     1      50.075   7.359  14.791  0.00  0.00    +0.000 A 
ATOM     13  C   UNL     1      50.937   8.118  14.016  0.00  0.00    +0.000 A 
ATOM     14  C   UNL     1      50.463   8.617  12.816  0.00  0.00    +0.000 A 
ATOM     15  N   UNL     1      49.209   8.411  12.349  0.00  0.00    +0.000 NA
ENDBRANCH   8  10
ENDBRANCH   1   4
BRANCH   1  16
ATOM     16  C   UNL     1      43.375   4.329  11.227  0.00  0.00    +0.000 C 
BRANCH  16  17
ATOM     17  N   UNL     1      43.780   4.742   9.869  0.00  0.00    +0.000 N 
ATOM     18  H   UNL     1      43.051   5.214   9.338  0.00  0.00    +0.000 HD
BRANCH  17  22
ATOM     19  C   UNL     1      46.603   2.509   7.669  0.00  0.00    +0.000 A 
ATOM     20  C   UNL     1      45.666   1.846   8.462  0.00  0.00    +0.000 A 
ATOM     21  C   UNL     1      44.710   2.576   9.178  0.00  0.00    +0.000 A 
ATOM     22  C   UNL     1      44.645   3.972   9.101  0.00  0.00    +0.000 A 
ATOM     23  C   UNL     1      45.607   4.622   8.314  0.00  0.00    +0.000 A 
ATOM     24  C   UNL     1      46.580   3.904   7.606  0.00  0.00    +0.000 A 
BRANCH  19  26
ATOM     25  N   UNL     1      48.544   2.509   6.196  0.00  0.00    +0.000 N 
ATOM     26  C   UNL     1      47.660   1.769   6.932  0.00  0.00    +0.000 C 
ATOM     27  O   UNL     1      47.761   0.551   6.999  0.00  0.00    +0.000 OA
ATOM     28  H   UNL     1      49.314   2.003   5.776  0.00  0.00    +0.000 HD
ATOM     29  H   UNL     1      48.643   3.508   6.309  0.00  0.00    +0.000 HD
ENDBRANCH  19  26
ENDBRANCH  17  22
ENDBRANCH  16  17
ENDBRANCH   1  16
TORSDOF 6
ENDMDL
MODEL 8
REMARK VINA RESULT:    -7.741      2.527      7.170
REMARK INTER + INTRA:         -11.597
REMARK INTER:                 -10.551
REMARK INTRA:                  -1.046
REMARK UNBOUND:                -1.141
REMARK  Name = 
REMARK  6 active torsions:
REMARK  status: ('A' for Active; 'I' for Inactive)
REMARK    1  A    between atoms: C_2  and  C_4
REMARK    2  A    between atoms: C_7  and  N_8
REMARK    3  A    between atoms: N_8  and  C_9
REMARK    4  A    between atoms: C_9  and  C_10
REMARK    5  A    between atoms: C_10  and  C_13
REMARK    6  A    between atoms: C_17  and  C_18
REMARK                            x       y       z     vdW  Elec       q    Type
REMARK                         _______ _______ _______ _____ _____    ______ ____
ROOT
ATOM      1  C   UNL     1      44.731   6.477  11.771  0.00  0.00    +0.000 C 
ATOM      2  F   UNL     1      44.210   6.649  13.026  0.00  0.00    +0.000 F 
ATOM      3  F   UNL     1      44.082   7.398  10.993  0.00  0.00    +0.000 F 
ENDROOT
BRANCH   1   4
ATOM      4  C   UNL     1      44.522   5.058  11.279  0.00  0.00    +0.000 A 
ATOM      5  C   UNL     1      43.528   4.255  11.857  0.00  0.00    +0.000 A 
ATOM      6  C   UNL     1      43.308   2.963  11.395  0.00  0.00    +0.000 A 
ATOM      7  C   UNL     1      44.064   2.467  10.330  0.00  0.00    +0.000 A 
ATOM      8  C   UNL     1      45.049   3.249   9.697  0.00  0.00    +0.000 A 
ATOM      9  C   UNL     1      45.289   4.535  10.219  0.00  0.00    +0.000 A 
BRANCH   8  10
ATOM     10  C   UNL     1      45.756   2.766   8.489  0.00  0.00    +0.000 A 
ATOM     11  C   UNL     1      46.083   3.624   7.436  0.00  0.00    +0.000 A 
ATOM     12  C   UNL     1      46.786   3.133   6.339  0.00  0.00    +0.000 A 
ATOM     13  C   UNL     1      47.154   1.797   6.317  0.00  0.00    +0.000 A 
ATOM     14  C   UNL     1      46.801   1.007   7.398  0.00  0.00    +0.000 A 
ATOM     15  N   UNL     1      46.119   1.458   8.478  0.00  0.00    +0.000 NA
ENDBRANCH   8  10
ENDBRANCH   1   4
BRANCH   1  16
ATOM     16  C   UNL     1      46.234   6.855  11.804  0.00  0.00    +0.000 C 
BRANCH  16  17
ATOM     17  N   UNL     1      46.755   7.022  13.175  0.00  0.00    +0.000 N 
ATOM     18  H   UNL     1      47.299   7.871  13.318  0.00  0.00    +0.000 HD
BRANCH  17  22
ATOM     19  C   UNL     1      47.885   3.812  15.669  0.00  0.00    +0.000 A 
ATOM     20  C   UNL     1      47.179   3.557  14.493  0.00  0.00    +0.000 A 
ATOM     21  C   UNL     1      46.820   4.613  13.646  0.00  0.00    +0.000 A 
ATOM     22  C   UNL     1      47.176   5.935  13.932  0.00  0.00    +0.000 A 
ATOM     23  C   UNL     1      47.869   6.175  15.128  0.00  0.00    +0.000 A 
ATOM     24  C   UNL     1      48.219   5.129  15.993  0.00  0.00    +0.000 A 
BRANCH  19  26
ATOM     25  N   UNL     1      47.584   2.690  17.811  0.00  0.00    +0.000 N 
ATOM     26  C   UNL     1      48.244   2.722  16.612  0.00  0.00    +0.000 C 
ATOM     27  O   UNL     1      49.071   1.866  16.326  0.00  0.00    +0.000 OA
ATOM     28  H   UNL     1      47.768   1.891  18.404  0.00  0.00    +0.000 HD
ATOM     29  H   UNL     1      46.741   3.219  17.981  0.00  0.00    +0.000 HD
ENDBRANCH  19  26
ENDBRANCH  17  22
ENDBRANCH  16  17
ENDBRANCH   1  16
TORSDOF 6
ENDMDL
MODEL 9
REMARK VINA RESULT:    -7.704      3.689      6.944
REMARK INTER + INTRA:         -11.547
REMARK INTER:                 -10.627
REMARK INTRA:                  -0.919
REMARK UNBOUND:                -1.141
REMARK  Name = 
REMARK  6 active torsions:
REMARK  status: ('A' for Active; 'I' for Inactive)
REMARK    1  A    between atoms: C_2  and  C_4
REMARK    2  A    between atoms: C_7  and  N_8
REMARK    3  A    between atoms: N_8  and  C_9
REMARK    4  A    between atoms: C_9  and  C_10
REMARK    5  A    between atoms: C_10  and  C_13
REMARK    6  A    between atoms: C_17  and  C_18
REMARK                            x       y       z     vdW  Elec       q    Type
REMARK                         _______ _______ _______ _____ _____    ______ ____
ROOT
ATOM      1  C   UNL     1      44.297   6.407  11.455  0.00  0.00    +0.000 C 
ATOM      2  F   UNL     1      43.047   6.962  11.377  0.00  0.00    +0.000 F 
ATOM      3  F   UNL     1      45.068   7.159  10.609  0.00  0.00    +0.000 F 
ENDROOT
BRANCH   1   4
ATOM      4  C   UNL     1      44.273   4.942  11.064  0.00  0.00    +0.000 A 
ATOM      5  C   UNL     1      43.412   4.054  11.724  0.00  0.00    +0.000 A 
ATOM      6  C   UNL     1      43.360   2.715  11.355  0.00  0.00    +0.000 A 
ATOM      7  C   UNL     1      44.151   2.254  10.300  0.00  0.00    +0.000 A 
ATOM      8  C   UNL     1      45.005   3.116   9.586  0.00  0.00    +0.000 A 
ATOM      9  C   UNL     1      45.079   4.455  10.015  0.00  0.00    +0.000 A 
BRANCH   8  10
ATOM     10  C   UNL     1      45.744   2.651   8.390  0.00  0.00    +0.000 A 
ATOM     11  C   UNL     1      46.010   3.501   7.314  0.00  0.00    +0.000 A 
ATOM     12  C   UNL     1      46.746   3.030   6.229  0.00  0.00    +0.000 A 
ATOM     13  C   UNL     1      47.204   1.723   6.241  0.00  0.00    +0.000 A 
ATOM     14  C   UNL     1      46.906   0.940   7.344  0.00  0.00    +0.000 A 
ATOM     15  N   UNL     1      46.195   1.371   8.412  0.00  0.00    +0.000 NA
ENDBRANCH   8  10
ENDBRANCH   1   4
BRANCH   1  16
ATOM     16  C   UNL     1      44.836   6.605  12.895  0.00  0.00    +0.000 C 
BRANCH  16  17
ATOM     17  N   UNL     1      45.479   7.918  13.093  0.00  0.00    +0.000 N 
ATOM     18  H   UNL     1      44.860   8.716  12.955  0.00  0.00    +0.000 HD
BRANCH  17  22
ATOM     19  C   UNL     1      49.458   8.438  11.793  0.00  0.00    +0.000 A 
ATOM     20  C   UNL     1      48.577   9.520  11.768  0.00  0.00    +0.000 A 
ATOM     21  C   UNL     1      47.261   9.364  12.220  0.00  0.00    +0.000 A 
ATOM     22  C   UNL     1      46.800   8.145  12.729  0.00  0.00    +0.000 A 
ATOM     23  C   UNL     1      47.694   7.064  12.729  0.00  0.00    +0.000 A 
ATOM     24  C   UNL     1      49.009   7.202  12.264  0.00  0.00    +0.000 A 
BRANCH  19  26
ATOM     25  N   UNL     1      51.617   7.425  11.296  0.00  0.00    +0.000 N 
ATOM     26  C   UNL     1      50.847   8.556  11.281  0.00  0.00    +0.000 C 
ATOM     27  O   UNL     1      51.284   9.609  10.833  0.00  0.00    +0.000 OA
ATOM     28  H   UNL     1      52.528   7.495  10.859  0.00  0.00    +0.000 HD
ATOM     29  H   UNL     1      51.226   6.503  11.426  0.00  0.00    +0.000 HD
ENDBRANCH  19  26
ENDBRANCH  17  22
ENDBRANCH  16  17
ENDBRANCH   1  16
TORSDOF 6
ENDMDL
