MODEL 1
REMARK VINA RESULT:    -9.246      0.000      0.000
REMARK INTER + INTRA:         -14.018
REMARK INTER:                 -13.030
REMARK INTRA:                  -0.988
REMARK UNBOUND:                -0.988
REMARK  Name = 
REMARK  8 active torsions:
REMARK  status: ('A' for Active; 'I' for Inactive)
REMARK    1  A    between atoms: C_1  and  C_2
REMARK    2  A    between atoms: C_4  and  O_5
REMARK    3  A    between atoms: O_5  and  C_6
REMARK    4  A    between atoms: C_6  and  C_7
REMARK    5  A    between atoms: C_7  and  C_10
REMARK    6  A    between atoms: C_14  and  N_15
REMARK    7  A    between atoms: N_15  and  C_16
REMARK    8  A    between atoms: C_23  and  C_24
REMARK                            x       y       z     vdW  Elec       q    Type
REMARK                         _______ _______ _______ _____ _____    ______ ____
ROOT
ATOM      1  C   UNL     1      43.616   4.495  12.390  0.00  0.00    +0.000 C 
ATOM      2  F   UNL     1      43.464   3.286  13.008  0.00  0.00    +0.000 F 
ATOM      3  F   UNL     1      42.616   5.285  12.881  0.00  0.00    +0.000 F 
ENDROOT
BRANCH   1   4
ATOM      4  C   UNL     1      44.989   5.096  12.655  0.00  0.00    +0.000 A 
ATOM      5  C   UNL     1      45.622   5.886  11.685  0.00  0.00    +0.000 A 
ATOM      6  C   UNL     1      46.897   6.402  11.918  0.00  0.00    +0.000 A 
ATOM      7  C   UNL     1      47.567   6.117  13.111  0.00  0.00    +0.000 A 
ATOM      8  C   UNL     1      46.965   5.324  14.090  0.00  0.00    +0.000 A 
ATOM      9  C   UNL     1      45.667   4.843  13.862  0.00  0.00    +0.000 A 
BRANCH   8  10
ATOM     10  N   UNL     1      47.597   5.006  15.312  0.00  0.00    +0.000 N 
ATOM     11  H   UNL     1      48.611   5.029  15.203  0.00  0.00    +0.000 HD
BRANCH  10  12
ATOM     12  C   UNL     1      47.144   4.021  16.262  0.00  0.00    +0.000 C 
ATOM     13  C   UNL     1      47.181   4.538  17.719  0.00  0.00    +0.000 C 
ATOM     14  N   UNL     1      47.757   3.244  18.144  0.00  0.00    +0.000 NA
ATOM     15  C   UNL     1      48.180   2.990  16.748  0.00  0.00    +0.000 C 
ATOM     16  H   UNL     1      47.053   2.586  18.482  0.00  0.00    +0.000 HD
ENDBRANCH  10  12
ENDBRANCH   8  10
ENDBRANCH   1   4
BRANCH   1  17
ATOM     17  C   UNL     1      43.400   4.307  10.875  0.00  0.00    +0.000 C 
BRANCH  17  18
ATOM     18  O   UNL     1      43.665   2.957  10.448  0.00  0.00    +0.000 OA
BRANCH  18  22
ATOM     19  C   UNL     1      46.709   0.214   7.653  0.00  0.00    +0.000 C 
ATOM     20  C   UNL     1      46.107   1.551   7.990  0.00  0.00    +0.000 A 
ATOM     21  C   UNL     1      45.183   1.611   9.055  0.00  0.00    +0.000 A 
ATOM     22  C   UNL     1      44.572   2.810   9.429  0.00  0.00    +0.000 A 
ATOM     23  C   UNL     1      44.894   3.972   8.729  0.00  0.00    +0.000 A 
ATOM     24  C   UNL     1      45.813   3.938   7.668  0.00  0.00    +0.000 A 
ATOM     25  C   UNL     1      46.418   2.731   7.283  0.00  0.00    +0.000 A 
BRANCH  25  26
ATOM     26  C   UNL     1      47.414   2.722   6.161  0.00  0.00    +0.000 C 
ATOM     27  N   UNL     1      48.739   2.628   6.492  0.00  0.00    +0.000 N 
ATOM     28  O   UNL     1      47.092   2.814   4.984  0.00  0.00    +0.000 OA
ATOM     29  H   UNL     1      49.087   2.736   7.433  0.00  0.00    +0.000 HD
ATOM     30  H   UNL     1      49.399   2.711   5.732  0.00  0.00    +0.000 HD
ENDBRANCH  25  26
ENDBRANCH  18  22
ENDBRANCH  17  18
ENDBRANCH   1  17
TORSDOF 7
ENDMDL
MODEL 2
REMARK VINA RESULT:    -8.495      1.410      1.715
REMARK INTER + INTRA:         -12.960
REMARK INTER:                 -12.007
REMARK INTRA:                  -0.952
REMARK UNBOUND:                -0.988
REMARK  Name = 
REMARK  8 active torsions:
REMARK  status: ('A' for Active; 'I' for Inactive)
REMARK    1  A    between atoms: C_1  and  C_2
REMARK    2  A    between atoms: C_4  and  O_5
REMARK    3  A    between atoms: O_5  and  C_6
REMARK    4  A    between atoms: C_6  and  C_7
REMARK    5  A    between atoms: C_7  and  C_10
REMARK    6  A    between atoms: C_14  and  N_15
REMARK    7  A    between atoms: N_15  and  C_16
REMARK    8  A    between atoms: C_23  and  C_24
REMARK                            x       y       z     vdW  Elec       q    Type
REMARK                         _______ _______ _______ _____ _____    ______ ____
ROOT
ATOM      1  C   UNL     1      44.092   4.273  12.379  0.00  0.00    +0.000 C 
ATOM      2  F   UNL     1      44.323   2.971  12.722  0.00  0.00    +0.000 F 
ATOM      3  F   UNL     1      43.087   4.695  13.202  0.00  0.00    +0.000 F 
ENDROOT
BRANCH   1   4
ATOM      4  C   UNL     1      45.342   5.127  12.534  0.00  0.00    +0.000 A 
ATOM      5  C   UNL     1      45.835   5.874  11.456  0.00  0.00    +0.000 A 
ATOM      6  C   UNL     1      47.004   6.624  11.593  0.00  0.00    +0.000 A 
ATOM      7  C   UNL     1      47.709   6.619  12.800  0.00  0.00    +0.000 A 
ATOM      8  C   UNL     1      47.247   5.876  13.888  0.00  0.00    +0.000 A 
ATOM      9  C   UNL     1      46.049   5.157  13.751  0.00  0.00    +0.000 A 
BRANCH   8  10
ATOM     10  N   UNL     1      47.919   5.835  15.128  0.00  0.00    +0.000 N 
ATOM     11  H   UNL     1      47.255   5.669  15.885  0.00  0.00    +0.000 HD
BRANCH  10  12
ATOM     12  C   UNL     1      49.029   6.670  15.512  0.00  0.00    +0.000 C 
ATOM     13  C   UNL     1      49.552   6.349  16.931  0.00  0.00    +0.000 C 
ATOM     14  N   UNL     1      49.644   7.799  17.206  0.00  0.00    +0.000 NA
ATOM     15  C   UNL     1      48.694   8.054  16.099  0.00  0.00    +0.000 C 
ATOM     16  H   UNL     1      50.577   8.179  17.037  0.00  0.00    +0.000 HD
ENDBRANCH  10  12
ENDBRANCH   8  10
ENDBRANCH   1   4
BRANCH   1  17
ATOM     17  C   UNL     1      43.592   4.320  10.921  0.00  0.00    +0.000 C 
BRANCH  17  18
ATOM     18  O   UNL     1      43.623   3.025  10.290  0.00  0.00    +0.000 OA
BRANCH  18  22
ATOM     19  C   UNL     1      46.744   0.216   7.651  0.00  0.00    +0.000 C 
ATOM     20  C   UNL     1      46.135   1.562   7.940  0.00  0.00    +0.000 A 
ATOM     21  C   UNL     1      45.179   1.647   8.974  0.00  0.00    +0.000 A 
ATOM     22  C   UNL     1      44.560   2.854   9.303  0.00  0.00    +0.000 A 
ATOM     23  C   UNL     1      44.906   4.000   8.587  0.00  0.00    +0.000 A 
ATOM     24  C   UNL     1      45.857   3.941   7.556  0.00  0.00    +0.000 A 
ATOM     25  C   UNL     1      46.471   2.724   7.217  0.00  0.00    +0.000 A 
BRANCH  25  26
ATOM     26  C   UNL     1      47.501   2.689   6.126  0.00  0.00    +0.000 C 
ATOM     27  N   UNL     1      48.809   2.537   6.496  0.00  0.00    +0.000 N 
ATOM     28  O   UNL     1      47.220   2.809   4.941  0.00  0.00    +0.000 OA
ATOM     29  H   UNL     1      49.132   2.620   7.449  0.00  0.00    +0.000 HD
ATOM     30  H   UNL     1      49.495   2.602   5.758  0.00  0.00    +0.000 HD
ENDBRANCH  25  26
ENDBRANCH  18  22
ENDBRANCH  17  18
ENDBRANCH   1  17
TORSDOF 7
ENDMDL
MODEL 3
REMARK VINA RESULT:    -8.463      2.753      4.234
REMARK INTER + INTRA:         -12.914
REMARK INTER:                 -12.036
REMARK INTRA:                  -0.879
REMARK UNBOUND:                -0.988
REMARK  Name = 
REMARK  8 active torsions:
REMARK  status: ('A' for Active; 'I' for Inactive)
REMARK    1  A    between atoms: C_1  and  C_2
REMARK    2  A    between atoms: C_4  and  O_5
REMARK    3  A    between atoms: O_5  and  C_6
REMARK    4  A    between atoms: C_6  and  C_7
REMARK    5  A    between atoms: C_7  and  C_10
REMARK    6  A    between atoms: C_14  and  N_15
REMARK    7  A    between atoms: N_15  and  C_16
REMARK    8  A    between atoms: C_23  and  C_24
REMARK                            x       y       z     vdW  Elec       q    Type
REMARK                         _______ _______ _______ _____ _____    ______ ____
ROOT
ATOM      1  C   UNL     1      43.984   4.337  12.486  0.00  0.00    +0.000 C 
ATOM      2  F   UNL     1      44.529   3.136  12.840  0.00  0.00    +0.000 F 
ATOM      3  F   UNL     1      42.911   4.511  13.314  0.00  0.00    +0.000 F 
ENDROOT
BRANCH   1   4
ATOM      4  C   UNL     1      44.988   5.473  12.619  0.00  0.00    +0.000 A 
ATOM      5  C   UNL     1      46.332   5.208  12.915  0.00  0.00    +0.000 A 
ATOM      6  C   UNL     1      47.239   6.256  13.076  0.00  0.00    +0.000 A 
ATOM      7  C   UNL     1      46.812   7.583  12.967  0.00  0.00    +0.000 A 
ATOM      8  C   UNL     1      45.478   7.877  12.684  0.00  0.00    +0.000 A 
ATOM      9  C   UNL     1      44.582   6.814  12.485  0.00  0.00    +0.000 A 
BRANCH   8  10
ATOM     10  N   UNL     1      44.994   9.197  12.563  0.00  0.00    +0.000 N 
ATOM     11  H   UNL     1      44.296   9.385  13.284  0.00  0.00    +0.000 HD
BRANCH  10  12
ATOM     12  C   UNL     1      44.743   9.893  11.327  0.00  0.00    +0.000 C 
ATOM     13  C   UNL     1      44.712  11.429  11.503  0.00  0.00    +0.000 C 
ATOM     14  N   UNL     1      43.519  11.487  10.632  0.00  0.00    +0.000 NA
ATOM     15  C   UNL     1      43.272  10.051  10.899  0.00  0.00    +0.000 C 
ATOM     16  H   UNL     1      43.747  11.686   9.656  0.00  0.00    +0.000 HD
ENDBRANCH  10  12
ENDBRANCH   8  10
ENDBRANCH   1   4
BRANCH   1  17
ATOM     17  C   UNL     1      43.477   4.242  11.033  0.00  0.00    +0.000 C 
BRANCH  17  18
ATOM     18  O   UNL     1      43.639   2.921  10.483  0.00  0.00    +0.000 OA
BRANCH  18  22
ATOM     19  C   UNL     1      46.712   0.257   7.644  0.00  0.00    +0.000 C 
ATOM     20  C   UNL     1      46.086   1.579   7.994  0.00  0.00    +0.000 A 
ATOM     21  C   UNL     1      45.171   1.614   9.067  0.00  0.00    +0.000 A 
ATOM     22  C   UNL     1      44.539   2.798   9.455  0.00  0.00    +0.000 A 
ATOM     23  C   UNL     1      44.831   3.971   8.758  0.00  0.00    +0.000 A 
ATOM     24  C   UNL     1      45.740   3.961   7.688  0.00  0.00    +0.000 A 
ATOM     25  C   UNL     1      46.367   2.769   7.291  0.00  0.00    +0.000 A 
BRANCH  25  26
ATOM     26  C   UNL     1      47.352   2.787   6.160  0.00  0.00    +0.000 C 
ATOM     27  N   UNL     1      48.679   2.663   6.474  0.00  0.00    +0.000 N 
ATOM     28  O   UNL     1      47.021   2.926   4.990  0.00  0.00    +0.000 OA
ATOM     29  H   UNL     1      49.037   2.733   7.415  0.00  0.00    +0.000 HD
ATOM     30  H   UNL     1      49.332   2.764   5.712  0.00  0.00    +0.000 HD
ENDBRANCH  25  26
ENDBRANCH  18  22
ENDBRANCH  17  18
ENDBRANCH   1  17
TORSDOF 7
ENDMDL
MODEL 4
REMARK VINA RESULT:    -8.399      2.204      2.630
REMARK INTER + INTRA:         -12.823
REMARK INTER:                 -11.914
REMARK INTRA:                  -0.910
REMARK UNBOUND:                -0.988
REMARK  Name = 
REMARK  8 active torsions:
REMARK  status: ('A' for Active; 'I' for Inactive)
REMARK    1  A    between atoms: C_1  and  C_2
REMARK    2  A    between atoms: C_4  and  O_5
REMARK    3  A    between atoms: O_5  and  C_6
REMARK    4  A    between atoms: C_6  and  C_7
REMARK    5  A    between atoms: C_7  and  C_10
REMARK    6  A    between atoms: C_14  and  N_15
REMARK    7  A    between atoms: N_15  and  C_16
REMARK    8  A    between atoms: C_23  and  C_24
REMARK                            x       y       z     vdW  Elec       q    Type
REMARK                         _______ _______ _______ _____ _____    ______ ____
ROOT
ATOM      1  C   UNL     1      43.352   4.800  12.127  0.00  0.00    +0.000 C 
ATOM      2  F   UNL     1      42.779   4.528  13.337  0.00  0.00    +0.000 F 
ATOM      3  F   UNL     1      42.311   4.936  11.252  0.00  0.00    +0.000 F 
ENDROOT
BRANCH   1   4
ATOM      4  C   UNL     1      44.211   6.055  12.179  0.00  0.00    +0.000 A 
ATOM      5  C   UNL     1      43.924   7.151  11.353  0.00  0.00    +0.000 A 
ATOM      6  C   UNL     1      44.738   8.284  11.376  0.00  0.00    +0.000 A 
ATOM      7  C   UNL     1      45.862   8.329  12.205  0.00  0.00    +0.000 A 
ATOM      8  C   UNL     1      46.178   7.249  13.030  0.00  0.00    +0.000 A 
ATOM      9  C   UNL     1      45.330   6.130  13.028  0.00  0.00    +0.000 A 
BRANCH   8  10
ATOM     10  N   UNL     1      47.301   7.241  13.886  0.00  0.00    +0.000 N 
ATOM     11  H   UNL     1      47.322   8.092  14.449  0.00  0.00    +0.000 HD
BRANCH  10  12
ATOM     12  C   UNL     1      48.610   6.740  13.554  0.00  0.00    +0.000 C 
ATOM     13  C   UNL     1      49.735   7.434  14.355  0.00  0.00    +0.000 C 
ATOM     14  N   UNL     1      50.537   7.525  13.117  0.00  0.00    +0.000 NA
ATOM     15  C   UNL     1      49.300   7.352  12.320  0.00  0.00    +0.000 C 
ATOM     16  H   UNL     1      51.199   6.754  13.012  0.00  0.00    +0.000 HD
ENDBRANCH  10  12
ENDBRANCH   8  10
ENDBRANCH   1   4
BRANCH   1  17
ATOM     17  C   UNL     1      44.204   3.588  11.698  0.00  0.00    +0.000 C 
BRANCH  17  18
ATOM     18  O   UNL     1      43.705   2.967  10.499  0.00  0.00    +0.000 OA
BRANCH  18  22
ATOM     19  C   UNL     1      46.703   0.239   7.640  0.00  0.00    +0.000 C 
ATOM     20  C   UNL     1      46.114   1.576   8.001  0.00  0.00    +0.000 A 
ATOM     21  C   UNL     1      45.200   1.628   9.074  0.00  0.00    +0.000 A 
ATOM     22  C   UNL     1      44.602   2.827   9.470  0.00  0.00    +0.000 A 
ATOM     23  C   UNL     1      44.928   3.996   8.783  0.00  0.00    +0.000 A 
ATOM     24  C   UNL     1      45.837   3.969   7.714  0.00  0.00    +0.000 A 
ATOM     25  C   UNL     1      46.429   2.763   7.307  0.00  0.00    +0.000 A 
BRANCH  25  26
ATOM     26  C   UNL     1      47.416   2.761   6.177  0.00  0.00    +0.000 C 
ATOM     27  N   UNL     1      48.744   2.677   6.496  0.00  0.00    +0.000 N 
ATOM     28  O   UNL     1      47.083   2.852   5.002  0.00  0.00    +0.000 OA
ATOM     29  H   UNL     1      49.099   2.788   7.434  0.00  0.00    +0.000 HD
ATOM     30  H   UNL     1      49.396   2.765   5.730  0.00  0.00    +0.000 HD
ENDBRANCH  25  26
ENDBRANCH  18  22
ENDBRANCH  17  18
ENDBRANCH   1  17
TORSDOF 7
ENDMDL
MODEL 5
REMARK VINA RESULT:    -8.121      2.134      3.485
REMARK INTER + INTRA:         -12.432
REMARK INTER:                 -11.477
REMARK INTRA:                  -0.955
REMARK UNBOUND:                -0.988
REMARK  Name = 
REMARK  8 active torsions:
REMARK  status: ('A' for Active; 'I' for Inactive)
REMARK    1  A    between atoms: C_1  and  C_2
REMARK    2  A    between atoms: C_4  and  O_5
REMARK    3  A    between atoms: O_5  and  C_6
REMARK    4  A    between atoms: C_6  and  C_7
REMARK    5  A    between atoms: C_7  and  C_10
REMARK    6  A    between atoms: C_14  and  N_15
REMARK    7  A    between atoms: N_15  and  C_16
REMARK    8  A    between atoms: C_23  and  C_24
REMARK                            x       y       z     vdW  Elec       q    Type
REMARK                         _______ _______ _______ _____ _____    ______ ____
ROOT
ATOM      1  C   UNL     1      43.974   4.671  12.014  0.00  0.00    +0.000 C 
ATOM      2  F   UNL     1      42.999   4.710  12.970  0.00  0.00    +0.000 F 
ATOM      3  F   UNL     1      43.519   5.459  10.995  0.00  0.00    +0.000 F 
ENDROOT
BRANCH   1   4
ATOM      4  C   UNL     1      45.311   5.162  12.551  0.00  0.00    +0.000 A 
ATOM      5  C   UNL     1      45.891   4.564  13.678  0.00  0.00    +0.000 A 
ATOM      6  C   UNL     1      47.097   5.045  14.189  0.00  0.00    +0.000 A 
ATOM      7  C   UNL     1      47.728   6.144  13.597  0.00  0.00    +0.000 A 
ATOM      8  C   UNL     1      47.167   6.765  12.480  0.00  0.00    +0.000 A 
ATOM      9  C   UNL     1      45.974   6.249  11.951  0.00  0.00    +0.000 A 
BRANCH   8  10
ATOM     10  N   UNL     1      47.761   7.877  11.844  0.00  0.00    +0.000 N 
ATOM     11  H   UNL     1      47.587   7.844  10.839  0.00  0.00    +0.000 HD
BRANCH  10  12
ATOM     12  C   UNL     1      49.030   8.464  12.188  0.00  0.00    +0.000 C 
ATOM     13  C   UNL     1      49.318   9.764  11.401  0.00  0.00    +0.000 C 
ATOM     14  N   UNL     1      50.706   9.304  11.183  0.00  0.00    +0.000 NA
ATOM     15  C   UNL     1      50.274   7.915  11.464  0.00  0.00    +0.000 C 
ATOM     16  H   UNL     1      51.362   9.673  11.873  0.00  0.00    +0.000 HD
ENDBRANCH  10  12
ENDBRANCH   8  10
ENDBRANCH   1   4
BRANCH   1  17
ATOM     17  C   UNL     1      44.106   3.223  11.499  0.00  0.00    +0.000 C 
BRANCH  17  18
ATOM     18  O   UNL     1      43.642   3.082  10.143  0.00  0.00    +0.000 OA
BRANCH  18  22
ATOM     19  C   UNL     1      46.779   0.156   7.653  0.00  0.00    +0.000 C 
ATOM     20  C   UNL     1      46.195   1.520   7.901  0.00  0.00    +0.000 A 
ATOM     21  C   UNL     1      45.207   1.645   8.900  0.00  0.00    +0.000 A 
ATOM     22  C   UNL     1      44.608   2.872   9.191  0.00  0.00    +0.000 A 
ATOM     23  C   UNL     1      45.007   3.998   8.471  0.00  0.00    +0.000 A 
ATOM     24  C   UNL     1      45.990   3.899   7.474  0.00  0.00    +0.000 A 
ATOM     25  C   UNL     1      46.584   2.663   7.173  0.00  0.00    +0.000 A 
BRANCH  25  26
ATOM     26  C   UNL     1      47.649   2.585   6.119  0.00  0.00    +0.000 C 
ATOM     27  N   UNL     1      48.952   2.553   6.537  0.00  0.00    +0.000 N 
ATOM     28  O   UNL     1      47.400   2.571   4.921  0.00  0.00    +0.000 OA
ATOM     29  H   UNL     1      49.238   2.748   7.485  0.00  0.00    +0.000 HD
ATOM     30  H   UNL     1      49.656   2.588   5.815  0.00  0.00    +0.000 HD
ENDBRANCH  25  26
ENDBRANCH  18  22
ENDBRANCH  17  18
ENDBRANCH   1  17
TORSDOF 7
ENDMDL
MODEL 6
REMARK VINA RESULT:    -7.541      2.881      8.365
REMARK INTER + INTRA:         -11.615
REMARK INTER:                 -10.922
REMARK INTRA:                  -0.693
REMARK UNBOUND:                -0.988
REMARK  Name = 
REMARK  8 active torsions:
REMARK  status: ('A' for Active; 'I' for Inactive)
REMARK    1  A    between atoms: C_1  and  C_2
REMARK    2  A    between atoms: C_4  and  O_5
REMARK    3  A    between atoms: O_5  and  C_6
REMARK    4  A    between atoms: C_6  and  C_7
REMARK    5  A    between atoms: C_7  and  C_10
REMARK    6  A    between atoms: C_14  and  N_15
REMARK    7  A    between atoms: N_15  and  C_16
REMARK    8  A    between atoms: C_23  and  C_24
REMARK                            x       y       z     vdW  Elec       q    Type
REMARK                         _______ _______ _______ _____ _____    ______ ____
ROOT
ATOM      1  C   UNL     1      45.244   6.072  11.409  0.00  0.00    +0.000 C 
ATOM      2  F   UNL     1      46.274   6.801  10.887  0.00  0.00    +0.000 F 
ATOM      3  F   UNL     1      44.161   6.905  11.392  0.00  0.00    +0.000 F 
ENDROOT
BRANCH   1   4
ATOM      4  C   UNL     1      44.989   4.802  10.610  0.00  0.00    +0.000 A 
ATOM      5  C   UNL     1      44.315   3.717  11.188  0.00  0.00    +0.000 A 
ATOM      6  C   UNL     1      44.120   2.541  10.463  0.00  0.00    +0.000 A 
ATOM      7  C   UNL     1      44.613   2.423   9.161  0.00  0.00    +0.000 A 
ATOM      8  C   UNL     1      45.297   3.484   8.564  0.00  0.00    +0.000 A 
ATOM      9  C   UNL     1      45.454   4.676   9.288  0.00  0.00    +0.000 A 
BRANCH   8  10
ATOM     10  N   UNL     1      45.816   3.418   7.253  0.00  0.00    +0.000 N 
ATOM     11  H   UNL     1      45.136   2.989   6.624  0.00  0.00    +0.000 HD
BRANCH  10  12
ATOM     12  C   UNL     1      47.184   3.131   6.902  0.00  0.00    +0.000 C 
ATOM     13  C   UNL     1      47.360   2.814   5.399  0.00  0.00    +0.000 C 
ATOM     14  N   UNL     1      48.251   1.691   5.758  0.00  0.00    +0.000 NA
ATOM     15  C   UNL     1      47.674   1.687   7.122  0.00  0.00    +0.000 C 
ATOM     16  H   UNL     1      49.241   1.944   5.737  0.00  0.00    +0.000 HD
ENDBRANCH  10  12
ENDBRANCH   8  10
ENDBRANCH   1   4
BRANCH   1  17
ATOM     17  C   UNL     1      45.577   5.722  12.874  0.00  0.00    +0.000 C 
BRANCH  17  18
ATOM     18  O   UNL     1      46.955   5.341  13.045  0.00  0.00    +0.000 OA
BRANCH  18  22
ATOM     19  C   UNL     1      47.258   3.077  17.447  0.00  0.00    +0.000 C 
ATOM     20  C   UNL     1      47.622   4.231  16.552  0.00  0.00    +0.000 A 
ATOM     21  C   UNL     1      47.113   4.233  15.236  0.00  0.00    +0.000 A 
ATOM     22  C   UNL     1      47.406   5.261  14.338  0.00  0.00    +0.000 A 
ATOM     23  C   UNL     1      48.221   6.310  14.765  0.00  0.00    +0.000 A 
ATOM     24  C   UNL     1      48.737   6.331  16.070  0.00  0.00    +0.000 A 
ATOM     25  C   UNL     1      48.452   5.291  16.970  0.00  0.00    +0.000 A 
BRANCH  25  26
ATOM     26  C   UNL     1      48.995   5.346  18.367  0.00  0.00    +0.000 C 
ATOM     27  N   UNL     1      48.191   5.876  19.339  0.00  0.00    +0.000 N 
ATOM     28  O   UNL     1      50.120   4.960  18.660  0.00  0.00    +0.000 OA
ATOM     29  H   UNL     1      47.338   6.379  19.143  0.00  0.00    +0.000 HD
ATOM     30  H   UNL     1      48.603   5.985  20.254  0.00  0.00    +0.000 HD
ENDBRANCH  25  26
ENDBRANCH  18  22
ENDBRANCH  17  18
ENDBRANCH   1  17
TORSDOF 7
ENDMDL
MODEL 7
REMARK VINA RESULT:    -7.408      1.548      2.236
REMARK INTER + INTRA:         -11.427
REMARK INTER:                 -11.372
REMARK INTRA:                  -0.055
REMARK UNBOUND:                -0.988
REMARK  Name = 
REMARK  8 active torsions:
REMARK  status: ('A' for Active; 'I' for Inactive)
REMARK    1  A    between atoms: C_1  and  C_2
REMARK    2  A    between atoms: C_4  and  O_5
REMARK    3  A    between atoms: O_5  and  C_6
REMARK    4  A    between atoms: C_6  and  C_7
REMARK    5  A    between atoms: C_7  and  C_10
REMARK    6  A    between atoms: C_14  and  N_15
REMARK    7  A    between atoms: N_15  and  C_16
REMARK    8  A    between atoms: C_23  and  C_24
REMARK                            x       y       z     vdW  Elec       q    Type
REMARK                         _______ _______ _______ _____ _____    ______ ____
ROOT
ATOM      1  C   UNL     1      44.975   6.311  11.146  0.00  0.00    +0.000 C 
ATOM      2  F   UNL     1      44.174   7.408  11.296  0.00  0.00    +0.000 F 
ATOM      3  F   UNL     1      45.492   6.406   9.885  0.00  0.00    +0.000 F 
ENDROOT
BRANCH   1   4
ATOM      4  C   UNL     1      46.071   6.263  12.201  0.00  0.00    +0.000 A 
ATOM      5  C   UNL     1      47.233   7.034  12.059  0.00  0.00    +0.000 A 
ATOM      6  C   UNL     1      48.251   6.956  13.010  0.00  0.00    +0.000 A 
ATOM      7  C   UNL     1      48.134   6.091  14.101  0.00  0.00    +0.000 A 
ATOM      8  C   UNL     1      46.993   5.304  14.262  0.00  0.00    +0.000 A 
ATOM      9  C   UNL     1      45.958   5.419  13.321  0.00  0.00    +0.000 A 
BRANCH   8  10
ATOM     10  N   UNL     1      46.823   4.414  15.345  0.00  0.00    +0.000 N 
ATOM     11  H   UNL     1      45.837   4.352  15.601  0.00  0.00    +0.000 HD
BRANCH  10  12
ATOM     12  C   UNL     1      47.717   4.271  16.465  0.00  0.00    +0.000 C 
ATOM     13  C   UNL     1      47.689   2.850  17.073  0.00  0.00    +0.000 C 
ATOM     14  N   UNL     1      47.673   3.447  18.426  0.00  0.00    +0.000 NA
ATOM     15  C   UNL     1      47.190   4.720  17.842  0.00  0.00    +0.000 C 
ATOM     16  H   UNL     1      48.603   3.518  18.842  0.00  0.00    +0.000 HD
ENDBRANCH  10  12
ENDBRANCH   8  10
ENDBRANCH   1   4
BRANCH   1  17
ATOM     17  C   UNL     1      44.100   5.044  11.228  0.00  0.00    +0.000 C 
BRANCH  17  18
ATOM     18  O   UNL     1      43.640   4.613   9.933  0.00  0.00    +0.000 OA
BRANCH  18  22
ATOM     19  C   UNL     1      46.645   3.693   6.096  0.00  0.00    +0.000 C 
ATOM     20  C   UNL     1      45.993   3.238   7.374  0.00  0.00    +0.000 A 
ATOM     21  C   UNL     1      45.131   4.139   8.033  0.00  0.00    +0.000 A 
ATOM     22  C   UNL     1      44.491   3.800   9.227  0.00  0.00    +0.000 A 
ATOM     23  C   UNL     1      44.713   2.534   9.770  0.00  0.00    +0.000 A 
ATOM     24  C   UNL     1      45.564   1.620   9.129  0.00  0.00    +0.000 A 
ATOM     25  C   UNL     1      46.218   1.965   7.936  0.00  0.00    +0.000 A 
BRANCH  25  26
ATOM     26  C   UNL     1      47.105   0.963   7.257  0.00  0.00    +0.000 C 
ATOM     27  N   UNL     1      48.310   1.405   6.782  0.00  0.00    +0.000 N 
ATOM     28  O   UNL     1      46.787  -0.208   7.096  0.00  0.00    +0.000 OA
ATOM     29  H   UNL     1      48.557   2.381   6.711  0.00  0.00    +0.000 HD
ATOM     30  H   UNL     1      48.856   0.740   6.253  0.00  0.00    +0.000 HD
ENDBRANCH  25  26
ENDBRANCH  18  22
ENDBRANCH  17  18
ENDBRANCH   1  17
TORSDOF 7
ENDMDL
MODEL 8
REMARK VINA RESULT:    -7.291      2.949      7.646
REMARK INTER + INTRA:         -11.263
REMARK INTER:                 -10.358
REMARK INTRA:                  -0.905
REMARK UNBOUND:                -0.988
REMARK  Name = 
REMARK  8 active torsions:
REMARK  status: ('A' for Active; 'I' for Inactive)
REMARK    1  A    between atoms: C_1  and  C_2
REMARK    2  A    between atoms: C_4  and  O_5
REMARK    3  A    between atoms: O_5  and  C_6
REMARK    4  A    between atoms: C_6  and  C_7
REMARK    5  A    between atoms: C_7  and  C_10
REMARK    6  A    between atoms: C_14  and  N_15
REMARK    7  A    between atoms: N_15  and  C_16
REMARK    8  A    between atoms: C_23  and  C_24
REMARK                            x       y       z     vdW  Elec       q    Type
REMARK                         _______ _______ _______ _____ _____    ______ ____
ROOT
ATOM      1  C   UNL     1      44.274   5.978  11.364  0.00  0.00    +0.000 C 
ATOM      2  F   UNL     1      44.951   7.042  10.840  0.00  0.00    +0.000 F 
ATOM      3  F   UNL     1      42.962   6.360  11.400  0.00  0.00    +0.000 F 
ENDROOT
BRANCH   1   4
ATOM      4  C   UNL     1      44.469   4.719  10.530  0.00  0.00    +0.000 A 
ATOM      5  C   UNL     1      43.912   3.499  10.938  0.00  0.00    +0.000 A 
ATOM      6  C   UNL     1      44.128   2.341  10.190  0.00  0.00    +0.000 A 
ATOM      7  C   UNL     1      44.921   2.380   9.040  0.00  0.00    +0.000 A 
ATOM      8  C   UNL     1      45.496   3.579   8.616  0.00  0.00    +0.000 A 
ATOM      9  C   UNL     1      45.240   4.745   9.354  0.00  0.00    +0.000 A 
BRANCH   8  10
ATOM     10  N   UNL     1      46.305   3.675   7.463  0.00  0.00    +0.000 N 
ATOM     11  H   UNL     1      46.118   4.550   6.971  0.00  0.00    +0.000 HD
BRANCH  10  12
ATOM     12  C   UNL     1      46.652   2.586   6.585  0.00  0.00    +0.000 C 
ATOM     13  C   UNL     1      47.984   1.907   6.977  0.00  0.00    +0.000 C 
ATOM     14  N   UNL     1      48.370   1.879   5.550  0.00  0.00    +0.000 NA
ATOM     15  C   UNL     1      47.382   2.948   5.277  0.00  0.00    +0.000 C 
ATOM     16  H   UNL     1      48.147   0.993   5.094  0.00  0.00    +0.000 HD
ENDBRANCH  10  12
ENDBRANCH   8  10
ENDBRANCH   1   4
BRANCH   1  17
ATOM     17  C   UNL     1      44.760   5.742  12.808  0.00  0.00    +0.000 C 
BRANCH  17  18
ATOM     18  O   UNL     1      46.024   5.052  12.852  0.00  0.00    +0.000 OA
BRANCH  18  22
ATOM     19  C   UNL     1      49.715   8.088  11.523  0.00  0.00    +0.000 C 
ATOM     20  C   UNL     1      48.984   7.322  12.593  0.00  0.00    +0.000 A 
ATOM     21  C   UNL     1      47.863   6.556  12.209  0.00  0.00    +0.000 A 
ATOM     22  C   UNL     1      47.124   5.821  13.138  0.00  0.00    +0.000 A 
ATOM     23  C   UNL     1      47.516   5.849  14.477  0.00  0.00    +0.000 A 
ATOM     24  C   UNL     1      48.629   6.602  14.882  0.00  0.00    +0.000 A 
ATOM     25  C   UNL     1      49.365   7.351  13.950  0.00  0.00    +0.000 A 
BRANCH  25  26
ATOM     26  C   UNL     1      50.565   8.130  14.402  0.00  0.00    +0.000 C 
ATOM     27  N   UNL     1      51.717   7.433  14.646  0.00  0.00    +0.000 N 
ATOM     28  O   UNL     1      50.546   9.341  14.577  0.00  0.00    +0.000 OA
ATOM     29  H   UNL     1      51.757   6.426  14.704  0.00  0.00    +0.000 HD
ATOM     30  H   UNL     1      52.488   7.959  15.031  0.00  0.00    +0.000 HD
ENDBRANCH  25  26
ENDBRANCH  18  22
ENDBRANCH  17  18
ENDBRANCH   1  17
TORSDOF 7
ENDMDL
MODEL 9
REMARK VINA RESULT:    -6.929      3.463      8.649
REMARK INTER + INTRA:         -10.753
REMARK INTER:                  -9.995
REMARK INTRA:                  -0.758
REMARK UNBOUND:                -0.988
REMARK  Name = 
REMARK  8 active torsions:
REMARK  status: ('A' for Active; 'I' for Inactive)
REMARK    1  A    between atoms: C_1  and  C_2
REMARK    2  A    between atoms: C_4  and  O_5
REMARK    3  A    between atoms: O_5  and  C_6
REMARK    4  A    between atoms: C_6  and  C_7
REMARK    5  A    between atoms: C_7  and  C_10
REMARK    6  A    between atoms: C_14  and  N_15
REMARK    7  A    between atoms: N_15  and  C_16
REMARK    8  A    between atoms: C_23  and  C_24
REMARK                            x       y       z     vdW  Elec       q    Type
REMARK                         _______ _______ _______ _____ _____    ______ ____
ROOT
ATOM      1  C   UNL     1      46.681   6.436  12.470  0.00  0.00    +0.000 C 
ATOM      2  F   UNL     1      47.354   7.003  11.425  0.00  0.00    +0.000 F 
ATOM      3  F   UNL     1      46.259   7.481  13.243  0.00  0.00    +0.000 F 
ENDROOT
BRANCH   1   4
ATOM      4  C   UNL     1      45.514   5.583  11.993  0.00  0.00    +0.000 A 
ATOM      5  C   UNL     1      44.658   4.964  12.915  0.00  0.00    +0.000 A 
ATOM      6  C   UNL     1      43.614   4.151  12.472  0.00  0.00    +0.000 A 
ATOM      7  C   UNL     1      43.425   3.925  11.106  0.00  0.00    +0.000 A 
ATOM      8  C   UNL     1      44.268   4.520  10.166  0.00  0.00    +0.000 A 
ATOM      9  C   UNL     1      45.291   5.367  10.620  0.00  0.00    +0.000 A 
BRANCH   8  10
ATOM     10  N   UNL     1      44.122   4.326   8.775  0.00  0.00    +0.000 N 
ATOM     11  H   UNL     1      43.176   4.571   8.481  0.00  0.00    +0.000 HD
BRANCH  10  12
ATOM     12  C   UNL     1      44.702   3.252   8.010  0.00  0.00    +0.000 C 
ATOM     13  C   UNL     1      45.322   2.152   8.902  0.00  0.00    +0.000 C 
ATOM     14  N   UNL     1      46.494   2.107   8.002  0.00  0.00    +0.000 NA
ATOM     15  C   UNL     1      46.141   3.455   7.499  0.00  0.00    +0.000 C 
ATOM     16  H   UNL     1      46.424   1.377   7.291  0.00  0.00    +0.000 HD
ENDBRANCH  10  12
ENDBRANCH   8  10
ENDBRANCH   1   4
BRANCH   1  17
ATOM     17  C   UNL     1      47.667   5.580  13.290  0.00  0.00    +0.000 C 
BRANCH  17  18
ATOM     18  O   UNL     1      48.420   6.367  14.232  0.00  0.00    +0.000 OA
BRANCH  18  22
ATOM     19  C   UNL     1      47.303   3.069  17.763  0.00  0.00    +0.000 C 
ATOM     20  C   UNL     1      47.829   4.423  17.370  0.00  0.00    +0.000 A 
ATOM     21  C   UNL     1      47.868   4.744  15.997  0.00  0.00    +0.000 A 
ATOM     22  C   UNL     1      48.347   5.975  15.545  0.00  0.00    +0.000 A 
ATOM     23  C   UNL     1      48.793   6.905  16.484  0.00  0.00    +0.000 A 
ATOM     24  C   UNL     1      48.762   6.609  17.856  0.00  0.00    +0.000 A 
ATOM     25  C   UNL     1      48.291   5.367  18.310  0.00  0.00    +0.000 A 
BRANCH  25  26
ATOM     26  C   UNL     1      48.245   5.081  19.782  0.00  0.00    +0.000 C 
ATOM     27  N   UNL     1      47.139   5.495  20.473  0.00  0.00    +0.000 N 
ATOM     28  O   UNL     1      49.154   4.520  20.381  0.00  0.00    +0.000 OA
ATOM     29  H   UNL     1      46.445   6.120  20.091  0.00  0.00    +0.000 HD
ATOM     30  H   UNL     1      47.163   5.372  21.475  0.00  0.00    +0.000 HD
ENDBRANCH  25  26
ENDBRANCH  18  22
ENDBRANCH  17  18
ENDBRANCH   1  17
TORSDOF 7
ENDMDL
