MODEL 1
REMARK VINA RESULT:    -9.172      0.000      0.000
REMARK INTER + INTRA:         -11.968
REMARK INTER:                 -11.853
REMARK INTRA:                  -0.115
REMARK UNBOUND:                -0.115
REMARK  Name = 
REMARK  5 active torsions:
REMARK  status: ('A' for Active; 'I' for Inactive)
REMARK    1  A    between atoms: C_2  and  C_3
REMARK    2  A    between atoms: C_6  and  C_7
REMARK    3  A    between atoms: C_11  and  C_12
REMARK    4  A    between atoms: C_12  and  N_13
REMARK    5  A    between atoms: C_17  and  C_18
REMARK                            x       y       z     vdW  Elec       q    Type
REMARK                         _______ _______ _______ _____ _____    ______ ____
ROOT
ATOM      1  C   UNL     1      44.116   5.324  11.134  0.00  0.00    +0.000 C 
ATOM      2  C   UNL     1      42.779   5.926  11.526  0.00  0.00    +0.000 C 
ATOM      3  C   UNL     1      42.895   4.444  11.406  0.00  0.00    +0.000 C 
ENDROOT
BRANCH   1   4
ATOM      4  N   UNL     1      44.583   5.313   9.745  0.00  0.00    +0.000 N 
ATOM      5  C   UNL     1      45.221   4.284   9.063  0.00  0.00    +0.000 A 
ATOM      6  C   UNL     1      45.155   2.943   9.415  0.00  0.00    +0.000 A 
ATOM      7  C   UNL     1      45.813   1.984   8.639  0.00  0.00    +0.000 A 
ATOM      8  C   UNL     1      46.532   2.392   7.521  0.00  0.00    +0.000 A 
ATOM      9  C   UNL     1      46.554   3.747   7.235  0.00  0.00    +0.000 A 
ATOM     10  N   UNL     1      45.910   4.686   7.975  0.00  0.00    +0.000 NA
ATOM     11  H   UNL     1      44.874   6.187   9.314  0.00  0.00    +0.000 HD
BRANCH   8  12
ATOM     12  C   UNL     1      47.299   1.463   6.667  0.00  0.00    +0.000 C 
ATOM     13  N   UNL     1      48.297   1.993   5.899  0.00  0.00    +0.000 N 
ATOM     14  O   UNL     1      47.061   0.264   6.660  0.00  0.00    +0.000 OA
ATOM     15  H   UNL     1      48.660   2.928   6.022  0.00  0.00    +0.000 HD
ATOM     16  H   UNL     1      48.861   1.337   5.373  0.00  0.00    +0.000 HD
ENDBRANCH   8  12
ENDBRANCH   1   4
BRANCH   1  21
ATOM     17  C   UNL     1      47.354   6.092  13.108  0.00  0.00    +0.000 A 
ATOM     18  C   UNL     1      47.132   5.216  14.166  0.00  0.00    +0.000 A 
ATOM     19  N   UNL     1      46.081   4.371  14.272  0.00  0.00    +0.000 NA
ATOM     20  C   UNL     1      45.174   4.412  13.268  0.00  0.00    +0.000 A 
ATOM     21  C   UNL     1      45.223   5.278  12.180  0.00  0.00    +0.000 A 
ATOM     22  C   UNL     1      46.348   6.118  12.129  0.00  0.00    +0.000 A 
BRANCH  17  26
ATOM     23  C   UNL     1      50.948   8.456  12.804  0.00  0.00    +0.000 A 
ATOM     24  C   UNL     1      50.506   8.007  14.047  0.00  0.00    +0.000 A 
ATOM     25  C   UNL     1      49.339   7.243  14.139  0.00  0.00    +0.000 A 
ATOM     26  C   UNL     1      48.574   6.924  13.001  0.00  0.00    +0.000 A 
ATOM     27  C   UNL     1      49.037   7.403  11.760  0.00  0.00    +0.000 A 
ATOM     28  C   UNL     1      50.214   8.153  11.659  0.00  0.00    +0.000 A 
BRANCH  23  30
ATOM     29  N   UNL     1      53.129   9.844  12.627  0.00  0.00    +0.000 NA
ATOM     30  C   UNL     1      52.150   9.221  12.702  0.00  0.00    +0.000 C 
ENDBRANCH  23  30
ENDBRANCH  17  26
ENDBRANCH   1  21
TORSDOF 5
ENDMDL
MODEL 2
REMARK VINA RESULT:    -7.932      2.375      3.374
REMARK INTER + INTRA:         -10.366
REMARK INTER:                  -9.528
REMARK INTRA:                  -0.838
REMARK UNBOUND:                -0.115
REMARK  Name = 
REMARK  5 active torsions:
REMARK  status: ('A' for Active; 'I' for Inactive)
REMARK    1  A    between atoms: C_2  and  C_3
REMARK    2  A    between atoms: C_6  and  C_7
REMARK    3  A    between atoms: C_11  and  C_12
REMARK    4  A    between atoms: C_12  and  N_13
REMARK    5  A    between atoms: C_17  and  C_18
REMARK                            x       y       z     vdW  Elec       q    Type
REMARK                         _______ _______ _______ _____ _____    ______ ____
ROOT
ATOM      1  C   UNL     1      44.050   5.141  11.689  0.00  0.00    +0.000 C 
ATOM      2  C   UNL     1      42.766   5.764  11.174  0.00  0.00    +0.000 C 
ATOM      3  C   UNL     1      42.750   5.064  12.490  0.00  0.00    +0.000 C 
ENDROOT
BRANCH   1   4
ATOM      4  N   UNL     1      44.541   3.854  11.190  0.00  0.00    +0.000 N 
ATOM      5  C   UNL     1      45.128   3.579   9.960  0.00  0.00    +0.000 A 
ATOM      6  C   UNL     1      45.750   4.522   9.154  0.00  0.00    +0.000 A 
ATOM      7  C   UNL     1      46.338   4.130   7.947  0.00  0.00    +0.000 A 
ATOM      8  C   UNL     1      46.285   2.793   7.569  0.00  0.00    +0.000 A 
ATOM      9  C   UNL     1      45.645   1.912   8.424  0.00  0.00    +0.000 A 
ATOM     10  N   UNL     1      45.081   2.278   9.603  0.00  0.00    +0.000 NA
ATOM     11  H   UNL     1      44.097   2.997  11.510  0.00  0.00    +0.000 HD
BRANCH   8  12
ATOM     12  C   UNL     1      46.832   2.290   6.293  0.00  0.00    +0.000 C 
ATOM     13  N   UNL     1      46.972   3.187   5.272  0.00  0.00    +0.000 N 
ATOM     14  O   UNL     1      47.162   1.120   6.160  0.00  0.00    +0.000 OA
ATOM     15  H   UNL     1      46.907   4.187   5.395  0.00  0.00    +0.000 HD
ATOM     16  H   UNL     1      47.414   2.847   4.427  0.00  0.00    +0.000 HD
ENDBRANCH   8  12
ENDBRANCH   1   4
BRANCH   1  21
ATOM     17  C   UNL     1      47.027   6.506  13.751  0.00  0.00    +0.000 A 
ATOM     18  C   UNL     1      47.124   7.745  13.127  0.00  0.00    +0.000 A 
ATOM     19  N   UNL     1      46.297   8.198  12.159  0.00  0.00    +0.000 NA
ATOM     20  C   UNL     1      45.314   7.355  11.766  0.00  0.00    +0.000 A 
ATOM     21  C   UNL     1      45.129   6.062  12.246  0.00  0.00    +0.000 A 
ATOM     22  C   UNL     1      46.017   5.663  13.258  0.00  0.00    +0.000 A 
BRANCH  17  26
ATOM     23  C   UNL     1      49.553   5.385  17.062  0.00  0.00    +0.000 A 
ATOM     24  C   UNL     1      49.839   6.526  16.316  0.00  0.00    +0.000 A 
ATOM     25  C   UNL     1      49.017   6.882  15.242  0.00  0.00    +0.000 A 
ATOM     26  C   UNL     1      47.904   6.103  14.874  0.00  0.00    +0.000 A 
ATOM     27  C   UNL     1      47.648   4.948  15.638  0.00  0.00    +0.000 A 
ATOM     28  C   UNL     1      48.455   4.595  16.725  0.00  0.00    +0.000 A 
BRANCH  23  30
ATOM     29  N   UNL     1      51.055   4.731  19.070  0.00  0.00    +0.000 NA
ATOM     30  C   UNL     1      50.378   5.026  18.172  0.00  0.00    +0.000 C 
ENDBRANCH  23  30
ENDBRANCH  17  26
ENDBRANCH   1  21
TORSDOF 5
ENDMDL
MODEL 3
REMARK VINA RESULT:    -7.807      1.905      2.498
REMARK INTER + INTRA:         -10.204
REMARK INTER:                  -9.396
REMARK INTRA:                  -0.808
REMARK UNBOUND:                -0.115
REMARK  Name = 
REMARK  5 active torsions:
REMARK  status: ('A' for Active; 'I' for Inactive)
REMARK    1  A    between atoms: C_2  and  C_3
REMARK    2  A    between atoms: C_6  and  C_7
REMARK    3  A    between atoms: C_11  and  C_12
REMARK    4  A    between atoms: C_12  and  N_13
REMARK    5  A    between atoms: C_17  and  C_18
REMARK                            x       y       z     vdW  Elec       q    Type
REMARK                         _______ _______ _______ _____ _____    ______ ____
ROOT
ATOM      1  C   UNL     1      43.884   5.310  11.815  0.00  0.00    +0.000 C 
ATOM      2  C   UNL     1      42.417   5.577  11.530  0.00  0.00    +0.000 C 
ATOM      3  C   UNL     1      42.815   5.117  12.892  0.00  0.00    +0.000 C 
ENDROOT
BRANCH   1   4
ATOM      4  N   UNL     1      44.545   4.077  11.379  0.00  0.00    +0.000 N 
ATOM      5  C   UNL     1      45.097   3.795  10.135  0.00  0.00    +0.000 A 
ATOM      6  C   UNL     1      45.512   4.752   9.219  0.00  0.00    +0.000 A 
ATOM      7  C   UNL     1      46.084   4.356   8.006  0.00  0.00    +0.000 A 
ATOM      8  C   UNL     1      46.225   2.999   7.733  0.00  0.00    +0.000 A 
ATOM      9  C   UNL     1      45.786   2.105   8.694  0.00  0.00    +0.000 A 
ATOM     10  N   UNL     1      45.239   2.477   9.879  0.00  0.00    +0.000 NA
ATOM     11  H   UNL     1      44.264   3.192  11.792  0.00  0.00    +0.000 HD
BRANCH   8  12
ATOM     12  C   UNL     1      46.772   2.482   6.462  0.00  0.00    +0.000 C 
ATOM     13  N   UNL     1      46.980   3.382   5.455  0.00  0.00    +0.000 N 
ATOM     14  O   UNL     1      47.043   1.298   6.322  0.00  0.00    +0.000 OA
ATOM     15  H   UNL     1      46.966   4.382   5.588  0.00  0.00    +0.000 HD
ATOM     16  H   UNL     1      47.421   3.027   4.615  0.00  0.00    +0.000 HD
ENDBRANCH   8  12
ENDBRANCH   1   4
BRANCH   1  21
ATOM     17  C   UNL     1      46.891   7.514  12.853  0.00  0.00    +0.000 A 
ATOM     18  C   UNL     1      46.498   8.674  12.194  0.00  0.00    +0.000 A 
ATOM     19  N   UNL     1      45.344   8.829  11.506  0.00  0.00    +0.000 NA
ATOM     20  C   UNL     1      44.531   7.750  11.448  0.00  0.00    +0.000 A 
ATOM     21  C   UNL     1      44.814   6.503  11.997  0.00  0.00    +0.000 A 
ATOM     22  C   UNL     1      46.022   6.419  12.707  0.00  0.00    +0.000 A 
BRANCH  17  26
ATOM     23  C   UNL     1      50.489   7.215  15.210  0.00  0.00    +0.000 A 
ATOM     24  C   UNL     1      49.337   6.535  15.598  0.00  0.00    +0.000 A 
ATOM     25  C   UNL     1      48.173   6.638  14.831  0.00  0.00    +0.000 A 
ATOM     26  C   UNL     1      48.122   7.434  13.671  0.00  0.00    +0.000 A 
ATOM     27  C   UNL     1      49.297   8.121  13.311  0.00  0.00    +0.000 A 
ATOM     28  C   UNL     1      50.471   8.009  14.064  0.00  0.00    +0.000 A 
BRANCH  23  30
ATOM     29  N   UNL     1      52.666   7.009  16.601  0.00  0.00    +0.000 NA
ATOM     30  C   UNL     1      51.688   7.099  15.980  0.00  0.00    +0.000 C 
ENDBRANCH  23  30
ENDBRANCH  17  26
ENDBRANCH   1  21
TORSDOF 5
ENDMDL
MODEL 4
REMARK VINA RESULT:    -6.972      4.174      6.406
REMARK INTER + INTRA:          -9.125
REMARK INTER:                  -8.318
REMARK INTRA:                  -0.807
REMARK UNBOUND:                -0.115
REMARK  Name = 
REMARK  5 active torsions:
REMARK  status: ('A' for Active; 'I' for Inactive)
REMARK    1  A    between atoms: C_2  and  C_3
REMARK    2  A    between atoms: C_6  and  C_7
REMARK    3  A    between atoms: C_11  and  C_12
REMARK    4  A    between atoms: C_12  and  N_13
REMARK    5  A    between atoms: C_17  and  C_18
REMARK                            x       y       z     vdW  Elec       q    Type
REMARK                         _______ _______ _______ _____ _____    ______ ____
ROOT
ATOM      1  C   UNL     1      48.206   8.071  13.854  0.00  0.00    +0.000 C 
ATOM      2  C   UNL     1      49.214   7.999  12.723  0.00  0.00    +0.000 C 
ATOM      3  C   UNL     1      48.768   9.337  13.207  0.00  0.00    +0.000 C 
ENDROOT
BRANCH   1   4
ATOM      4  N   UNL     1      46.775   7.850  13.630  0.00  0.00    +0.000 N 
ATOM      5  C   UNL     1      46.144   6.690  13.197  0.00  0.00    +0.000 A 
ATOM      6  C   UNL     1      46.676   5.413  13.308  0.00  0.00    +0.000 A 
ATOM      7  C   UNL     1      45.941   4.308  12.867  0.00  0.00    +0.000 A 
ATOM      8  C   UNL     1      44.679   4.509  12.317  0.00  0.00    +0.000 A 
ATOM      9  C   UNL     1      44.216   5.812  12.238  0.00  0.00    +0.000 A 
ATOM     10  N   UNL     1      44.917   6.890  12.673  0.00  0.00    +0.000 NA
ATOM     11  H   UNL     1      46.191   8.633  13.348  0.00  0.00    +0.000 HD
BRANCH   8  12
ATOM     12  C   UNL     1      43.846   3.414  11.779  0.00  0.00    +0.000 C 
ATOM     13  N   UNL     1      43.692   2.302  12.558  0.00  0.00    +0.000 N 
ATOM     14  O   UNL     1      43.303   3.506  10.688  0.00  0.00    +0.000 OA
ATOM     15  H   UNL     1      43.947   2.264  13.534  0.00  0.00    +0.000 HD
ATOM     16  H   UNL     1      43.063   1.589  12.210  0.00  0.00    +0.000 HD
ENDBRANCH   8  12
ENDBRANCH   1   4
BRANCH   1  21
ATOM     17  C   UNL     1      49.905   6.372  16.887  0.00  0.00    +0.000 A 
ATOM     18  C   UNL     1      49.606   7.348  17.831  0.00  0.00    +0.000 A 
ATOM     19  N   UNL     1      48.868   8.458  17.599  0.00  0.00    +0.000 NA
ATOM     20  C   UNL     1      48.413   8.622  16.336  0.00  0.00    +0.000 A 
ATOM     21  C   UNL     1      48.684   7.770  15.269  0.00  0.00    +0.000 A 
ATOM     22  C   UNL     1      49.444   6.633  15.587  0.00  0.00    +0.000 A 
BRANCH  17  26
ATOM     23  C   UNL     1      52.031   2.732  17.799  0.00  0.00    +0.000 A 
ATOM     24  C   UNL     1      50.650   2.712  17.619  0.00  0.00    +0.000 A 
ATOM     25  C   UNL     1      49.966   3.895  17.326  0.00  0.00    +0.000 A 
ATOM     26  C   UNL     1      50.637   5.129  17.224  0.00  0.00    +0.000 A 
ATOM     27  C   UNL     1      52.031   5.121  17.424  0.00  0.00    +0.000 A 
ATOM     28  C   UNL     1      52.724   3.937  17.700  0.00  0.00    +0.000 A 
BRANCH  23  30
ATOM     29  N   UNL     1      53.318   0.541  18.312  0.00  0.00    +0.000 NA
ATOM     30  C   UNL     1      52.737   1.522  18.080  0.00  0.00    +0.000 C 
ENDBRANCH  23  30
ENDBRANCH  17  26
ENDBRANCH   1  21
TORSDOF 5
ENDMDL
MODEL 5
REMARK VINA RESULT:    -6.885      3.405      7.277
REMARK INTER + INTRA:          -9.012
REMARK INTER:                  -8.941
REMARK INTRA:                  -0.071
REMARK UNBOUND:                -0.115
REMARK  Name = 
REMARK  5 active torsions:
REMARK  status: ('A' for Active; 'I' for Inactive)
REMARK    1  A    between atoms: C_2  and  C_3
REMARK    2  A    between atoms: C_6  and  C_7
REMARK    3  A    between atoms: C_11  and  C_12
REMARK    4  A    between atoms: C_12  and  N_13
REMARK    5  A    between atoms: C_17  and  C_18
REMARK                            x       y       z     vdW  Elec       q    Type
REMARK                         _______ _______ _______ _____ _____    ______ ____
ROOT
ATOM      1  C   UNL     1      45.745   7.889  12.602  0.00  0.00    +0.000 C 
ATOM      2  C   UNL     1      44.948   9.136  12.939  0.00  0.00    +0.000 C 
ATOM      3  C   UNL     1      45.918   9.184  11.807  0.00  0.00    +0.000 C 
ENDROOT
BRANCH   1   4
ATOM      4  N   UNL     1      46.918   7.487  13.382  0.00  0.00    +0.000 N 
ATOM      5  C   UNL     1      47.090   6.335  14.141  0.00  0.00    +0.000 A 
ATOM      6  C   UNL     1      46.373   5.159  13.964  0.00  0.00    +0.000 A 
ATOM      7  C   UNL     1      46.649   4.046  14.764  0.00  0.00    +0.000 A 
ATOM      8  C   UNL     1      47.640   4.137  15.735  0.00  0.00    +0.000 A 
ATOM      9  C   UNL     1      48.310   5.343  15.854  0.00  0.00    +0.000 A 
ATOM     10  N   UNL     1      48.059   6.426  15.075  0.00  0.00    +0.000 NA
ATOM     11  H   UNL     1      47.514   8.205  13.787  0.00  0.00    +0.000 HD
BRANCH   8  12
ATOM     12  C   UNL     1      47.971   3.035  16.660  0.00  0.00    +0.000 C 
ATOM     13  N   UNL     1      47.080   2.765  17.661  0.00  0.00    +0.000 N 
ATOM     14  O   UNL     1      48.994   2.378  16.527  0.00  0.00    +0.000 OA
ATOM     15  H   UNL     1      46.141   3.137  17.687  0.00  0.00    +0.000 HD
ATOM     16  H   UNL     1      47.282   1.962  18.244  0.00  0.00    +0.000 HD
ENDBRANCH   8  12
ENDBRANCH   1   4
BRANCH   1  21
ATOM     17  C   UNL     1      45.003   4.924  10.230  0.00  0.00    +0.000 A 
ATOM     18  C   UNL     1      43.728   4.631  10.702  0.00  0.00    +0.000 A 
ATOM     19  N   UNL     1      43.072   5.325  11.659  0.00  0.00    +0.000 NA
ATOM     20  C   UNL     1      43.735   6.372  12.202  0.00  0.00    +0.000 A 
ATOM     21  C   UNL     1      45.036   6.749  11.883  0.00  0.00    +0.000 A 
ATOM     22  C   UNL     1      45.651   5.991  10.873  0.00  0.00    +0.000 A 
BRANCH  17  26
ATOM     23  C   UNL     1      46.903   2.780   7.006  0.00  0.00    +0.000 A 
ATOM     24  C   UNL     1      47.007   4.166   7.085  0.00  0.00    +0.000 A 
ATOM     25  C   UNL     1      46.388   4.856   8.130  0.00  0.00    +0.000 A 
ATOM     26  C   UNL     1      45.633   4.185   9.112  0.00  0.00    +0.000 A 
ATOM     27  C   UNL     1      45.533   2.785   8.999  0.00  0.00    +0.000 A 
ATOM     28  C   UNL     1      46.166   2.086   7.965  0.00  0.00    +0.000 A 
BRANCH  23  30
ATOM     29  N   UNL     1      48.084   1.493   5.091  0.00  0.00    +0.000 NA
ATOM     30  C   UNL     1      47.550   2.067   5.949  0.00  0.00    +0.000 C 
ENDBRANCH  23  30
ENDBRANCH  17  26
ENDBRANCH   1  21
TORSDOF 5
ENDMDL
MODEL 6
REMARK VINA RESULT:    -6.801      5.533      9.127
REMARK INTER + INTRA:          -8.903
REMARK INTER:                  -8.090
REMARK INTRA:                  -0.813
REMARK UNBOUND:                -0.115
REMARK  Name = 
REMARK  5 active torsions:
REMARK  status: ('A' for Active; 'I' for Inactive)
REMARK    1  A    between atoms: C_2  and  C_3
REMARK    2  A    between atoms: C_6  and  C_7
REMARK    3  A    between atoms: C_11  and  C_12
REMARK    4  A    between atoms: C_12  and  N_13
REMARK    5  A    between atoms: C_17  and  C_18
REMARK                            x       y       z     vdW  Elec       q    Type
REMARK                         _______ _______ _______ _____ _____    ______ ____
ROOT
ATOM      1  C   UNL     1      49.563   5.529  18.141  0.00  0.00    +0.000 C 
ATOM      2  C   UNL     1      48.437   4.927  18.960  0.00  0.00    +0.000 C 
ATOM      3  C   UNL     1      48.973   6.264  19.345  0.00  0.00    +0.000 C 
ENDROOT
BRANCH   1   4
ATOM      4  N   UNL     1      50.955   5.101  18.305  0.00  0.00    +0.000 N 
ATOM      5  C   UNL     1      51.482   3.824  18.153  0.00  0.00    +0.000 A 
ATOM      6  C   UNL     1      50.895   2.811  17.408  0.00  0.00    +0.000 A 
ATOM      7  C   UNL     1      51.529   1.569  17.296  0.00  0.00    +0.000 A 
ATOM      8  C   UNL     1      52.745   1.367  17.940  0.00  0.00    +0.000 A 
ATOM      9  C   UNL     1      53.267   2.424  18.666  0.00  0.00    +0.000 A 
ATOM     10  N   UNL     1      52.666   3.637  18.773  0.00  0.00    +0.000 NA
ATOM     11  H   UNL     1      51.551   5.597  18.963  0.00  0.00    +0.000 HD
BRANCH   8  12
ATOM     12  C   UNL     1      53.467   0.079  17.922  0.00  0.00    +0.000 C 
ATOM     13  N   UNL     1      53.848  -0.411  16.704  0.00  0.00    +0.000 N 
ATOM     14  O   UNL     1      53.728  -0.518  18.956  0.00  0.00    +0.000 OA
ATOM     15  H   UNL     1      53.836   0.135  15.854  0.00  0.00    +0.000 HD
ATOM     16  H   UNL     1      54.403  -1.257  16.709  0.00  0.00    +0.000 HD
ENDBRANCH   8  12
ENDBRANCH   1   4
BRANCH   1  21
ATOM     17  C   UNL     1      47.985   6.057  14.647  0.00  0.00    +0.000 A 
ATOM     18  C   UNL     1      48.599   7.270  14.354  0.00  0.00    +0.000 A 
ATOM     19  N   UNL     1      49.505   7.896  15.139  0.00  0.00    +0.000 NA
ATOM     20  C   UNL     1      49.809   7.286  16.309  0.00  0.00    +0.000 A 
ATOM     21  C   UNL     1      49.231   6.108  16.771  0.00  0.00    +0.000 A 
ATOM     22  C   UNL     1      48.309   5.508  15.899  0.00  0.00    +0.000 A 
BRANCH  17  26
ATOM     23  C   UNL     1      45.380   4.067  11.846  0.00  0.00    +0.000 A 
ATOM     24  C   UNL     1      45.593   5.440  11.753  0.00  0.00    +0.000 A 
ATOM     25  C   UNL     1      46.437   6.080  12.665  0.00  0.00    +0.000 A 
ATOM     26  C   UNL     1      47.073   5.373  13.703  0.00  0.00    +0.000 A 
ATOM     27  C   UNL     1      46.828   3.988  13.781  0.00  0.00    +0.000 A 
ATOM     28  C   UNL     1      45.998   3.339  12.860  0.00  0.00    +0.000 A 
BRANCH  23  30
ATOM     29  N   UNL     1      43.851   2.862  10.135  0.00  0.00    +0.000 NA
ATOM     30  C   UNL     1      44.533   3.405  10.904  0.00  0.00    +0.000 C 
ENDBRANCH  23  30
ENDBRANCH  17  26
ENDBRANCH   1  21
TORSDOF 5
ENDMDL
MODEL 7
REMARK VINA RESULT:    -6.756      4.640      6.864
REMARK INTER + INTRA:          -8.846
REMARK INTER:                  -8.087
REMARK INTRA:                  -0.759
REMARK UNBOUND:                -0.115
REMARK  Name = 
REMARK  5 active torsions:
REMARK  status: ('A' for Active; 'I' for Inactive)
REMARK    1  A    between atoms: C_2  and  C_3
REMARK    2  A    between atoms: C_6  and  C_7
REMARK    3  A    between atoms: C_11  and  C_12
REMARK    4  A    between atoms: C_12  and  N_13
REMARK    5  A    between atoms: C_17  and  C_18
REMARK                            x       y       z     vdW  Elec       q    Type
REMARK                         _______ _______ _______ _____ _____    ______ ____
ROOT
ATOM      1  C   UNL     1      48.833   7.530  14.796  0.00  0.00    +0.000 C 
ATOM      2  C   UNL     1      50.029   7.753  13.890  0.00  0.00    +0.000 C 
ATOM      3  C   UNL     1      49.481   8.909  14.656  0.00  0.00    +0.000 C 
ENDROOT
BRANCH   1   4
ATOM      4  N   UNL     1      47.469   7.437  14.269  0.00  0.00    +0.000 N 
ATOM      5  C   UNL     1      46.848   6.337  13.690  0.00  0.00    +0.000 A 
ATOM      6  C   UNL     1      47.233   5.018  13.886  0.00  0.00    +0.000 A 
ATOM      7  C   UNL     1      46.517   3.982  13.277  0.00  0.00    +0.000 A 
ATOM      8  C   UNL     1      45.423   4.293  12.476  0.00  0.00    +0.000 A 
ATOM      9  C   UNL     1      45.101   5.632  12.326  0.00  0.00    +0.000 A 
ATOM     10  N   UNL     1      45.783   6.644  12.920  0.00  0.00    +0.000 NA
ATOM     11  H   UNL     1      47.028   8.268  13.884  0.00  0.00    +0.000 HD
BRANCH   8  12
ATOM     12  C   UNL     1      44.634   3.276  11.753  0.00  0.00    +0.000 C 
ATOM     13  N   UNL     1      43.858   2.435  12.500  0.00  0.00    +0.000 N 
ATOM     14  O   UNL     1      44.661   3.201  10.533  0.00  0.00    +0.000 OA
ATOM     15  H   UNL     1      43.648   2.588  13.475  0.00  0.00    +0.000 HD
ATOM     16  H   UNL     1      43.268   1.789  11.989  0.00  0.00    +0.000 HD
ENDBRANCH   8  12
ENDBRANCH   1   4
BRANCH   1  21
ATOM     17  C   UNL     1      50.139   5.075  17.487  0.00  0.00    +0.000 A 
ATOM     18  C   UNL     1      49.489   5.641  18.578  0.00  0.00    +0.000 A 
ATOM     19  N   UNL     1      48.636   6.689  18.520  0.00  0.00    +0.000 NA
ATOM     20  C   UNL     1      48.428   7.227  17.296  0.00  0.00    +0.000 A 
ATOM     21  C   UNL     1      49.054   6.816  16.124  0.00  0.00    +0.000 A 
ATOM     22  C   UNL     1      49.917   5.716  16.257  0.00  0.00    +0.000 A 
BRANCH  17  26
ATOM     23  C   UNL     1      52.602   1.558  17.886  0.00  0.00    +0.000 A 
ATOM     24  C   UNL     1      53.109   2.811  18.220  0.00  0.00    +0.000 A 
ATOM     25  C   UNL     1      52.307   3.948  18.086  0.00  0.00    +0.000 A 
ATOM     26  C   UNL     1      50.988   3.867  17.598  0.00  0.00    +0.000 A 
ATOM     27  C   UNL     1      50.508   2.589  17.256  0.00  0.00    +0.000 A 
ATOM     28  C   UNL     1      51.300   1.444  17.404  0.00  0.00    +0.000 A 
BRANCH  23  30
ATOM     29  N   UNL     1      54.077  -0.555  18.165  0.00  0.00    +0.000 NA
ATOM     30  C   UNL     1      53.412   0.390  18.038  0.00  0.00    +0.000 C 
ENDBRANCH  23  30
ENDBRANCH  17  26
ENDBRANCH   1  21
TORSDOF 5
ENDMDL
MODEL 8
REMARK VINA RESULT:    -6.517      4.398      9.076
REMARK INTER + INTRA:          -8.536
REMARK INTER:                  -7.876
REMARK INTRA:                  -0.660
REMARK UNBOUND:                -0.115
REMARK  Name = 
REMARK  5 active torsions:
REMARK  status: ('A' for Active; 'I' for Inactive)
REMARK    1  A    between atoms: C_2  and  C_3
REMARK    2  A    between atoms: C_6  and  C_7
REMARK    3  A    between atoms: C_11  and  C_12
REMARK    4  A    between atoms: C_12  and  N_13
REMARK    5  A    between atoms: C_17  and  C_18
REMARK                            x       y       z     vdW  Elec       q    Type
REMARK                         _______ _______ _______ _____ _____    ______ ____
ROOT
ATOM      1  C   UNL     1      50.505   8.315  14.422  0.00  0.00    +0.000 C 
ATOM      2  C   UNL     1      51.140   9.580  14.969  0.00  0.00    +0.000 C 
ATOM      3  C   UNL     1      51.764   8.912  13.791  0.00  0.00    +0.000 C 
ENDROOT
BRANCH   1   4
ATOM      4  N   UNL     1      50.698   7.012  15.063  0.00  0.00    +0.000 N 
ATOM      5  C   UNL     1      50.221   6.585  16.297  0.00  0.00    +0.000 A 
ATOM      6  C   UNL     1      49.132   7.136  16.957  0.00  0.00    +0.000 A 
ATOM      7  C   UNL     1      48.717   6.608  18.183  0.00  0.00    +0.000 A 
ATOM      8  C   UNL     1      49.411   5.533  18.728  0.00  0.00    +0.000 A 
ATOM      9  C   UNL     1      50.489   5.038  18.013  0.00  0.00    +0.000 A 
ATOM     10  N   UNL     1      50.893   5.536  16.816  0.00  0.00    +0.000 NA
ATOM     11  H   UNL     1      51.545   6.485  14.868  0.00  0.00    +0.000 HD
BRANCH   8  12
ATOM     12  C   UNL     1      49.081   4.937  20.038  0.00  0.00    +0.000 C 
ATOM     13  N   UNL     1      48.521   3.690  20.039  0.00  0.00    +0.000 N 
ATOM     14  O   UNL     1      49.315   5.528  21.082  0.00  0.00    +0.000 OA
ATOM     15  H   UNL     1      48.499   3.088  19.228  0.00  0.00    +0.000 HD
ATOM     16  H   UNL     1      48.366   3.263  20.944  0.00  0.00    +0.000 HD
ENDBRANCH   8  12
ENDBRANCH   1   4
BRANCH   1  21
ATOM     17  C   UNL     1      47.153   7.492  12.673  0.00  0.00    +0.000 A 
ATOM     18  C   UNL     1      46.864   8.776  12.225  0.00  0.00    +0.000 A 
ATOM     19  N   UNL     1      47.663   9.855  12.380  0.00  0.00    +0.000 NA
ATOM     20  C   UNL     1      48.824   9.652  13.046  0.00  0.00    +0.000 A 
ATOM     21  C   UNL     1      49.221   8.444  13.611  0.00  0.00    +0.000 A 
ATOM     22  C   UNL     1      48.348   7.365  13.399  0.00  0.00    +0.000 A 
BRANCH  17  26
ATOM     23  C   UNL     1      44.561   4.136  11.886  0.00  0.00    +0.000 A 
ATOM     24  C   UNL     1      45.197   4.258  13.119  0.00  0.00    +0.000 A 
ATOM     25  C   UNL     1      46.038   5.346  13.367  0.00  0.00    +0.000 A 
ATOM     26  C   UNL     1      46.281   6.329  12.389  0.00  0.00    +0.000 A 
ATOM     27  C   UNL     1      45.635   6.173  11.147  0.00  0.00    +0.000 A 
ATOM     28  C   UNL     1      44.778   5.094  10.898  0.00  0.00    +0.000 A 
BRANCH  23  30
ATOM     29  N   UNL     1      42.970   2.140  11.435  0.00  0.00    +0.000 NA
ATOM     30  C   UNL     1      43.685   3.035  11.633  0.00  0.00    +0.000 C 
ENDBRANCH  23  30
ENDBRANCH  17  26
ENDBRANCH   1  21
TORSDOF 5
ENDMDL
MODEL 9
REMARK VINA RESULT:    -6.420      3.546      6.307
REMARK INTER + INTRA:          -8.412
REMARK INTER:                  -8.288
REMARK INTRA:                  -0.124
REMARK UNBOUND:                -0.115
REMARK  Name = 
REMARK  5 active torsions:
REMARK  status: ('A' for Active; 'I' for Inactive)
REMARK    1  A    between atoms: C_2  and  C_3
REMARK    2  A    between atoms: C_6  and  C_7
REMARK    3  A    between atoms: C_11  and  C_12
REMARK    4  A    between atoms: C_12  and  N_13
REMARK    5  A    between atoms: C_17  and  C_18
REMARK                            x       y       z     vdW  Elec       q    Type
REMARK                         _______ _______ _______ _____ _____    ______ ____
ROOT
ATOM      1  C   UNL     1      48.625   8.305  12.646  0.00  0.00    +0.000 C 
ATOM      2  C   UNL     1      47.690   9.262  11.929  0.00  0.00    +0.000 C 
ATOM      3  C   UNL     1      48.072   9.549  13.342  0.00  0.00    +0.000 C 
ENDROOT
BRANCH   1   4
ATOM      4  N   UNL     1      48.155   7.032  13.198  0.00  0.00    +0.000 N 
ATOM      5  C   UNL     1      47.090   6.251  12.765  0.00  0.00    +0.000 A 
ATOM      6  C   UNL     1      46.546   6.295  11.489  0.00  0.00    +0.000 A 
ATOM      7  C   UNL     1      45.492   5.441  11.149  0.00  0.00    +0.000 A 
ATOM      8  C   UNL     1      45.001   4.556  12.103  0.00  0.00    +0.000 A 
ATOM      9  C   UNL     1      45.594   4.572  13.354  0.00  0.00    +0.000 A 
ATOM     10  N   UNL     1      46.623   5.389  13.692  0.00  0.00    +0.000 NA
ATOM     11  H   UNL     1      48.281   6.846  14.189  0.00  0.00    +0.000 HD
BRANCH   8  12
ATOM     12  C   UNL     1      43.862   3.649  11.856  0.00  0.00    +0.000 C 
ATOM     13  N   UNL     1      43.845   2.462  12.532  0.00  0.00    +0.000 N 
ATOM     14  O   UNL     1      42.961   3.956  11.089  0.00  0.00    +0.000 OA
ATOM     15  H   UNL     1      44.449   2.257  13.315  0.00  0.00    +0.000 HD
ATOM     16  H   UNL     1      43.025   1.881  12.408  0.00  0.00    +0.000 HD
ENDBRANCH   8  12
ENDBRANCH   1   4
BRANCH   1  21
ATOM     17  C   UNL     1      51.990   7.728  10.823  0.00  0.00    +0.000 A 
ATOM     18  C   UNL     1      52.778   8.530  11.642  0.00  0.00    +0.000 A 
ATOM     19  N   UNL     1      52.345   9.183  12.744  0.00  0.00    +0.000 NA
ATOM     20  C   UNL     1      51.032   9.049  13.045  0.00  0.00    +0.000 A 
ATOM     21  C   UNL     1      50.106   8.338  12.288  0.00  0.00    +0.000 A 
ATOM     22  C   UNL     1      50.628   7.675  11.165  0.00  0.00    +0.000 A 
BRANCH  17  26
ATOM     23  C   UNL     1      53.556   5.434   7.524  0.00  0.00    +0.000 A 
ATOM     24  C   UNL     1      54.013   5.203   8.820  0.00  0.00    +0.000 A 
ATOM     25  C   UNL     1      53.503   5.951   9.885  0.00  0.00    +0.000 A 
ATOM     26  C   UNL     1      52.542   6.960   9.684  0.00  0.00    +0.000 A 
ATOM     27  C   UNL     1      52.108   7.180   8.362  0.00  0.00    +0.000 A 
ATOM     28  C   UNL     1      52.602   6.423   7.294  0.00  0.00    +0.000 A 
BRANCH  23  30
ATOM     29  N   UNL     1      54.471   4.022   5.553  0.00  0.00    +0.000 NA
ATOM     30  C   UNL     1      54.060   4.659   6.435  0.00  0.00    +0.000 C 
ENDBRANCH  23  30
ENDBRANCH  17  26
ENDBRANCH   1  21
TORSDOF 5
ENDMDL
