MODEL 1
REMARK VINA RESULT:    -9.522      0.000      0.000
REMARK INTER + INTRA:         -13.261
REMARK INTER:                 -12.305
REMARK INTRA:                  -0.956
REMARK UNBOUND:                -0.956
REMARK  Name = 
REMARK  5 active torsions:
REMARK  status: ('A' for Active; 'I' for Inactive)
REMARK    1  A    between atoms: C_2  and  C_4
REMARK    2  A    between atoms: N_8  and  C_9
REMARK    3  A    between atoms: C_9  and  C_10
REMARK    4  A    between atoms: C_10  and  C_13
REMARK    5  A    between atoms: C_17  and  C_18
REMARK                            x       y       z     vdW  Elec       q    Type
REMARK                         _______ _______ _______ _____ _____    ______ ____
ROOT
ATOM      1  C   UNL     1      43.559   5.529  12.190  0.00  0.00    +0.000 C 
ATOM      2  F   UNL     1      43.332   6.744  11.595  0.00  0.00    +0.000 F 
ATOM      3  F   UNL     1      42.654   5.457  13.210  0.00  0.00    +0.000 F 
ENDROOT
BRANCH   1   4
ATOM      4  C   UNL     1      44.982   5.396  12.685  0.00  0.00    +0.000 A 
ATOM      5  C   UNL     1      45.443   4.161  13.160  0.00  0.00    +0.000 A 
ATOM      6  C   UNL     1      46.745   4.033  13.613  0.00  0.00    +0.000 A 
ATOM      7  C   UNL     1      47.604   5.130  13.575  0.00  0.00    +0.000 A 
ATOM      8  C   UNL     1      47.196   6.376  13.069  0.00  0.00    +0.000 A 
ATOM      9  C   UNL     1      45.855   6.501  12.669  0.00  0.00    +0.000 A 
BRANCH   8  10
ATOM     10  C   UNL     1      48.166   7.554  12.908  0.00  0.00    +0.000 C 
ATOM     11  C   UNL     1      49.444   7.393  13.760  0.00  0.00    +0.000 C 
ATOM     12  C   UNL     1      49.132   7.529  15.251  0.00  0.00    +0.000 C 
ATOM     13  C   UNL     1      48.330   8.792  15.575  0.00  0.00    +0.000 C 
ATOM     14  N   UNL     1      47.211   9.052  14.673  0.00  0.00    +0.000 NA
ATOM     15  C   UNL     1      47.578   8.945  13.257  0.00  0.00    +0.000 C 
ATOM     16  H   UNL     1      46.806   9.965  14.868  0.00  0.00    +0.000 HD
ENDBRANCH   8  10
ENDBRANCH   1   4
BRANCH   1  17
ATOM     17  C   UNL     1      43.245   4.425  11.153  0.00  0.00    +0.000 C 
BRANCH  17  22
ATOM     18  C   UNL     1      46.503   2.498   7.735  0.00  0.00    +0.000 A 
ATOM     19  C   UNL     1      45.660   1.841   8.624  0.00  0.00    +0.000 A 
ATOM     20  C   UNL     1      44.748   2.586   9.367  0.00  0.00    +0.000 A 
ATOM     21  C   UNL     1      44.701   3.969   9.214  0.00  0.00    +0.000 A 
ATOM     22  N   UNL     1      43.740   4.754   9.815  0.00  0.00    +0.000 N 
ATOM     23  N   UNL     1      45.546   4.620   8.392  0.00  0.00    +0.000 NA
ATOM     24  C   UNL     1      46.434   3.879   7.675  0.00  0.00    +0.000 A 
ATOM     25  H   UNL     1      43.967   5.736   9.655  0.00  0.00    +0.000 HD
BRANCH  18  27
ATOM     26  N   UNL     1      48.529   2.464   6.413  0.00  0.00    +0.000 N 
ATOM     27  C   UNL     1      47.441   1.777   6.861  0.00  0.00    +0.000 C 
ATOM     28  O   UNL     1      47.275   0.593   6.581  0.00  0.00    +0.000 OA
ATOM     29  H   UNL     1      49.234   1.925   5.916  0.00  0.00    +0.000 HD
ATOM     30  H   UNL     1      48.832   3.335   6.834  0.00  0.00    +0.000 HD
ENDBRANCH  18  27
ENDBRANCH  17  22
ENDBRANCH   1  17
TORSDOF 5
ENDMDL
MODEL 2
REMARK VINA RESULT:    -8.814      1.472      2.347
REMARK INTER + INTRA:         -12.346
REMARK INTER:                 -11.999
REMARK INTRA:                  -0.346
REMARK UNBOUND:                -0.956
REMARK  Name = 
REMARK  5 active torsions:
REMARK  status: ('A' for Active; 'I' for Inactive)
REMARK    1  A    between atoms: C_2  and  C_4
REMARK    2  A    between atoms: N_8  and  C_9
REMARK    3  A    between atoms: C_9  and  C_10
REMARK    4  A    between atoms: C_10  and  C_13
REMARK    5  A    between atoms: C_17  and  C_18
REMARK                            x       y       z     vdW  Elec       q    Type
REMARK                         _______ _______ _______ _____ _____    ______ ____
ROOT
ATOM      1  C   UNL     1      44.325   4.711  12.312  0.00  0.00    +0.000 C 
ATOM      2  F   UNL     1      43.723   4.442  13.514  0.00  0.00    +0.000 F 
ATOM      3  F   UNL     1      45.351   3.814  12.218  0.00  0.00    +0.000 F 
ENDROOT
BRANCH   1   4
ATOM      4  C   UNL     1      44.812   6.139  12.227  0.00  0.00    +0.000 A 
ATOM      5  C   UNL     1      44.070   7.089  11.514  0.00  0.00    +0.000 A 
ATOM      6  C   UNL     1      44.511   8.399  11.434  0.00  0.00    +0.000 A 
ATOM      7  C   UNL     1      45.683   8.777  12.084  0.00  0.00    +0.000 A 
ATOM      8  C   UNL     1      46.438   7.868  12.844  0.00  0.00    +0.000 A 
ATOM      9  C   UNL     1      46.006   6.531  12.865  0.00  0.00    +0.000 A 
BRANCH   8  10
ATOM     10  C   UNL     1      47.661   8.299  13.665  0.00  0.00    +0.000 C 
ATOM     11  C   UNL     1      48.480   9.410  12.972  0.00  0.00    +0.000 C 
ATOM     12  C   UNL     1      49.190   8.876  11.728  0.00  0.00    +0.000 C 
ATOM     13  C   UNL     1      49.991   7.600  12.005  0.00  0.00    +0.000 C 
ATOM     14  N   UNL     1      49.289   6.601  12.805  0.00  0.00    +0.000 NA
ATOM     15  C   UNL     1      48.660   7.164  14.005  0.00  0.00    +0.000 C 
ATOM     16  H   UNL     1      49.921   5.843  13.056  0.00  0.00    +0.000 HD
ENDBRANCH   8  10
ENDBRANCH   1   4
BRANCH   1  17
ATOM     17  C   UNL     1      43.297   4.425  11.191  0.00  0.00    +0.000 C 
BRANCH  17  22
ATOM     18  C   UNL     1      46.477   2.498   7.699  0.00  0.00    +0.000 A 
ATOM     19  C   UNL     1      45.613   1.842   8.569  0.00  0.00    +0.000 A 
ATOM     20  C   UNL     1      44.730   2.594   9.340  0.00  0.00    +0.000 A 
ATOM     21  C   UNL     1      44.732   3.982   9.233  0.00  0.00    +0.000 A 
ATOM     22  N   UNL     1      43.802   4.780   9.863  0.00  0.00    +0.000 N 
ATOM     23  N   UNL     1      45.598   4.629   8.430  0.00  0.00    +0.000 NA
ATOM     24  C   UNL     1      46.458   3.882   7.687  0.00  0.00    +0.000 A 
ATOM     25  H   UNL     1      44.064   5.759   9.735  0.00  0.00    +0.000 HD
BRANCH  18  27
ATOM     26  N   UNL     1      48.425   2.475   6.265  0.00  0.00    +0.000 N 
ATOM     27  C   UNL     1      47.386   1.773   6.799  0.00  0.00    +0.000 C 
ATOM     28  O   UNL     1      47.243   0.575   6.570  0.00  0.00    +0.000 OA
ATOM     29  H   UNL     1      49.117   1.940   5.747  0.00  0.00    +0.000 HD
ATOM     30  H   UNL     1      48.723   3.369   6.638  0.00  0.00    +0.000 HD
ENDBRANCH  18  27
ENDBRANCH  17  22
ENDBRANCH   1  17
TORSDOF 5
ENDMDL
MODEL 3
REMARK VINA RESULT:    -8.064      2.492      3.521
REMARK INTER + INTRA:         -11.376
REMARK INTER:                 -10.496
REMARK INTRA:                  -0.880
REMARK UNBOUND:                -0.956
REMARK  Name = 
REMARK  5 active torsions:
REMARK  status: ('A' for Active; 'I' for Inactive)
REMARK    1  A    between atoms: C_2  and  C_4
REMARK    2  A    between atoms: N_8  and  C_9
REMARK    3  A    between atoms: C_9  and  C_10
REMARK    4  A    between atoms: C_10  and  C_13
REMARK    5  A    between atoms: C_17  and  C_18
REMARK                            x       y       z     vdW  Elec       q    Type
REMARK                         _______ _______ _______ _____ _____    ______ ____
ROOT
ATOM      1  C   UNL     1      45.058   5.138  12.286  0.00  0.00    +0.000 C 
ATOM      2  F   UNL     1      44.484   4.970  13.520  0.00  0.00    +0.000 F 
ATOM      3  F   UNL     1      45.965   4.123  12.173  0.00  0.00    +0.000 F 
ENDROOT
BRANCH   1   4
ATOM      4  C   UNL     1      45.707   6.496  12.141  0.00  0.00    +0.000 A 
ATOM      5  C   UNL     1      47.071   6.588  11.834  0.00  0.00    +0.000 A 
ATOM      6  C   UNL     1      47.670   7.829  11.699  0.00  0.00    +0.000 A 
ATOM      7  C   UNL     1      46.909   8.987  11.846  0.00  0.00    +0.000 A 
ATOM      8  C   UNL     1      45.531   8.941  12.115  0.00  0.00    +0.000 A 
ATOM      9  C   UNL     1      44.953   7.675  12.307  0.00  0.00    +0.000 A 
BRANCH   8  10
ATOM     10  C   UNL     1      44.660  10.204  12.157  0.00  0.00    +0.000 C 
ATOM     11  C   UNL     1      43.407  10.094  11.262  0.00  0.00    +0.000 C 
ATOM     12  C   UNL     1      43.787  10.103   9.781  0.00  0.00    +0.000 C 
ATOM     13  C   UNL     1      44.707  11.270   9.413  0.00  0.00    +0.000 C 
ATOM     14  N   UNL     1      45.808  11.496  10.345  0.00  0.00    +0.000 NA
ATOM     15  C   UNL     1      45.379  11.514  11.748  0.00  0.00    +0.000 C 
ATOM     16  H   UNL     1      46.297  12.357  10.110  0.00  0.00    +0.000 HD
ENDBRANCH   8  10
ENDBRANCH   1   4
BRANCH   1  17
ATOM     17  C   UNL     1      43.953   4.953  11.219  0.00  0.00    +0.000 C 
BRANCH  17  22
ATOM     18  C   UNL     1      46.602   2.594   7.554  0.00  0.00    +0.000 A 
ATOM     19  C   UNL     1      45.700   2.070   8.473  0.00  0.00    +0.000 A 
ATOM     20  C   UNL     1      44.986   2.940   9.292  0.00  0.00    +0.000 A 
ATOM     21  C   UNL     1      45.190   4.313   9.182  0.00  0.00    +0.000 A 
ATOM     22  N   UNL     1      44.428   5.237   9.863  0.00  0.00    +0.000 N 
ATOM     23  N   UNL     1      46.097   4.828   8.330  0.00  0.00    +0.000 NA
ATOM     24  C   UNL     1      46.790   3.965   7.539  0.00  0.00    +0.000 A 
ATOM     25  H   UNL     1      44.827   6.166   9.719  0.00  0.00    +0.000 HD
BRANCH  18  27
ATOM     26  N   UNL     1      48.273   2.357   5.820  0.00  0.00    +0.000 N 
ATOM     27  C   UNL     1      47.339   1.747   6.604  0.00  0.00    +0.000 C 
ATOM     28  O   UNL     1      47.153   0.534   6.547  0.00  0.00    +0.000 OA
ATOM     29  H   UNL     1      48.863   1.747   5.259  0.00  0.00    +0.000 HD
ATOM     30  H   UNL     1      48.635   3.280   6.027  0.00  0.00    +0.000 HD
ENDBRANCH  18  27
ENDBRANCH  17  22
ENDBRANCH   1  17
TORSDOF 5
ENDMDL
MODEL 4
REMARK VINA RESULT:    -7.368      1.953      2.727
REMARK INTER + INTRA:         -10.477
REMARK INTER:                 -10.234
REMARK INTRA:                  -0.243
REMARK UNBOUND:                -0.956
REMARK  Name = 
REMARK  5 active torsions:
REMARK  status: ('A' for Active; 'I' for Inactive)
REMARK    1  A    between atoms: C_2  and  C_4
REMARK    2  A    between atoms: N_8  and  C_9
REMARK    3  A    between atoms: C_9  and  C_10
REMARK    4  A    between atoms: C_10  and  C_13
REMARK    5  A    between atoms: C_17  and  C_18
REMARK                            x       y       z     vdW  Elec       q    Type
REMARK                         _______ _______ _______ _____ _____    ______ ____
ROOT
ATOM      1  C   UNL     1      44.123   5.592  12.437  0.00  0.00    +0.000 C 
ATOM      2  F   UNL     1      44.014   6.755  11.718  0.00  0.00    +0.000 F 
ATOM      3  F   UNL     1      43.116   5.647  13.358  0.00  0.00    +0.000 F 
ENDROOT
BRANCH   1   4
ATOM      4  C   UNL     1      45.479   5.452  13.088  0.00  0.00    +0.000 A 
ATOM      5  C   UNL     1      46.579   6.146  12.567  0.00  0.00    +0.000 A 
ATOM      6  C   UNL     1      47.824   6.022  13.160  0.00  0.00    +0.000 A 
ATOM      7  C   UNL     1      47.977   5.224  14.292  0.00  0.00    +0.000 A 
ATOM      8  C   UNL     1      46.894   4.542  14.872  0.00  0.00    +0.000 A 
ATOM      9  C   UNL     1      45.652   4.633  14.222  0.00  0.00    +0.000 A 
BRANCH   8  10
ATOM     10  C   UNL     1      47.024   3.761  16.187  0.00  0.00    +0.000 C 
ATOM     11  C   UNL     1      46.902   4.665  17.432  0.00  0.00    +0.000 C 
ATOM     12  C   UNL     1      48.117   5.584  17.566  0.00  0.00    +0.000 C 
ATOM     13  C   UNL     1      49.444   4.825  17.483  0.00  0.00    +0.000 C 
ATOM     14  N   UNL     1      49.518   3.840  16.408  0.00  0.00    +0.000 NA
ATOM     15  C   UNL     1      48.343   2.963  16.351  0.00  0.00    +0.000 C 
ATOM     16  H   UNL     1      50.370   3.290  16.492  0.00  0.00    +0.000 HD
ENDBRANCH   8  10
ENDBRANCH   1   4
BRANCH   1  17
ATOM     17  C   UNL     1      43.864   4.411  11.472  0.00  0.00    +0.000 C 
BRANCH  17  22
ATOM     18  C   UNL     1      46.595   2.556   7.583  0.00  0.00    +0.000 A 
ATOM     19  C   UNL     1      45.908   1.881   8.586  0.00  0.00    +0.000 A 
ATOM     20  C   UNL     1      45.107   2.606   9.464  0.00  0.00    +0.000 A 
ATOM     21  C   UNL     1      45.015   3.989   9.330  0.00  0.00    +0.000 A 
ATOM     22  N   UNL     1      44.145   4.755  10.076  0.00  0.00    +0.000 N 
ATOM     23  N   UNL     1      45.714   4.658   8.394  0.00  0.00    +0.000 NA
ATOM     24  C   UNL     1      46.495   3.937   7.545  0.00  0.00    +0.000 A 
ATOM     25  H   UNL     1      44.328   5.742   9.891  0.00  0.00    +0.000 HD
BRANCH  18  27
ATOM     26  N   UNL     1      48.504   2.499   6.099  0.00  0.00    +0.000 N 
ATOM     27  C   UNL     1      47.400   1.855   6.572  0.00  0.00    +0.000 C 
ATOM     28  O   UNL     1      47.116   0.721   6.199  0.00  0.00    +0.000 OA
ATOM     29  H   UNL     1      49.122   1.960   5.498  0.00  0.00    +0.000 HD
ATOM     30  H   UNL     1      48.910   3.299   6.572  0.00  0.00    +0.000 HD
ENDBRANCH  18  27
ENDBRANCH  17  22
ENDBRANCH   1  17
TORSDOF 5
ENDMDL
MODEL 5
REMARK VINA RESULT:    -7.269      4.160      7.461
REMARK INTER + INTRA:         -10.349
REMARK INTER:                  -9.289
REMARK INTRA:                  -1.060
REMARK UNBOUND:                -0.956
REMARK  Name = 
REMARK  5 active torsions:
REMARK  status: ('A' for Active; 'I' for Inactive)
REMARK    1  A    between atoms: C_2  and  C_4
REMARK    2  A    between atoms: N_8  and  C_9
REMARK    3  A    between atoms: C_9  and  C_10
REMARK    4  A    between atoms: C_10  and  C_13
REMARK    5  A    between atoms: C_17  and  C_18
REMARK                            x       y       z     vdW  Elec       q    Type
REMARK                         _______ _______ _______ _____ _____    ______ ____
ROOT
ATOM      1  C   UNL     1      48.970   7.958  12.269  0.00  0.00    +0.000 C 
ATOM      2  F   UNL     1      49.547   8.911  11.468  0.00  0.00    +0.000 F 
ATOM      3  F   UNL     1      49.620   6.796  11.964  0.00  0.00    +0.000 F 
ENDROOT
BRANCH   1   4
ATOM      4  C   UNL     1      47.480   7.850  12.039  0.00  0.00    +0.000 A 
ATOM      5  C   UNL     1      46.674   8.992  12.143  0.00  0.00    +0.000 A 
ATOM      6  C   UNL     1      45.309   8.899  11.932  0.00  0.00    +0.000 A 
ATOM      7  C   UNL     1      44.740   7.673  11.595  0.00  0.00    +0.000 A 
ATOM      8  C   UNL     1      45.516   6.511  11.441  0.00  0.00    +0.000 A 
ATOM      9  C   UNL     1      46.889   6.613  11.716  0.00  0.00    +0.000 A 
BRANCH   8  10
ATOM     10  C   UNL     1      44.920   5.185  10.950  0.00  0.00    +0.000 C 
ATOM     11  C   UNL     1      43.381   5.231  10.833  0.00  0.00    +0.000 C 
ATOM     12  C   UNL     1      42.726   5.303  12.213  0.00  0.00    +0.000 C 
ATOM     13  C   UNL     1      43.240   4.224  13.170  0.00  0.00    +0.000 C 
ATOM     14  N   UNL     1      44.690   4.049  13.171  0.00  0.00    +0.000 NA
ATOM     15  C   UNL     1      45.257   3.948  11.821  0.00  0.00    +0.000 C 
ATOM     16  H   UNL     1      44.947   3.237  13.727  0.00  0.00    +0.000 HD
ENDBRANCH   8  10
ENDBRANCH   1   4
BRANCH   1  17
ATOM     17  C   UNL     1      49.263   8.333  13.741  0.00  0.00    +0.000 C 
BRANCH  17  22
ATOM     18  C   UNL     1      48.163   4.457  16.870  0.00  0.00    +0.000 A 
ATOM     19  C   UNL     1      47.437   4.965  15.798  0.00  0.00    +0.000 A 
ATOM     20  C   UNL     1      48.013   5.946  14.994  0.00  0.00    +0.000 A 
ATOM     21  C   UNL     1      49.295   6.405  15.281  0.00  0.00    +0.000 A 
ATOM     22  N   UNL     1      49.978   7.275  14.458  0.00  0.00    +0.000 N 
ATOM     23  N   UNL     1      49.987   5.956  16.346  0.00  0.00    +0.000 NA
ATOM     24  C   UNL     1      49.410   5.001  17.123  0.00  0.00    +0.000 A 
ATOM     25  H   UNL     1      50.843   7.559  14.919  0.00  0.00    +0.000 HD
BRANCH  18  27
ATOM     26  N   UNL     1      48.371   3.067  18.838  0.00  0.00    +0.000 N 
ATOM     27  C   UNL     1      47.655   3.369  17.719  0.00  0.00    +0.000 C 
ATOM     28  O   UNL     1      46.607   2.785  17.455  0.00  0.00    +0.000 OA
ATOM     29  H   UNL     1      47.948   2.403  19.483  0.00  0.00    +0.000 HD
ATOM     30  H   UNL     1      49.070   3.693  19.220  0.00  0.00    +0.000 HD
ENDBRANCH  18  27
ENDBRANCH  17  22
ENDBRANCH   1  17
TORSDOF 5
ENDMDL
MODEL 6
REMARK VINA RESULT:    -7.126      3.299      5.258
REMARK INTER + INTRA:         -10.165
REMARK INTER:                  -9.121
REMARK INTRA:                  -1.044
REMARK UNBOUND:                -0.956
REMARK  Name = 
REMARK  5 active torsions:
REMARK  status: ('A' for Active; 'I' for Inactive)
REMARK    1  A    between atoms: C_2  and  C_4
REMARK    2  A    between atoms: N_8  and  C_9
REMARK    3  A    between atoms: C_9  and  C_10
REMARK    4  A    between atoms: C_10  and  C_13
REMARK    5  A    between atoms: C_17  and  C_18
REMARK                            x       y       z     vdW  Elec       q    Type
REMARK                         _______ _______ _______ _____ _____    ______ ____
ROOT
ATOM      1  C   UNL     1      48.524   8.020  13.121  0.00  0.00    +0.000 C 
ATOM      2  F   UNL     1      48.692   7.243  12.004  0.00  0.00    +0.000 F 
ATOM      3  F   UNL     1      49.118   9.212  12.819  0.00  0.00    +0.000 F 
ENDROOT
BRANCH   1   4
ATOM      4  C   UNL     1      49.127   7.383  14.352  0.00  0.00    +0.000 A 
ATOM      5  C   UNL     1      50.427   7.724  14.748  0.00  0.00    +0.000 A 
ATOM      6  C   UNL     1      50.985   7.145  15.875  0.00  0.00    +0.000 A 
ATOM      7  C   UNL     1      50.242   6.238  16.629  0.00  0.00    +0.000 A 
ATOM      8  C   UNL     1      48.922   5.898  16.292  0.00  0.00    +0.000 A 
ATOM      9  C   UNL     1      48.395   6.451  15.113  0.00  0.00    +0.000 A 
BRANCH   8  10
ATOM     10  C   UNL     1      48.053   4.997  17.181  0.00  0.00    +0.000 C 
ATOM     11  C   UNL     1      48.889   4.132  18.149  0.00  0.00    +0.000 C 
ATOM     12  C   UNL     1      49.669   3.057  17.392  0.00  0.00    +0.000 C 
ATOM     13  C   UNL     1      48.786   2.243  16.443  0.00  0.00    +0.000 C 
ATOM     14  N   UNL     1      47.865   3.036  15.634  0.00  0.00    +0.000 NA
ATOM     15  C   UNL     1      47.117   4.025  16.419  0.00  0.00    +0.000 C 
ATOM     16  H   UNL     1      47.227   2.427  15.127  0.00  0.00    +0.000 HD
ENDBRANCH   8  10
ENDBRANCH   1   4
BRANCH   1  17
ATOM     17  C   UNL     1      47.006   8.245  13.321  0.00  0.00    +0.000 C 
BRANCH  17  22
ATOM     18  C   UNL     1      44.605   4.174  11.402  0.00  0.00    +0.000 A 
ATOM     19  C   UNL     1      44.746   4.579  12.725  0.00  0.00    +0.000 A 
ATOM     20  C   UNL     1      45.327   5.814  12.997  0.00  0.00    +0.000 A 
ATOM     21  C   UNL     1      45.763   6.616  11.945  0.00  0.00    +0.000 A 
ATOM     22  N   UNL     1      46.226   7.901  12.130  0.00  0.00    +0.000 N 
ATOM     23  N   UNL     1      45.677   6.213  10.663  0.00  0.00    +0.000 NA
ATOM     24  C   UNL     1      45.110   5.002  10.414  0.00  0.00    +0.000 A 
ATOM     25  H   UNL     1      46.593   8.252  11.243  0.00  0.00    +0.000 HD
BRANCH  18  27
ATOM     26  N   UNL     1      44.469   2.211   9.996  0.00  0.00    +0.000 N 
ATOM     27  C   UNL     1      43.935   2.919  11.030  0.00  0.00    +0.000 C 
ATOM     28  O   UNL     1      42.961   2.503  11.652  0.00  0.00    +0.000 OA
ATOM     29  H   UNL     1      44.078   1.287   9.827  0.00  0.00    +0.000 HD
ATOM     30  H   UNL     1      45.405   2.381   9.648  0.00  0.00    +0.000 HD
ENDBRANCH  18  27
ENDBRANCH  17  22
ENDBRANCH   1  17
TORSDOF 5
ENDMDL
MODEL 7
REMARK VINA RESULT:    -6.994      4.675      6.475
REMARK INTER + INTRA:          -9.993
REMARK INTER:                  -9.415
REMARK INTRA:                  -0.578
REMARK UNBOUND:                -0.956
REMARK  Name = 
REMARK  5 active torsions:
REMARK  status: ('A' for Active; 'I' for Inactive)
REMARK    1  A    between atoms: C_2  and  C_4
REMARK    2  A    between atoms: N_8  and  C_9
REMARK    3  A    between atoms: C_9  and  C_10
REMARK    4  A    between atoms: C_10  and  C_13
REMARK    5  A    between atoms: C_17  and  C_18
REMARK                            x       y       z     vdW  Elec       q    Type
REMARK                         _______ _______ _______ _____ _____    ______ ____
ROOT
ATOM      1  C   UNL     1      48.110   2.899  16.911  0.00  0.00    +0.000 C 
ATOM      2  F   UNL     1      47.053   2.365  17.602  0.00  0.00    +0.000 F 
ATOM      3  F   UNL     1      48.661   1.848  16.236  0.00  0.00    +0.000 F 
ENDROOT
BRANCH   1   4
ATOM      4  C   UNL     1      49.108   3.568  17.829  0.00  0.00    +0.000 A 
ATOM      5  C   UNL     1      50.481   3.420  17.593  0.00  0.00    +0.000 A 
ATOM      6  C   UNL     1      51.400   4.032  18.428  0.00  0.00    +0.000 A 
ATOM      7  C   UNL     1      50.956   4.815  19.492  0.00  0.00    +0.000 A 
ATOM      8  C   UNL     1      49.590   5.024  19.742  0.00  0.00    +0.000 A 
ATOM      9  C   UNL     1      48.674   4.347  18.919  0.00  0.00    +0.000 A 
BRANCH   8  10
ATOM     10  C   UNL     1      49.091   5.981  20.833  0.00  0.00    +0.000 C 
ATOM     11  C   UNL     1      47.643   6.457  20.590  0.00  0.00    +0.000 C 
ATOM     12  C   UNL     1      47.566   7.393  19.383  0.00  0.00    +0.000 C 
ATOM     13  C   UNL     1      48.587   8.533  19.452  0.00  0.00    +0.000 C 
ATOM     14  N   UNL     1      49.932   8.124  19.846  0.00  0.00    +0.000 NA
ATOM     15  C   UNL     1      49.946   7.258  21.031  0.00  0.00    +0.000 C 
ATOM     16  H   UNL     1      50.520   8.941  19.995  0.00  0.00    +0.000 HD
ENDBRANCH   8  10
ENDBRANCH   1   4
BRANCH   1  17
ATOM     17  C   UNL     1      47.547   3.918  15.893  0.00  0.00    +0.000 C 
BRANCH  17  22
ATOM     18  C   UNL     1      44.582   4.678  11.812  0.00  0.00    +0.000 A 
ATOM     19  C   UNL     1      45.122   5.601  12.700  0.00  0.00    +0.000 A 
ATOM     20  C   UNL     1      46.027   5.165  13.663  0.00  0.00    +0.000 A 
ATOM     21  C   UNL     1      46.369   3.817  13.727  0.00  0.00    +0.000 A 
ATOM     22  N   UNL     1      47.352   3.334  14.564  0.00  0.00    +0.000 N 
ATOM     23  N   UNL     1      45.814   2.906  12.904  0.00  0.00    +0.000 NA
ATOM     24  C   UNL     1      44.928   3.347  11.971  0.00  0.00    +0.000 A 
ATOM     25  H   UNL     1      47.351   2.314  14.524  0.00  0.00    +0.000 HD
BRANCH  18  27
ATOM     26  N   UNL     1      44.049   4.733   9.453  0.00  0.00    +0.000 N 
ATOM     27  C   UNL     1      43.678   5.071  10.721  0.00  0.00    +0.000 C 
ATOM     28  O   UNL     1      42.614   5.641  10.943  0.00  0.00    +0.000 OA
ATOM     29  H   UNL     1      43.362   4.896   8.721  0.00  0.00    +0.000 HD
ATOM     30  H   UNL     1      44.765   4.042   9.264  0.00  0.00    +0.000 HD
ENDBRANCH  18  27
ENDBRANCH  17  22
ENDBRANCH   1  17
TORSDOF 5
ENDMDL
MODEL 8
REMARK VINA RESULT:    -6.903      3.861      6.032
REMARK INTER + INTRA:          -9.876
REMARK INTER:                  -8.890
REMARK INTRA:                  -0.986
REMARK UNBOUND:                -0.956
REMARK  Name = 
REMARK  5 active torsions:
REMARK  status: ('A' for Active; 'I' for Inactive)
REMARK    1  A    between atoms: C_2  and  C_4
REMARK    2  A    between atoms: N_8  and  C_9
REMARK    3  A    between atoms: C_9  and  C_10
REMARK    4  A    between atoms: C_10  and  C_13
REMARK    5  A    between atoms: C_17  and  C_18
REMARK                            x       y       z     vdW  Elec       q    Type
REMARK                         _______ _______ _______ _____ _____    ______ ____
ROOT
ATOM      1  C   UNL     1      48.911   8.390  14.176  0.00  0.00    +0.000 C 
ATOM      2  F   UNL     1      49.566   9.593  14.105  0.00  0.00    +0.000 F 
ATOM      3  F   UNL     1      47.623   8.705  14.504  0.00  0.00    +0.000 F 
ENDROOT
BRANCH   1   4
ATOM      4  C   UNL     1      49.541   7.459  15.187  0.00  0.00    +0.000 A 
ATOM      5  C   UNL     1      50.916   7.539  15.447  0.00  0.00    +0.000 A 
ATOM      6  C   UNL     1      51.497   6.690  16.373  0.00  0.00    +0.000 A 
ATOM      7  C   UNL     1      50.710   5.770  17.063  0.00  0.00    +0.000 A 
ATOM      8  C   UNL     1      49.322   5.684  16.863  0.00  0.00    +0.000 A 
ATOM      9  C   UNL     1      48.759   6.513  15.878  0.00  0.00    +0.000 A 
BRANCH   8  10
ATOM     10  C   UNL     1      48.427   4.763  17.704  0.00  0.00    +0.000 C 
ATOM     11  C   UNL     1      49.206   3.590  18.335  0.00  0.00    +0.000 C 
ATOM     12  C   UNL     1      49.658   2.592  17.268  0.00  0.00    +0.000 C 
ATOM     13  C   UNL     1      48.516   2.150  16.350  0.00  0.00    +0.000 C 
ATOM     14  N   UNL     1      47.661   3.234  15.874  0.00  0.00    +0.000 NA
ATOM     15  C   UNL     1      47.228   4.138  16.947  0.00  0.00    +0.000 C 
ATOM     16  H   UNL     1      46.856   2.857  15.379  0.00  0.00    +0.000 HD
ENDBRANCH   8  10
ENDBRANCH   1   4
BRANCH   1  17
ATOM     17  C   UNL     1      48.935   7.751  12.767  0.00  0.00    +0.000 C 
BRANCH  17  22
ATOM     18  C   UNL     1      44.463   5.422  11.996  0.00  0.00    +0.000 A 
ATOM     19  C   UNL     1      44.988   6.557  11.388  0.00  0.00    +0.000 A 
ATOM     20  C   UNL     1      46.302   6.926  11.663  0.00  0.00    +0.000 A 
ATOM     21  C   UNL     1      47.063   6.160  12.543  0.00  0.00    +0.000 A 
ATOM     22  N   UNL     1      48.404   6.386  12.761  0.00  0.00    +0.000 N 
ATOM     23  N   UNL     1      46.548   5.087  13.174  0.00  0.00    +0.000 NA
ATOM     24  C   UNL     1      45.262   4.742  12.898  0.00  0.00    +0.000 A 
ATOM     25  H   UNL     1      48.724   5.783  13.521  0.00  0.00    +0.000 HD
BRANCH  18  27
ATOM     26  N   UNL     1      42.085   5.818  11.801  0.00  0.00    +0.000 N 
ATOM     27  C   UNL     1      43.111   4.926  11.700  0.00  0.00    +0.000 C 
ATOM     28  O   UNL     1      42.917   3.770  11.336  0.00  0.00    +0.000 OA
ATOM     29  H   UNL     1      41.175   5.501  11.474  0.00  0.00    +0.000 HD
ATOM     30  H   UNL     1      42.237   6.819  11.831  0.00  0.00    +0.000 HD
ENDBRANCH  18  27
ENDBRANCH  17  22
ENDBRANCH   1  17
TORSDOF 5
ENDMDL
MODEL 9
REMARK VINA RESULT:    -6.605      3.512      5.830
REMARK INTER + INTRA:          -9.491
REMARK INTER:                  -8.538
REMARK INTRA:                  -0.952
REMARK UNBOUND:                -0.956
REMARK  Name = 
REMARK  5 active torsions:
REMARK  status: ('A' for Active; 'I' for Inactive)
REMARK    1  A    between atoms: C_2  and  C_4
REMARK    2  A    between atoms: N_8  and  C_9
REMARK    3  A    between atoms: C_9  and  C_10
REMARK    4  A    between atoms: C_10  and  C_13
REMARK    5  A    between atoms: C_17  and  C_18
REMARK                            x       y       z     vdW  Elec       q    Type
REMARK                         _______ _______ _______ _____ _____    ______ ____
ROOT
ATOM      1  C   UNL     1      49.398   8.403  14.171  0.00  0.00    +0.000 C 
ATOM      2  F   UNL     1      50.753   8.559  14.028  0.00  0.00    +0.000 F 
ATOM      3  F   UNL     1      48.847   9.489  13.552  0.00  0.00    +0.000 F 
ENDROOT
BRANCH   1   4
ATOM      4  C   UNL     1      48.988   8.311  15.623  0.00  0.00    +0.000 A 
ATOM      5  C   UNL     1      48.314   9.380  16.228  0.00  0.00    +0.000 A 
ATOM      6  C   UNL     1      47.935   9.300  17.557  0.00  0.00    +0.000 A 
ATOM      7  C   UNL     1      48.204   8.145  18.287  0.00  0.00    +0.000 A 
ATOM      8  C   UNL     1      48.842   7.033  17.711  0.00  0.00    +0.000 A 
ATOM      9  C   UNL     1      49.271   7.156  16.379  0.00  0.00    +0.000 A 
BRANCH   8  10
ATOM     10  C   UNL     1      49.033   5.712  18.468  0.00  0.00    +0.000 C 
ATOM     11  C   UNL     1      49.471   4.555  17.545  0.00  0.00    +0.000 C 
ATOM     12  C   UNL     1      48.338   4.142  16.605  0.00  0.00    +0.000 C 
ATOM     13  C   UNL     1      47.024   3.877  17.344  0.00  0.00    +0.000 C 
ATOM     14  N   UNL     1      46.674   4.880  18.346  0.00  0.00    +0.000 NA
ATOM     15  C   UNL     1      47.789   5.210  19.242  0.00  0.00    +0.000 C 
ATOM     16  H   UNL     1      45.864   4.576  18.882  0.00  0.00    +0.000 HD
ENDBRANCH   8  10
ENDBRANCH   1   4
BRANCH   1  17
ATOM     17  C   UNL     1      48.984   7.121  13.412  0.00  0.00    +0.000 C 
BRANCH  17  22
ATOM     18  C   UNL     1      45.070   4.202  11.933  0.00  0.00    +0.000 A 
ATOM     19  C   UNL     1      45.849   4.125  13.083  0.00  0.00    +0.000 A 
ATOM     20  C   UNL     1      46.778   5.130  13.339  0.00  0.00    +0.000 A 
ATOM     21  C   UNL     1      46.916   6.186  12.442  0.00  0.00    +0.000 A 
ATOM     22  N   UNL     1      47.717   7.279  12.693  0.00  0.00    +0.000 N 
ATOM     23  N   UNL     1      46.202   6.244  11.301  0.00  0.00    +0.000 NA
ATOM     24  C   UNL     1      45.301   5.253  11.063  0.00  0.00    +0.000 A 
ATOM     25  H   UNL     1      47.752   7.864  11.857  0.00  0.00    +0.000 HD
BRANCH  18  27
ATOM     26  N   UNL     1      43.686   2.339  12.614  0.00  0.00    +0.000 N 
ATOM     27  C   UNL     1      44.017   3.222  11.630  0.00  0.00    +0.000 C 
ATOM     28  O   UNL     1      43.430   3.224  10.552  0.00  0.00    +0.000 OA
ATOM     29  H   UNL     1      42.875   1.750  12.442  0.00  0.00    +0.000 HD
ATOM     30  H   UNL     1      43.951   2.481  13.581  0.00  0.00    +0.000 HD
ENDBRANCH  18  27
ENDBRANCH  17  22
ENDBRANCH   1  17
TORSDOF 5
ENDMDL
