MODEL 1
REMARK VINA RESULT:    -9.152      0.000      0.000
REMARK INTER + INTRA:         -12.625
REMARK INTER:                 -11.827
REMARK INTRA:                  -0.798
REMARK UNBOUND:                -0.798
REMARK  Name = 
REMARK  5 active torsions:
REMARK  status: ('A' for Active; 'I' for Inactive)
REMARK    1  A    between atoms: C_2  and  C_4
REMARK    2  A    between atoms: N_8  and  C_9
REMARK    3  A    between atoms: C_9  and  C_10
REMARK    4  A    between atoms: C_10  and  C_11
REMARK    5  A    between atoms: C_15  and  C_16
REMARK                            x       y       z     vdW  Elec       q    Type
REMARK                         _______ _______ _______ _____ _____    ______ ____
ROOT
ATOM      1  C   UNL     1      43.070   4.514  11.007  0.00  0.00    +0.000 C 
ENDROOT
BRANCH   1   6
ATOM      2  C   UNL     1      46.369   2.344   7.755  0.00  0.00    +0.000 A 
ATOM      3  C   UNL     1      45.558   1.803   8.745  0.00  0.00    +0.000 A 
ATOM      4  C   UNL     1      44.715   2.648   9.468  0.00  0.00    +0.000 A 
ATOM      5  C   UNL     1      44.700   4.017   9.205  0.00  0.00    +0.000 A 
ATOM      6  N   UNL     1      43.888   4.897   9.878  0.00  0.00    +0.000 N 
ATOM      7  N   UNL     1      45.485   4.550   8.249  0.00  0.00    +0.000 NA
ATOM      8  C   UNL     1      46.301   3.714   7.551  0.00  0.00    +0.000 A 
ATOM      9  H   UNL     1      44.055   5.870   9.640  0.00  0.00    +0.000 HD
BRANCH   2  11
ATOM     10  N   UNL     1      48.377   2.175   6.390  0.00  0.00    +0.000 N 
ATOM     11  C   UNL     1      47.313   1.531   6.959  0.00  0.00    +0.000 C 
ATOM     12  O   UNL     1      47.160   0.324   6.826  0.00  0.00    +0.000 OA
ATOM     13  H   UNL     1      49.051   1.595   5.905  0.00  0.00    +0.000 HD
ATOM     14  H   UNL     1      48.661   3.109   6.647  0.00  0.00    +0.000 HD
ENDBRANCH   2  11
ENDBRANCH   1   6
BRANCH   1  15
ATOM     15  C   UNL     1      43.217   5.484  12.182  0.00  0.00    +0.000 C 
BRANCH  15  16
ATOM     16  C   UNL     1      44.655   5.541  12.636  0.00  0.00    +0.000 A 
ATOM     17  C   UNL     1      45.202   4.519  13.399  0.00  0.00    +0.000 A 
ATOM     18  N   UNL     1      46.495   4.479  13.781  0.00  0.00    +0.000 NA
ATOM     19  C   UNL     1      47.279   5.512  13.388  0.00  0.00    +0.000 A 
ATOM     20  C   UNL     1      46.858   6.606  12.627  0.00  0.00    +0.000 A 
ATOM     21  C   UNL     1      45.505   6.589  12.251  0.00  0.00    +0.000 A 
BRANCH  20  22
ATOM     22  C   UNL     1      47.777   7.706  12.251  0.00  0.00    +0.000 A 
ATOM     23  C   UNL     1      47.343   9.047  12.229  0.00  0.00    +0.000 A 
ATOM     24  C   UNL     1      48.203  10.093  11.879  0.00  0.00    +0.000 A 
ATOM     25  C   UNL     1      49.521   9.822  11.528  0.00  0.00    +0.000 A 
ATOM     26  C   UNL     1      49.971   8.507  11.535  0.00  0.00    +0.000 A 
ATOM     27 CL   UNL     1      51.599   8.162  11.090  0.00  0.00    +0.000 Cl
ATOM     28  C   UNL     1      49.116   7.461  11.896  0.00  0.00    +0.000 A 
ENDBRANCH  20  22
ENDBRANCH  15  16
ENDBRANCH   1  15
TORSDOF 5
ENDMDL
MODEL 2
REMARK VINA RESULT:    -8.804      2.230      2.672
REMARK INTER + INTRA:         -12.176
REMARK INTER:                 -11.235
REMARK INTRA:                  -0.941
REMARK UNBOUND:                -0.798
REMARK  Name = 
REMARK  5 active torsions:
REMARK  status: ('A' for Active; 'I' for Inactive)
REMARK    1  A    between atoms: C_2  and  C_4
REMARK    2  A    between atoms: N_8  and  C_9
REMARK    3  A    between atoms: C_9  and  C_10
REMARK    4  A    between atoms: C_10  and  C_11
REMARK    5  A    between atoms: C_15  and  C_16
REMARK                            x       y       z     vdW  Elec       q    Type
REMARK                         _______ _______ _______ _____ _____    ______ ____
ROOT
ATOM      1  C   UNL     1      43.350   3.790  11.378  0.00  0.00    +0.000 C 
ENDROOT
BRANCH   1   6
ATOM      2  C   UNL     1      46.451   2.833   7.423  0.00  0.00    +0.000 A 
ATOM      3  C   UNL     1      45.940   4.021   7.929  0.00  0.00    +0.000 A 
ATOM      4  C   UNL     1      45.130   3.983   9.064  0.00  0.00    +0.000 A 
ATOM      5  C   UNL     1      44.832   2.765   9.672  0.00  0.00    +0.000 A 
ATOM      6  N   UNL     1      44.047   2.664  10.796  0.00  0.00    +0.000 N 
ATOM      7  N   UNL     1      45.321   1.608   9.188  0.00  0.00    +0.000 NA
ATOM      8  C   UNL     1      46.111   1.660   8.080  0.00  0.00    +0.000 A 
ATOM      9  H   UNL     1      43.844   1.707  11.068  0.00  0.00    +0.000 HD
BRANCH   2  11
ATOM     10  N   UNL     1      48.638   2.587   6.382  0.00  0.00    +0.000 N 
ATOM     11  C   UNL     1      47.293   2.774   6.210  0.00  0.00    +0.000 C 
ATOM     12  O   UNL     1      46.808   2.872   5.091  0.00  0.00    +0.000 OA
ATOM     13  H   UNL     1      49.192   2.481   5.541  0.00  0.00    +0.000 HD
ATOM     14  H   UNL     1      49.048   2.288   7.254  0.00  0.00    +0.000 HD
ENDBRANCH   2  11
ENDBRANCH   1   6
BRANCH   1  15
ATOM     15  C   UNL     1      43.705   3.990  12.853  0.00  0.00    +0.000 C 
BRANCH  15  16
ATOM     16  C   UNL     1      44.976   4.794  12.980  0.00  0.00    +0.000 A 
ATOM     17  C   UNL     1      46.157   4.199  13.402  0.00  0.00    +0.000 A 
ATOM     18  N   UNL     1      47.337   4.846  13.474  0.00  0.00    +0.000 NA
ATOM     19  C   UNL     1      47.340   6.152  13.114  0.00  0.00    +0.000 A 
ATOM     20  C   UNL     1      46.225   6.876  12.680  0.00  0.00    +0.000 A 
ATOM     21  C   UNL     1      45.026   6.148  12.615  0.00  0.00    +0.000 A 
BRANCH  20  22
ATOM     22  C   UNL     1      46.309   8.310  12.319  0.00  0.00    +0.000 A 
ATOM     23  C   UNL     1      47.550   8.975  12.243  0.00  0.00    +0.000 A 
ATOM     24  C   UNL     1      47.641  10.328  11.899  0.00  0.00    +0.000 A 
ATOM     25  C   UNL     1      46.487  11.057  11.635  0.00  0.00    +0.000 A 
ATOM     26  C   UNL     1      45.249  10.427  11.710  0.00  0.00    +0.000 A 
ATOM     27 CL   UNL     1      43.815  11.326  11.394  0.00  0.00    +0.000 Cl
ATOM     28  C   UNL     1      45.158   9.072  12.041  0.00  0.00    +0.000 A 
ENDBRANCH  20  22
ENDBRANCH  15  16
ENDBRANCH   1  15
TORSDOF 5
ENDMDL
MODEL 3
REMARK VINA RESULT:    -8.526      2.584      3.954
REMARK INTER + INTRA:         -11.816
REMARK INTER:                 -10.979
REMARK INTRA:                  -0.837
REMARK UNBOUND:                -0.798
REMARK  Name = 
REMARK  5 active torsions:
REMARK  status: ('A' for Active; 'I' for Inactive)
REMARK    1  A    between atoms: C_2  and  C_4
REMARK    2  A    between atoms: N_8  and  C_9
REMARK    3  A    between atoms: C_9  and  C_10
REMARK    4  A    between atoms: C_10  and  C_11
REMARK    5  A    between atoms: C_15  and  C_16
REMARK                            x       y       z     vdW  Elec       q    Type
REMARK                         _______ _______ _______ _____ _____    ______ ____
ROOT
ATOM      1  C   UNL     1      43.405   5.106  10.695  0.00  0.00    +0.000 C 
ENDROOT
BRANCH   1   6
ATOM      2  C   UNL     1      46.594   2.662   7.528  0.00  0.00    +0.000 A 
ATOM      3  C   UNL     1      46.330   4.014   7.710  0.00  0.00    +0.000 A 
ATOM      4  C   UNL     1      45.418   4.400   8.692  0.00  0.00    +0.000 A 
ATOM      5  C   UNL     1      44.774   3.439   9.469  0.00  0.00    +0.000 A 
ATOM      6  N   UNL     1      43.873   3.758  10.456  0.00  0.00    +0.000 N 
ATOM      7  N   UNL     1      45.022   2.126   9.299  0.00  0.00    +0.000 NA
ATOM      8  C   UNL     1      45.916   1.763   8.337  0.00  0.00    +0.000 A 
ATOM      9  H   UNL     1      43.419   2.950  10.872  0.00  0.00    +0.000 HD
BRANCH   2  11
ATOM     10  N   UNL     1      47.812   2.990   5.446  0.00  0.00    +0.000 N 
ATOM     11  C   UNL     1      47.523   2.159   6.494  0.00  0.00    +0.000 C 
ATOM     12  O   UNL     1      48.030   1.049   6.578  0.00  0.00    +0.000 OA
ATOM     13  H   UNL     1      48.501   2.659   4.783  0.00  0.00    +0.000 HD
ATOM     14  H   UNL     1      47.597   3.976   5.446  0.00  0.00    +0.000 HD
ENDBRANCH   2  11
ENDBRANCH   1   6
BRANCH   1  15
ATOM     15  C   UNL     1      43.583   5.528  12.155  0.00  0.00    +0.000 C 
BRANCH  15  16
ATOM     16  C   UNL     1      45.048   5.696  12.476  0.00  0.00    +0.000 A 
ATOM     17  C   UNL     1      45.874   6.455  11.658  0.00  0.00    +0.000 A 
ATOM     18  N   UNL     1      47.174   6.696  11.923  0.00  0.00    +0.000 NA
ATOM     19  C   UNL     1      47.677   6.148  13.056  0.00  0.00    +0.000 A 
ATOM     20  C   UNL     1      46.962   5.358  13.962  0.00  0.00    +0.000 A 
ATOM     21  C   UNL     1      45.611   5.149  13.639  0.00  0.00    +0.000 A 
BRANCH  20  22
ATOM     22  C   UNL     1      47.592   4.781  15.172  0.00  0.00    +0.000 A 
ATOM     23  C   UNL     1      47.525   3.399  15.444  0.00  0.00    +0.000 A 
ATOM     24  C   UNL     1      48.118   2.844  16.583  0.00  0.00    +0.000 A 
ATOM     25  C   UNL     1      48.785   3.661  17.489  0.00  0.00    +0.000 A 
ATOM     26  C   UNL     1      48.859   5.028  17.247  0.00  0.00    +0.000 A 
ATOM     27 CL   UNL     1      49.674   6.048  18.370  0.00  0.00    +0.000 Cl
ATOM     28  C   UNL     1      48.277   5.584  16.104  0.00  0.00    +0.000 A 
ENDBRANCH  20  22
ENDBRANCH  15  16
ENDBRANCH   1  15
TORSDOF 5
ENDMDL
MODEL 4
REMARK VINA RESULT:    -8.449      1.323      1.370
REMARK INTER + INTRA:         -11.717
REMARK INTER:                 -10.909
REMARK INTRA:                  -0.808
REMARK UNBOUND:                -0.798
REMARK  Name = 
REMARK  5 active torsions:
REMARK  status: ('A' for Active; 'I' for Inactive)
REMARK    1  A    between atoms: C_2  and  C_4
REMARK    2  A    between atoms: N_8  and  C_9
REMARK    3  A    between atoms: C_9  and  C_10
REMARK    4  A    between atoms: C_10  and  C_11
REMARK    5  A    between atoms: C_15  and  C_16
REMARK                            x       y       z     vdW  Elec       q    Type
REMARK                         _______ _______ _______ _____ _____    ______ ____
ROOT
ATOM      1  C   UNL     1      43.143   4.544  10.884  0.00  0.00    +0.000 C 
ENDROOT
BRANCH   1   6
ATOM      2  C   UNL     1      46.587   2.755   7.551  0.00  0.00    +0.000 A 
ATOM      3  C   UNL     1      45.731   2.106   8.431  0.00  0.00    +0.000 A 
ATOM      4  C   UNL     1      44.856   2.864   9.210  0.00  0.00    +0.000 A 
ATOM      5  C   UNL     1      44.854   4.254   9.112  0.00  0.00    +0.000 A 
ATOM      6  N   UNL     1      44.012   5.053   9.846  0.00  0.00    +0.000 N 
ATOM      7  N   UNL     1      45.683   4.893   8.263  0.00  0.00    +0.000 NA
ATOM      8  C   UNL     1      46.530   4.140   7.508  0.00  0.00    +0.000 A 
ATOM      9  H   UNL     1      44.190   6.046   9.735  0.00  0.00    +0.000 HD
BRANCH   2  11
ATOM     10  N   UNL     1      47.998   2.661   5.569  0.00  0.00    +0.000 N 
ATOM     11  C   UNL     1      47.566   2.037   6.708  0.00  0.00    +0.000 C 
ATOM     12  O   UNL     1      47.988   0.933   7.021  0.00  0.00    +0.000 OA
ATOM     13  H   UNL     1      48.718   2.187   5.039  0.00  0.00    +0.000 HD
ATOM     14  H   UNL     1      47.850   3.643   5.386  0.00  0.00    +0.000 HD
ENDBRANCH   2  11
ENDBRANCH   1   6
BRANCH   1  15
ATOM     15  C   UNL     1      43.224   5.376  12.166  0.00  0.00    +0.000 C 
BRANCH  15  16
ATOM     16  C   UNL     1      44.625   5.339  12.724  0.00  0.00    +0.000 A 
ATOM     17  C   UNL     1      45.137   4.179  13.289  0.00  0.00    +0.000 A 
ATOM     18  N   UNL     1      46.400   4.063  13.747  0.00  0.00    +0.000 NA
ATOM     19  C   UNL     1      47.190   5.160  13.641  0.00  0.00    +0.000 A 
ATOM     20  C   UNL     1      46.802   6.391  13.103  0.00  0.00    +0.000 A 
ATOM     21  C   UNL     1      45.479   6.449  12.634  0.00  0.00    +0.000 A 
BRANCH  20  22
ATOM     22  C   UNL     1      47.723   7.548  13.039  0.00  0.00    +0.000 A 
ATOM     23  C   UNL     1      47.963   8.226  11.826  0.00  0.00    +0.000 A 
ATOM     24  C   UNL     1      48.828   9.323  11.753  0.00  0.00    +0.000 A 
ATOM     25  C   UNL     1      49.489   9.763  12.895  0.00  0.00    +0.000 A 
ATOM     26  C   UNL     1      49.276   9.107  14.102  0.00  0.00    +0.000 A 
ATOM     27 CL   UNL     1      50.099   9.640  15.517  0.00  0.00    +0.000 Cl
ATOM     28  C   UNL     1      48.402   8.019  14.178  0.00  0.00    +0.000 A 
ENDBRANCH  20  22
ENDBRANCH  15  16
ENDBRANCH   1  15
TORSDOF 5
ENDMDL
MODEL 5
REMARK VINA RESULT:    -8.432      3.792      7.293
REMARK INTER + INTRA:         -11.695
REMARK INTER:                 -11.077
REMARK INTRA:                  -0.618
REMARK UNBOUND:                -0.798
REMARK  Name = 
REMARK  5 active torsions:
REMARK  status: ('A' for Active; 'I' for Inactive)
REMARK    1  A    between atoms: C_2  and  C_4
REMARK    2  A    between atoms: N_8  and  C_9
REMARK    3  A    between atoms: C_9  and  C_10
REMARK    4  A    between atoms: C_10  and  C_11
REMARK    5  A    between atoms: C_15  and  C_16
REMARK                            x       y       z     vdW  Elec       q    Type
REMARK                         _______ _______ _______ _____ _____    ______ ____
ROOT
ATOM      1  C   UNL     1      47.430   7.147  11.686  0.00  0.00    +0.000 C 
ENDROOT
BRANCH   1   6
ATOM      2  C   UNL     1      47.652   4.349  15.963  0.00  0.00    +0.000 A 
ATOM      3  C   UNL     1      47.061   4.105  14.731  0.00  0.00    +0.000 A 
ATOM      4  C   UNL     1      47.194   5.052  13.715  0.00  0.00    +0.000 A 
ATOM      5  C   UNL     1      47.901   6.231  13.943  0.00  0.00    +0.000 A 
ATOM      6  N   UNL     1      48.073   7.196  12.980  0.00  0.00    +0.000 N 
ATOM      7  N   UNL     1      48.476   6.478  15.135  0.00  0.00    +0.000 NA
ATOM      8  C   UNL     1      48.339   5.544  16.117  0.00  0.00    +0.000 A 
ATOM      9  H   UNL     1      48.530   8.036  13.321  0.00  0.00    +0.000 HD
BRANCH   2  11
ATOM     10  N   UNL     1      48.695   3.066  17.751  0.00  0.00    +0.000 N 
ATOM     11  C   UNL     1      47.540   3.418  17.106  0.00  0.00    +0.000 C 
ATOM     12  O   UNL     1      46.456   2.988  17.473  0.00  0.00    +0.000 OA
ATOM     13  H   UNL     1      48.595   2.483  18.571  0.00  0.00    +0.000 HD
ATOM     14  H   UNL     1      49.569   3.555  17.627  0.00  0.00    +0.000 HD
ENDBRANCH   2  11
ENDBRANCH   1   6
BRANCH   1  15
ATOM     15  C   UNL     1      45.915   7.344  11.786  0.00  0.00    +0.000 C 
BRANCH  15  16
ATOM     16  C   UNL     1      45.195   6.232  11.062  0.00  0.00    +0.000 A 
ATOM     17  C   UNL     1      43.849   5.984  11.295  0.00  0.00    +0.000 A 
ATOM     18  N   UNL     1      43.135   5.051  10.636  0.00  0.00    +0.000 NA
ATOM     19  C   UNL     1      43.795   4.323   9.703  0.00  0.00    +0.000 A 
ATOM     20  C   UNL     1      45.147   4.462   9.374  0.00  0.00    +0.000 A 
ATOM     21  C   UNL     1      45.838   5.456  10.086  0.00  0.00    +0.000 A 
BRANCH  20  22
ATOM     22  C   UNL     1      45.800   3.615   8.349  0.00  0.00    +0.000 A 
ATOM     23  C   UNL     1      46.329   4.172   7.167  0.00  0.00    +0.000 A 
ATOM     24  C   UNL     1      46.951   3.383   6.194  0.00  0.00    +0.000 A 
ATOM     25  C   UNL     1      47.049   2.007   6.373  0.00  0.00    +0.000 A 
ATOM     26  C   UNL     1      46.529   1.432   7.528  0.00  0.00    +0.000 A 
ATOM     27 CL   UNL     1      46.636  -0.273   7.752  0.00  0.00    +0.000 Cl
ATOM     28  C   UNL     1      45.918   2.221   8.506  0.00  0.00    +0.000 A 
ENDBRANCH  20  22
ENDBRANCH  15  16
ENDBRANCH   1  15
TORSDOF 5
ENDMDL
MODEL 6
REMARK VINA RESULT:    -8.176      4.202      7.810
REMARK INTER + INTRA:         -11.363
REMARK INTER:                 -10.812
REMARK INTRA:                  -0.551
REMARK UNBOUND:                -0.798
REMARK  Name = 
REMARK  5 active torsions:
REMARK  status: ('A' for Active; 'I' for Inactive)
REMARK    1  A    between atoms: C_2  and  C_4
REMARK    2  A    between atoms: N_8  and  C_9
REMARK    3  A    between atoms: C_9  and  C_10
REMARK    4  A    between atoms: C_10  and  C_11
REMARK    5  A    between atoms: C_15  and  C_16
REMARK                            x       y       z     vdW  Elec       q    Type
REMARK                         _______ _______ _______ _____ _____    ______ ____
ROOT
ATOM      1  C   UNL     1      46.637   6.569  13.128  0.00  0.00    +0.000 C 
ENDROOT
BRANCH   1   6
ATOM      2  C   UNL     1      48.521   4.360  17.340  0.00  0.00    +0.000 A 
ATOM      3  C   UNL     1      48.810   5.571  16.725  0.00  0.00    +0.000 A 
ATOM      4  C   UNL     1      48.099   5.939  15.582  0.00  0.00    +0.000 A 
ATOM      5  C   UNL     1      47.121   5.093  15.062  0.00  0.00    +0.000 A 
ATOM      6  N   UNL     1      46.384   5.403  13.945  0.00  0.00    +0.000 N 
ATOM      7  N   UNL     1      46.836   3.915  15.649  0.00  0.00    +0.000 NA
ATOM      8  C   UNL     1      47.537   3.570  16.765  0.00  0.00    +0.000 A 
ATOM      9  H   UNL     1      45.777   4.650  13.634  0.00  0.00    +0.000 HD
BRANCH   2  11
ATOM     10  N   UNL     1      48.539   3.119  19.435  0.00  0.00    +0.000 N 
ATOM     11  C   UNL     1      49.242   3.876  18.536  0.00  0.00    +0.000 C 
ATOM     12  O   UNL     1      50.426   4.125  18.712  0.00  0.00    +0.000 OA
ATOM     13  H   UNL     1      49.062   2.739  20.213  0.00  0.00    +0.000 HD
ATOM     14  H   UNL     1      47.639   2.711  19.230  0.00  0.00    +0.000 HD
ENDBRANCH   2  11
ENDBRANCH   1   6
BRANCH   1  15
ATOM     15  C   UNL     1      45.410   6.978  12.309  0.00  0.00    +0.000 C 
BRANCH  15  16
ATOM     16  C   UNL     1      44.833   5.780  11.597  0.00  0.00    +0.000 A 
ATOM     17  C   UNL     1      43.578   5.289  11.930  0.00  0.00    +0.000 A 
ATOM     18  N   UNL     1      42.980   4.264  11.290  0.00  0.00    +0.000 NA
ATOM     19  C   UNL     1      43.671   3.696  10.272  0.00  0.00    +0.000 A 
ATOM     20  C   UNL     1      44.943   4.082   9.839  0.00  0.00    +0.000 A 
ATOM     21  C   UNL     1      45.511   5.161  10.536  0.00  0.00    +0.000 A 
BRANCH  20  22
ATOM     22  C   UNL     1      45.639   3.397   8.725  0.00  0.00    +0.000 A 
ATOM     23  C   UNL     1      46.157   4.119   7.631  0.00  0.00    +0.000 A 
ATOM     24  C   UNL     1      46.819   3.483   6.575  0.00  0.00    +0.000 A 
ATOM     25  C   UNL     1      46.968   2.100   6.581  0.00  0.00    +0.000 A 
ATOM     26  C   UNL     1      46.460   1.364   7.646  0.00  0.00    +0.000 A 
ATOM     27 CL   UNL     1      46.632  -0.350   7.654  0.00  0.00    +0.000 Cl
ATOM     28  C   UNL     1      45.809   2.000   8.707  0.00  0.00    +0.000 A 
ENDBRANCH  20  22
ENDBRANCH  15  16
ENDBRANCH   1  15
TORSDOF 5
ENDMDL
MODEL 7
REMARK VINA RESULT:    -7.975      1.936      2.392
REMARK INTER + INTRA:         -11.104
REMARK INTER:                 -10.236
REMARK INTRA:                  -0.869
REMARK UNBOUND:                -0.798
REMARK  Name = 
REMARK  5 active torsions:
REMARK  status: ('A' for Active; 'I' for Inactive)
REMARK    1  A    between atoms: C_2  and  C_4
REMARK    2  A    between atoms: N_8  and  C_9
REMARK    3  A    between atoms: C_9  and  C_10
REMARK    4  A    between atoms: C_10  and  C_11
REMARK    5  A    between atoms: C_15  and  C_16
REMARK                            x       y       z     vdW  Elec       q    Type
REMARK                         _______ _______ _______ _____ _____    ______ ____
ROOT
ATOM      1  C   UNL     1      43.440   3.692  11.183  0.00  0.00    +0.000 C 
ENDROOT
BRANCH   1   6
ATOM      2  C   UNL     1      46.600   2.561   7.322  0.00  0.00    +0.000 A 
ATOM      3  C   UNL     1      46.149   3.777   7.820  0.00  0.00    +0.000 A 
ATOM      4  C   UNL     1      45.303   3.784   8.929  0.00  0.00    +0.000 A 
ATOM      5  C   UNL     1      44.907   2.584   9.518  0.00  0.00    +0.000 A 
ATOM      6  N   UNL     1      44.083   2.528  10.615  0.00  0.00    +0.000 N 
ATOM      7  N   UNL     1      45.337   1.401   9.040  0.00  0.00    +0.000 NA
ATOM      8  C   UNL     1      46.164   1.409   7.958  0.00  0.00    +0.000 A 
ATOM      9  H   UNL     1      43.810   1.584  10.873  0.00  0.00    +0.000 HD
BRANCH   2  11
ATOM     10  N   UNL     1      47.288   3.365   5.130  0.00  0.00    +0.000 N 
ATOM     11  C   UNL     1      47.475   2.456   6.135  0.00  0.00    +0.000 C 
ATOM     12  O   UNL     1      48.345   1.600   6.058  0.00  0.00    +0.000 OA
ATOM     13  H   UNL     1      47.939   3.323   4.355  0.00  0.00    +0.000 HD
ATOM     14  H   UNL     1      46.744   4.208   5.239  0.00  0.00    +0.000 HD
ENDBRANCH   2  11
ENDBRANCH   1   6
BRANCH   1  15
ATOM     15  C   UNL     1      44.196   4.234  12.399  0.00  0.00    +0.000 C 
BRANCH  15  16
ATOM     16  C   UNL     1      44.744   5.608  12.103  0.00  0.00    +0.000 A 
ATOM     17  C   UNL     1      43.927   6.606  11.590  0.00  0.00    +0.000 A 
ATOM     18  N   UNL     1      44.339   7.870  11.365  0.00  0.00    +0.000 NA
ATOM     19  C   UNL     1      45.631   8.152  11.660  0.00  0.00    +0.000 A 
ATOM     20  C   UNL     1      46.563   7.243  12.171  0.00  0.00    +0.000 A 
ATOM     21  C   UNL     1      46.075   5.945  12.394  0.00  0.00    +0.000 A 
BRANCH  20  22
ATOM     22  C   UNL     1      47.966   7.627  12.452  0.00  0.00    +0.000 A 
ATOM     23  C   UNL     1      48.951   7.589  11.444  0.00  0.00    +0.000 A 
ATOM     24  C   UNL     1      50.278   7.953  11.697  0.00  0.00    +0.000 A 
ATOM     25  C   UNL     1      50.658   8.353  12.974  0.00  0.00    +0.000 A 
ATOM     26  C   UNL     1      49.706   8.393  13.987  0.00  0.00    +0.000 A 
ATOM     27 CL   UNL     1      50.172   8.877  15.573  0.00  0.00    +0.000 Cl
ATOM     28  C   UNL     1      48.378   8.041  13.733  0.00  0.00    +0.000 A 
ENDBRANCH  20  22
ENDBRANCH  15  16
ENDBRANCH   1  15
TORSDOF 5
ENDMDL
MODEL 8
REMARK VINA RESULT:    -7.595      3.779      7.045
REMARK INTER + INTRA:         -10.613
REMARK INTER:                  -9.862
REMARK INTRA:                  -0.751
REMARK UNBOUND:                -0.798
REMARK  Name = 
REMARK  5 active torsions:
REMARK  status: ('A' for Active; 'I' for Inactive)
REMARK    1  A    between atoms: C_2  and  C_4
REMARK    2  A    between atoms: N_8  and  C_9
REMARK    3  A    between atoms: C_9  and  C_10
REMARK    4  A    between atoms: C_10  and  C_11
REMARK    5  A    between atoms: C_15  and  C_16
REMARK                            x       y       z     vdW  Elec       q    Type
REMARK                         _______ _______ _______ _____ _____    ______ ____
ROOT
ATOM      1  C   UNL     1      45.511   7.189  12.943  0.00  0.00    +0.000 C 
ENDROOT
BRANCH   1   6
ATOM      2  C   UNL     1      50.261   8.584  11.656  0.00  0.00    +0.000 A 
ATOM      3  C   UNL     1      49.559   7.404  11.451  0.00  0.00    +0.000 A 
ATOM      4  C   UNL     1      48.237   7.316  11.889  0.00  0.00    +0.000 A 
ATOM      5  C   UNL     1      47.638   8.398  12.533  0.00  0.00    +0.000 A 
ATOM      6  N   UNL     1      46.339   8.374  12.979  0.00  0.00    +0.000 N 
ATOM      7  N   UNL     1      48.312   9.545  12.738  0.00  0.00    +0.000 NA
ATOM      8  C   UNL     1      49.601   9.617  12.305  0.00  0.00    +0.000 A 
ATOM      9  H   UNL     1      46.074   9.199  13.508  0.00  0.00    +0.000 HD
BRANCH   2  11
ATOM     10  N   UNL     1      52.588   7.875  11.759  0.00  0.00    +0.000 N 
ATOM     11  C   UNL     1      51.673   8.758  11.253  0.00  0.00    +0.000 C 
ATOM     12  O   UNL     1      52.012   9.645  10.482  0.00  0.00    +0.000 OA
ATOM     13  H   UNL     1      53.538   7.964  11.421  0.00  0.00    +0.000 HD
ATOM     14  H   UNL     1      52.331   7.011  12.214  0.00  0.00    +0.000 HD
ENDBRANCH   2  11
ENDBRANCH   1   6
BRANCH   1  15
ATOM     15  C   UNL     1      44.590   7.164  11.721  0.00  0.00    +0.000 C 
BRANCH  15  16
ATOM     16  C   UNL     1      44.352   5.742  11.276  0.00  0.00    +0.000 A 
ATOM     17  C   UNL     1      43.356   4.970  11.860  0.00  0.00    +0.000 A 
ATOM     18  N   UNL     1      43.051   3.717  11.464  0.00  0.00    +0.000 NA
ATOM     19  C   UNL     1      43.779   3.207  10.441  0.00  0.00    +0.000 A 
ATOM     20  C   UNL     1      44.812   3.869   9.771  0.00  0.00    +0.000 A 
ATOM     21  C   UNL     1      45.078   5.173  10.219  0.00  0.00    +0.000 A 
BRANCH  20  22
ATOM     22  C   UNL     1      45.571   3.233   8.669  0.00  0.00    +0.000 A 
ATOM     23  C   UNL     1      46.098   3.997   7.607  0.00  0.00    +0.000 A 
ATOM     24  C   UNL     1      46.819   3.408   6.564  0.00  0.00    +0.000 A 
ATOM     25  C   UNL     1      47.022   2.032   6.548  0.00  0.00    +0.000 A 
ATOM     26  C   UNL     1      46.507   1.255   7.580  0.00  0.00    +0.000 A 
ATOM     27 CL   UNL     1      46.744  -0.450   7.562  0.00  0.00    +0.000 Cl
ATOM     28  C   UNL     1      45.796   1.844   8.630  0.00  0.00    +0.000 A 
ENDBRANCH  20  22
ENDBRANCH  15  16
ENDBRANCH   1  15
TORSDOF 5
ENDMDL
MODEL 9
REMARK VINA RESULT:    -7.022      4.000      7.442
REMARK INTER + INTRA:          -9.872
REMARK INTER:                  -8.910
REMARK INTRA:                  -0.962
REMARK UNBOUND:                -0.798
REMARK  Name = 
REMARK  5 active torsions:
REMARK  status: ('A' for Active; 'I' for Inactive)
REMARK    1  A    between atoms: C_2  and  C_4
REMARK    2  A    between atoms: N_8  and  C_9
REMARK    3  A    between atoms: C_9  and  C_10
REMARK    4  A    between atoms: C_10  and  C_11
REMARK    5  A    between atoms: C_15  and  C_16
REMARK                            x       y       z     vdW  Elec       q    Type
REMARK                         _______ _______ _______ _____ _____    ______ ____
ROOT
ATOM      1  C   UNL     1      49.115   7.655  12.742  0.00  0.00    +0.000 C 
ENDROOT
BRANCH   1   6
ATOM      2  C   UNL     1      47.905   4.551  16.624  0.00  0.00    +0.000 A 
ATOM      3  C   UNL     1      47.368   4.688  15.351  0.00  0.00    +0.000 A 
ATOM      4  C   UNL     1      47.934   5.612  14.472  0.00  0.00    +0.000 A 
ATOM      5  C   UNL     1      49.016   6.393  14.875  0.00  0.00    +0.000 A 
ATOM      6  N   UNL     1      49.621   7.313  14.053  0.00  0.00    +0.000 N 
ATOM      7  N   UNL     1      49.542   6.269  16.109  0.00  0.00    +0.000 NA
ATOM      8  C   UNL     1      48.980   5.362  16.956  0.00  0.00    +0.000 A 
ATOM      9  H   UNL     1      50.334   7.868  14.516  0.00  0.00    +0.000 HD
BRANCH   2  11
ATOM     10  N   UNL     1      47.968   3.573  18.853  0.00  0.00    +0.000 N 
ATOM     11  C   UNL     1      47.353   3.619  17.631  0.00  0.00    +0.000 C 
ATOM     12  O   UNL     1      46.374   2.927  17.390  0.00  0.00    +0.000 OA
ATOM     13  H   UNL     1      47.538   2.982  19.553  0.00  0.00    +0.000 HD
ATOM     14  H   UNL     1      48.627   4.269  19.168  0.00  0.00    +0.000 HD
ENDBRANCH   2  11
ENDBRANCH   1   6
BRANCH   1  15
ATOM     15  C   UNL     1      48.138   8.832  12.789  0.00  0.00    +0.000 C 
BRANCH  15  16
ATOM     16  C   UNL     1      46.790   8.414  12.254  0.00  0.00    +0.000 A 
ATOM     17  C   UNL     1      45.728   9.307  12.219  0.00  0.00    +0.000 A 
ATOM     18  N   UNL     1      44.521   9.015  11.695  0.00  0.00    +0.000 NA
ATOM     19  C   UNL     1      44.362   7.769  11.187  0.00  0.00    +0.000 A 
ATOM     20  C   UNL     1      45.341   6.771  11.165  0.00  0.00    +0.000 A 
ATOM     21  C   UNL     1      46.580   7.135  11.715  0.00  0.00    +0.000 A 
BRANCH  20  22
ATOM     22  C   UNL     1      45.082   5.425  10.603  0.00  0.00    +0.000 A 
ATOM     23  C   UNL     1      44.375   4.450  11.336  0.00  0.00    +0.000 A 
ATOM     24  C   UNL     1      44.121   3.177  10.815  0.00  0.00    +0.000 A 
ATOM     25  C   UNL     1      44.581   2.840   9.547  0.00  0.00    +0.000 A 
ATOM     26  C   UNL     1      45.287   3.782   8.806  0.00  0.00    +0.000 A 
ATOM     27 CL   UNL     1      45.870   3.369   7.239  0.00  0.00    +0.000 Cl
ATOM     28  C   UNL     1      45.531   5.059   9.321  0.00  0.00    +0.000 A 
ENDBRANCH  20  22
ENDBRANCH  15  16
ENDBRANCH   1  15
TORSDOF 5
ENDMDL
