MODEL 1
REMARK VINA RESULT:    -9.388      0.000      0.000
REMARK INTER + INTRA:         -13.301
REMARK INTER:                 -12.680
REMARK INTRA:                  -0.621
REMARK UNBOUND:                -0.621
REMARK  Name = 
REMARK  6 active torsions:
REMARK  status: ('A' for Active; 'I' for Inactive)
REMARK    1  A    between atoms: C_2  and  C_25
REMARK    2  A    between atoms: N_3  and  C_4
REMARK    3  A    between atoms: C_4  and  C_5
REMARK    4  A    between atoms: C_8  and  C_9
REMARK    5  A    between atoms: C_9  and  N_10
REMARK    6  A    between atoms: C_11  and  C_13
REMARK                            x       y       z     vdW  Elec       q    Type
REMARK                         _______ _______ _______ _____ _____    ______ ____
ROOT
ATOM      1  C   UNL     1      43.596   4.736  11.914  0.00  0.00    +0.000 C 
ATOM      2  C   UNL     1      44.330   3.420  12.232  0.00  0.00    +0.000 C 
ATOM      3  C   UNL     1      45.848   3.568  12.333  0.00  0.00    +0.000 C 
ATOM      4  C   UNL     1      46.297   4.699  13.277  0.00  0.00    +0.000 C 
ATOM      5  C   UNL     1      45.593   6.008  12.894  0.00  0.00    +0.000 C 
ATOM      6  C   UNL     1      44.069   5.873  12.835  0.00  0.00    +0.000 C 
ENDROOT
BRANCH   1   7
ATOM      7  C   UNL     1      43.735   5.150  10.441  0.00  0.00    +0.000 C 
BRANCH   7  10
ATOM      8  O   UNL     1      45.981   5.511   8.762  0.00  0.00    +0.000 OA
ATOM      9  C   UNL     1      45.466   4.403   8.856  0.00  0.00    +0.000 C 
ATOM     10  N   UNL     1      44.369   4.128   9.640  0.00  0.00    +0.000 N 
ATOM     11  H   UNL     1      43.963   3.201   9.547  0.00  0.00    +0.000 HD
BRANCH   9  12
ATOM     12  C   UNL     1      46.020   3.227   8.109  0.00  0.00    +0.000 A 
ATOM     13  C   UNL     1      46.748   3.453   6.946  0.00  0.00    +0.000 A 
ATOM     14  C   UNL     1      47.288   2.356   6.286  0.00  0.00    +0.000 A 
ATOM     15  C   UNL     1      47.084   1.084   6.807  0.00  0.00    +0.000 A 
ATOM     16  C   UNL     1      46.342   0.953   7.974  0.00  0.00    +0.000 A 
ATOM     17  N   UNL     1      45.798   1.993   8.643  0.00  0.00    +0.000 NA
ENDBRANCH   9  12
ENDBRANCH   7  10
ENDBRANCH   1   7
BRANCH   4  18
ATOM     18  C   UNL     1      46.066   4.384  14.763  0.00  0.00    +0.000 C 
BRANCH  18  19
ATOM     19  N   UNL     1      47.245   4.588  15.569  0.00  0.00    +0.000 N 
ATOM     20  C   UNL     1      47.450   4.024  16.800  0.00  0.00    +0.000 C 
ATOM     21  O   UNL     1      46.583   3.400  17.403  0.00  0.00    +0.000 OA
ATOM     22  H   UNL     1      48.029   5.019  15.093  0.00  0.00    +0.000 HD
BRANCH  20  23
ATOM     23  C   UNL     1      48.785   4.245  17.369  0.00  0.00    +0.000 A 
ATOM     24  C   UNL     1      49.077   5.417  18.055  0.00  0.00    +0.000 A 
ATOM     25  S   UNL     1      50.680   5.479  18.639  0.00  0.00    +0.000 S 
ATOM     26  C   UNL     1      51.022   3.921  18.043  0.00  0.00    +0.000 A 
ATOM     27  N   UNL     1      52.236   3.345  18.242  0.00  0.00    +0.000 NA
ATOM     28  C   UNL     1      52.336   2.139  17.781  0.00  0.00    +0.000 A 
ATOM     29  N   UNL     1      51.337   1.468  17.128  0.00  0.00    +0.000 N 
ATOM     30  C   UNL     1      50.129   2.043  16.827  0.00  0.00    +0.000 A 
ATOM     31  O   UNL     1      49.323   1.466  16.106  0.00  0.00    +0.000 OA
ATOM     32  C   UNL     1      49.939   3.376  17.375  0.00  0.00    +0.000 A 
ATOM     33  H   UNL     1      51.491   0.541  16.758  0.00  0.00    +0.000 HD
ENDBRANCH  20  23
ENDBRANCH  18  19
ENDBRANCH   4  18
TORSDOF 6
ENDMDL
MODEL 2
REMARK VINA RESULT:    -8.914      2.105      2.566
REMARK INTER + INTRA:         -12.662
REMARK INTER:                 -11.974
REMARK INTRA:                  -0.688
REMARK UNBOUND:                -0.621
REMARK  Name = 
REMARK  6 active torsions:
REMARK  status: ('A' for Active; 'I' for Inactive)
REMARK    1  A    between atoms: C_2  and  C_25
REMARK    2  A    between atoms: N_3  and  C_4
REMARK    3  A    between atoms: C_4  and  C_5
REMARK    4  A    between atoms: C_8  and  C_9
REMARK    5  A    between atoms: C_9  and  N_10
REMARK    6  A    between atoms: C_11  and  C_13
REMARK                            x       y       z     vdW  Elec       q    Type
REMARK                         _______ _______ _______ _____ _____    ______ ____
ROOT
ATOM      1  C   UNL     1      43.627   6.196  11.864  0.00  0.00    +0.000 C 
ATOM      2  C   UNL     1      44.193   5.588  13.160  0.00  0.00    +0.000 C 
ATOM      3  C   UNL     1      45.532   4.875  12.974  0.00  0.00    +0.000 C 
ATOM      4  C   UNL     1      46.590   5.726  12.248  0.00  0.00    +0.000 C 
ATOM      5  C   UNL     1      46.013   6.265  10.932  0.00  0.00    +0.000 C 
ATOM      6  C   UNL     1      44.693   7.019  11.123  0.00  0.00    +0.000 C 
ENDROOT
BRANCH   1   7
ATOM      7  C   UNL     1      43.024   5.137  10.927  0.00  0.00    +0.000 C 
BRANCH   7  10
ATOM      8  O   UNL     1      43.731   2.425  10.552  0.00  0.00    +0.000 OA
ATOM      9  C   UNL     1      44.259   3.290   9.864  0.00  0.00    +0.000 C 
ATOM     10  N   UNL     1      43.987   4.635   9.975  0.00  0.00    +0.000 N 
ATOM     11  H   UNL     1      44.571   5.264   9.431  0.00  0.00    +0.000 HD
BRANCH   9  12
ATOM     12  C   UNL     1      45.262   2.933   8.809  0.00  0.00    +0.000 A 
ATOM     13  C   UNL     1      45.744   3.935   7.974  0.00  0.00    +0.000 A 
ATOM     14  C   UNL     1      46.702   3.596   7.026  0.00  0.00    +0.000 A 
ATOM     15  C   UNL     1      47.141   2.279   6.948  0.00  0.00    +0.000 A 
ATOM     16  C   UNL     1      46.603   1.344   7.822  0.00  0.00    +0.000 A 
ATOM     17  N   UNL     1      45.668   1.633   8.754  0.00  0.00    +0.000 NA
ENDBRANCH   9  12
ENDBRANCH   7  10
ENDBRANCH   1   7
BRANCH   4  18
ATOM     18  C   UNL     1      47.139   6.880  13.102  0.00  0.00    +0.000 C 
BRANCH  18  19
ATOM     19  N   UNL     1      47.554   6.455  14.418  0.00  0.00    +0.000 N 
ATOM     20  C   UNL     1      48.818   6.614  14.920  0.00  0.00    +0.000 C 
ATOM     21  O   UNL     1      49.763   7.007  14.243  0.00  0.00    +0.000 OA
ATOM     22  H   UNL     1      46.804   6.206  15.051  0.00  0.00    +0.000 HD
BRANCH  20  23
ATOM     23  C   UNL     1      48.974   6.250  16.334  0.00  0.00    +0.000 A 
ATOM     24  C   UNL     1      49.489   7.161  17.246  0.00  0.00    +0.000 A 
ATOM     25  S   UNL     1      49.587   6.546  18.837  0.00  0.00    +0.000 S 
ATOM     26  C   UNL     1      48.897   5.061  18.369  0.00  0.00    +0.000 A 
ATOM     27  N   UNL     1      48.662   4.080  19.279  0.00  0.00    +0.000 NA
ATOM     28  C   UNL     1      48.084   3.028  18.792  0.00  0.00    +0.000 A 
ATOM     29  N   UNL     1      47.736   2.868  17.478  0.00  0.00    +0.000 N 
ATOM     30  C   UNL     1      48.034   3.794  16.511  0.00  0.00    +0.000 A 
ATOM     31  O   UNL     1      47.847   3.544  15.326  0.00  0.00    +0.000 OA
ATOM     32  C   UNL     1      48.628   5.023  17.012  0.00  0.00    +0.000 A 
ATOM     33  H   UNL     1      47.321   2.006  17.153  0.00  0.00    +0.000 HD
ENDBRANCH  20  23
ENDBRANCH  18  19
ENDBRANCH   4  18
TORSDOF 6
ENDMDL
MODEL 3
REMARK VINA RESULT:    -8.732      1.248      1.900
REMARK INTER + INTRA:         -12.416
REMARK INTER:                 -11.754
REMARK INTRA:                  -0.662
REMARK UNBOUND:                -0.621
REMARK  Name = 
REMARK  6 active torsions:
REMARK  status: ('A' for Active; 'I' for Inactive)
REMARK    1  A    between atoms: C_2  and  C_25
REMARK    2  A    between atoms: N_3  and  C_4
REMARK    3  A    between atoms: C_4  and  C_5
REMARK    4  A    between atoms: C_8  and  C_9
REMARK    5  A    between atoms: C_9  and  N_10
REMARK    6  A    between atoms: C_11  and  C_13
REMARK                            x       y       z     vdW  Elec       q    Type
REMARK                         _______ _______ _______ _____ _____    ______ ____
ROOT
ATOM      1  C   UNL     1      43.389   4.403  11.986  0.00  0.00    +0.000 C 
ATOM      2  C   UNL     1      44.293   3.187  12.261  0.00  0.00    +0.000 C 
ATOM      3  C   UNL     1      45.783   3.525  12.309  0.00  0.00    +0.000 C 
ATOM      4  C   UNL     1      46.122   4.697  13.248  0.00  0.00    +0.000 C 
ATOM      5  C   UNL     1      45.246   5.910  12.906  0.00  0.00    +0.000 C 
ATOM      6  C   UNL     1      43.750   5.584  12.902  0.00  0.00    +0.000 C 
ENDROOT
BRANCH   1   7
ATOM      7  C   UNL     1      43.419   4.841  10.513  0.00  0.00    +0.000 C 
BRANCH   7  10
ATOM      8  O   UNL     1      45.675   5.447   8.919  0.00  0.00    +0.000 OA
ATOM      9  C   UNL     1      45.236   4.302   8.940  0.00  0.00    +0.000 C 
ATOM     10  N   UNL     1      44.142   3.911   9.678  0.00  0.00    +0.000 N 
ATOM     11  H   UNL     1      43.805   2.964   9.524  0.00  0.00    +0.000 HD
BRANCH   9  12
ATOM     12  C   UNL     1      45.889   3.210   8.149  0.00  0.00    +0.000 A 
ATOM     13  C   UNL     1      46.583   3.544   6.990  0.00  0.00    +0.000 A 
ATOM     14  C   UNL     1      47.215   2.525   6.288  0.00  0.00    +0.000 A 
ATOM     15  C   UNL     1      47.134   1.222   6.763  0.00  0.00    +0.000 A 
ATOM     16  C   UNL     1      46.418   0.981   7.929  0.00  0.00    +0.000 A 
ATOM     17  N   UNL     1      45.786   1.943   8.638  0.00  0.00    +0.000 NA
ENDBRANCH   9  12
ENDBRANCH   7  10
ENDBRANCH   1   7
BRANCH   4  18
ATOM     18  C   UNL     1      45.989   4.346  14.738  0.00  0.00    +0.000 C 
BRANCH  18  19
ATOM     19  N   UNL     1      47.265   4.154  15.385  0.00  0.00    +0.000 N 
ATOM     20  C   UNL     1      47.441   3.483  16.566  0.00  0.00    +0.000 C 
ATOM     21  O   UNL     1      46.508   3.101  17.265  0.00  0.00    +0.000 OA
ATOM     22  H   UNL     1      48.076   4.368  14.819  0.00  0.00    +0.000 HD
BRANCH  20  23
ATOM     23  C   UNL     1      48.841   3.276  16.958  0.00  0.00    +0.000 A 
ATOM     24  C   UNL     1      49.431   2.025  16.839  0.00  0.00    +0.000 A 
ATOM     25  S   UNL     1      51.062   1.993  17.345  0.00  0.00    +0.000 S 
ATOM     26  C   UNL     1      51.050   3.661  17.689  0.00  0.00    +0.000 A 
ATOM     27  N   UNL     1      52.168   4.294  18.132  0.00  0.00    +0.000 NA
ATOM     28  C   UNL     1      52.027   5.570  18.300  0.00  0.00    +0.000 A 
ATOM     29  N   UNL     1      50.868   6.262  18.079  0.00  0.00    +0.000 N 
ATOM     30  C   UNL     1      49.693   5.651  17.718  0.00  0.00    +0.000 A 
ATOM     31  O   UNL     1      48.643   6.282  17.684  0.00  0.00    +0.000 OA
ATOM     32  C   UNL     1      49.808   4.226  17.455  0.00  0.00    +0.000 A 
ATOM     33  H   UNL     1      50.811   7.253  18.266  0.00  0.00    +0.000 HD
ENDBRANCH  20  23
ENDBRANCH  18  19
ENDBRANCH   4  18
TORSDOF 6
ENDMDL
MODEL 4
REMARK VINA RESULT:    -8.343      2.578      3.346
REMARK INTER + INTRA:         -11.890
REMARK INTER:                 -11.619
REMARK INTRA:                  -0.271
REMARK UNBOUND:                -0.621
REMARK  Name = 
REMARK  6 active torsions:
REMARK  status: ('A' for Active; 'I' for Inactive)
REMARK    1  A    between atoms: C_2  and  C_25
REMARK    2  A    between atoms: N_3  and  C_4
REMARK    3  A    between atoms: C_4  and  C_5
REMARK    4  A    between atoms: C_8  and  C_9
REMARK    5  A    between atoms: C_9  and  N_10
REMARK    6  A    between atoms: C_11  and  C_13
REMARK                            x       y       z     vdW  Elec       q    Type
REMARK                         _______ _______ _______ _____ _____    ______ ____
ROOT
ATOM      1  C   UNL     1      43.641   5.993  12.121  0.00  0.00    +0.000 C 
ATOM      2  C   UNL     1      44.268   5.146  13.244  0.00  0.00    +0.000 C 
ATOM      3  C   UNL     1      45.602   4.505  12.861  0.00  0.00    +0.000 C 
ATOM      4  C   UNL     1      46.621   5.500  12.276  0.00  0.00    +0.000 C 
ATOM      5  C   UNL     1      45.982   6.282  11.121  0.00  0.00    +0.000 C 
ATOM      6  C   UNL     1      44.668   6.963  11.515  0.00  0.00    +0.000 C 
ENDROOT
BRANCH   1   7
ATOM      7  C   UNL     1      43.003   5.134  11.019  0.00  0.00    +0.000 C 
BRANCH   7  10
ATOM      8  O   UNL     1      43.640   2.422  10.532  0.00  0.00    +0.000 OA
ATOM      9  C   UNL     1      44.213   3.303   9.900  0.00  0.00    +0.000 C 
ATOM     10  N   UNL     1      43.977   4.648  10.068  0.00  0.00    +0.000 N 
ATOM     11  H   UNL     1      44.594   5.284   9.571  0.00  0.00    +0.000 HD
BRANCH   9  12
ATOM     12  C   UNL     1      45.233   2.965   8.856  0.00  0.00    +0.000 A 
ATOM     13  C   UNL     1      45.717   3.980   8.037  0.00  0.00    +0.000 A 
ATOM     14  C   UNL     1      46.691   3.659   7.100  0.00  0.00    +0.000 A 
ATOM     15  C   UNL     1      47.144   2.348   7.015  0.00  0.00    +0.000 A 
ATOM     16  C   UNL     1      46.603   1.399   7.873  0.00  0.00    +0.000 A 
ATOM     17  N   UNL     1      45.652   1.670   8.794  0.00  0.00    +0.000 NA
ENDBRANCH   9  12
ENDBRANCH   7  10
ENDBRANCH   1   7
BRANCH   4  18
ATOM     18  C   UNL     1      47.202   6.467  13.319  0.00  0.00    +0.000 C 
BRANCH  18  19
ATOM     19  N   UNL     1      47.415   5.844  14.604  0.00  0.00    +0.000 N 
ATOM     20  C   UNL     1      48.521   6.043  15.387  0.00  0.00    +0.000 C 
ATOM     21  O   UNL     1      49.508   6.663  15.006  0.00  0.00    +0.000 OA
ATOM     22  H   UNL     1      46.604   5.394  15.009  0.00  0.00    +0.000 HD
BRANCH  20  23
ATOM     23  C   UNL     1      48.455   5.431  16.720  0.00  0.00    +0.000 A 
ATOM     24  C   UNL     1      48.539   4.053  16.870  0.00  0.00    +0.000 A 
ATOM     25  S   UNL     1      48.444   3.541  18.496  0.00  0.00    +0.000 S 
ATOM     26  C   UNL     1      48.340   5.145  19.058  0.00  0.00    +0.000 A 
ATOM     27  N   UNL     1      48.272   5.420  20.387  0.00  0.00    +0.000 NA
ATOM     28  C   UNL     1      48.252   6.684  20.670  0.00  0.00    +0.000 A 
ATOM     29  N   UNL     1      48.279   7.691  19.743  0.00  0.00    +0.000 N 
ATOM     30  C   UNL     1      48.257   7.459  18.391  0.00  0.00    +0.000 A 
ATOM     31  O   UNL     1      48.123   8.384  17.599  0.00  0.00    +0.000 OA
ATOM     32  C   UNL     1      48.342   6.056  18.016  0.00  0.00    +0.000 A 
ATOM     33  H   UNL     1      48.222   8.658  20.027  0.00  0.00    +0.000 HD
ENDBRANCH  20  23
ENDBRANCH  18  19
ENDBRANCH   4  18
TORSDOF 6
ENDMDL
MODEL 5
REMARK VINA RESULT:    -8.167      2.390      3.181
REMARK INTER + INTRA:         -11.653
REMARK INTER:                 -11.079
REMARK INTRA:                  -0.574
REMARK UNBOUND:                -0.621
REMARK  Name = 
REMARK  6 active torsions:
REMARK  status: ('A' for Active; 'I' for Inactive)
REMARK    1  A    between atoms: C_2  and  C_25
REMARK    2  A    between atoms: N_3  and  C_4
REMARK    3  A    between atoms: C_4  and  C_5
REMARK    4  A    between atoms: C_8  and  C_9
REMARK    5  A    between atoms: C_9  and  N_10
REMARK    6  A    between atoms: C_11  and  C_13
REMARK                            x       y       z     vdW  Elec       q    Type
REMARK                         _______ _______ _______ _____ _____    ______ ____
ROOT
ATOM      1  C   UNL     1      43.536   4.628  12.138  0.00  0.00    +0.000 C 
ATOM      2  C   UNL     1      44.220   3.274  12.407  0.00  0.00    +0.000 C 
ATOM      3  C   UNL     1      45.738   3.306  12.236  0.00  0.00    +0.000 C 
ATOM      4  C   UNL     1      46.425   4.442  13.015  0.00  0.00    +0.000 C 
ATOM      5  C   UNL     1      45.758   5.783  12.677  0.00  0.00    +0.000 C 
ATOM      6  C   UNL     1      44.242   5.767  12.891  0.00  0.00    +0.000 C 
ENDROOT
BRANCH   1   7
ATOM      7  C   UNL     1      43.441   4.956  10.640  0.00  0.00    +0.000 C 
BRANCH   7  10
ATOM      8  O   UNL     1      45.661   5.526   8.984  0.00  0.00    +0.000 OA
ATOM      9  C   UNL     1      45.234   4.379   9.051  0.00  0.00    +0.000 C 
ATOM     10  N   UNL     1      44.157   4.004   9.823  0.00  0.00    +0.000 N 
ATOM     11  H   UNL     1      43.826   3.050   9.708  0.00  0.00    +0.000 HD
BRANCH   9  12
ATOM     12  C   UNL     1      45.881   3.267   8.285  0.00  0.00    +0.000 A 
ATOM     13  C   UNL     1      46.681   3.582   7.191  0.00  0.00    +0.000 A 
ATOM     14  C   UNL     1      47.306   2.542   6.514  0.00  0.00    +0.000 A 
ATOM     15  C   UNL     1      47.113   1.236   6.949  0.00  0.00    +0.000 A 
ATOM     16  C   UNL     1      46.296   1.015   8.051  0.00  0.00    +0.000 A 
ATOM     17  N   UNL     1      45.667   1.998   8.733  0.00  0.00    +0.000 NA
ENDBRANCH   9  12
ENDBRANCH   7  10
ENDBRANCH   1   7
BRANCH   4  18
ATOM     18  C   UNL     1      46.439   4.221  14.536  0.00  0.00    +0.000 C 
BRANCH  18  19
ATOM     19  N   UNL     1      47.122   5.273  15.249  0.00  0.00    +0.000 N 
ATOM     20  C   UNL     1      48.160   5.072  16.119  0.00  0.00    +0.000 C 
ATOM     21  O   UNL     1      48.519   3.958  16.486  0.00  0.00    +0.000 OA
ATOM     22  H   UNL     1      46.931   6.214  14.925  0.00  0.00    +0.000 HD
BRANCH  20  23
ATOM     23  C   UNL     1      48.804   6.297  16.611  0.00  0.00    +0.000 A 
ATOM     24  C   UNL     1      49.772   6.940  15.851  0.00  0.00    +0.000 A 
ATOM     25  S   UNL     1      50.395   8.345  16.597  0.00  0.00    +0.000 S 
ATOM     26  C   UNL     1      49.355   8.170  17.934  0.00  0.00    +0.000 A 
ATOM     27  N   UNL     1      49.350   9.079  18.943  0.00  0.00    +0.000 NA
ATOM     28  C   UNL     1      48.471   8.848  19.866  0.00  0.00    +0.000 A 
ATOM     29  N   UNL     1      47.611   7.783  19.874  0.00  0.00    +0.000 N 
ATOM     30  C   UNL     1      47.642   6.794  18.923  0.00  0.00    +0.000 A 
ATOM     31  O   UNL     1      46.966   5.780  19.052  0.00  0.00    +0.000 OA
ATOM     32  C   UNL     1      48.569   7.035  17.829  0.00  0.00    +0.000 A 
ATOM     33  H   UNL     1      46.974   7.637  20.643  0.00  0.00    +0.000 HD
ENDBRANCH  20  23
ENDBRANCH  18  19
ENDBRANCH   4  18
TORSDOF 6
ENDMDL
MODEL 6
REMARK VINA RESULT:    -8.040      4.768      5.394
REMARK INTER + INTRA:         -11.480
REMARK INTER:                 -10.987
REMARK INTRA:                  -0.493
REMARK UNBOUND:                -0.621
REMARK  Name = 
REMARK  6 active torsions:
REMARK  status: ('A' for Active; 'I' for Inactive)
REMARK    1  A    between atoms: C_2  and  C_25
REMARK    2  A    between atoms: N_3  and  C_4
REMARK    3  A    between atoms: C_4  and  C_5
REMARK    4  A    between atoms: C_8  and  C_9
REMARK    5  A    between atoms: C_9  and  N_10
REMARK    6  A    between atoms: C_11  and  C_13
REMARK                            x       y       z     vdW  Elec       q    Type
REMARK                         _______ _______ _______ _____ _____    ______ ____
ROOT
ATOM      1  C   UNL     1      44.196   3.905  12.548  0.00  0.00    +0.000 C 
ATOM      2  C   UNL     1      45.524   4.527  12.077  0.00  0.00    +0.000 C 
ATOM      3  C   UNL     1      45.354   5.605  11.007  0.00  0.00    +0.000 C 
ATOM      4  C   UNL     1      44.330   6.692  11.379  0.00  0.00    +0.000 C 
ATOM      5  C   UNL     1      43.001   6.039  11.783  0.00  0.00    +0.000 C 
ATOM      6  C   UNL     1      43.162   4.991  12.888  0.00  0.00    +0.000 C 
ENDROOT
BRANCH   1   7
ATOM      7  C   UNL     1      43.613   2.914  11.528  0.00  0.00    +0.000 C 
BRANCH   7  10
ATOM      8  O   UNL     1      43.782   3.842   8.862  0.00  0.00    +0.000 OA
ATOM      9  C   UNL     1      44.591   3.016   9.269  0.00  0.00    +0.000 C 
ATOM     10  N   UNL     1      44.588   2.500  10.545  0.00  0.00    +0.000 N 
ATOM     11  H   UNL     1      45.235   1.738  10.730  0.00  0.00    +0.000 HD
BRANCH   9  12
ATOM     12  C   UNL     1      45.684   2.502   8.382  0.00  0.00    +0.000 A 
ATOM     13  C   UNL     1      46.402   3.408   7.608  0.00  0.00    +0.000 A 
ATOM     14  C   UNL     1      47.437   2.922   6.820  0.00  0.00    +0.000 A 
ATOM     15  C   UNL     1      47.717   1.560   6.833  0.00  0.00    +0.000 A 
ATOM     16  C   UNL     1      46.946   0.729   7.635  0.00  0.00    +0.000 A 
ATOM     17  N   UNL     1      45.929   1.162   8.413  0.00  0.00    +0.000 NA
ENDBRANCH   9  12
ENDBRANCH   7  10
ENDBRANCH   1   7
BRANCH   4  18
ATOM     18  C   UNL     1      44.817   7.640  12.486  0.00  0.00    +0.000 C 
BRANCH  18  19
ATOM     19  N   UNL     1      45.956   8.431  12.085  0.00  0.00    +0.000 N 
ATOM     20  C   UNL     1      47.002   8.755  12.907  0.00  0.00    +0.000 C 
ATOM     21  O   UNL     1      47.004   8.522  14.112  0.00  0.00    +0.000 OA
ATOM     22  H   UNL     1      46.054   8.578  11.088  0.00  0.00    +0.000 HD
BRANCH  20  23
ATOM     23  C   UNL     1      48.123   9.435  12.246  0.00  0.00    +0.000 A 
ATOM     24  C   UNL     1      48.027  10.774  11.891  0.00  0.00    +0.000 A 
ATOM     25  S   UNL     1      49.435  11.378  11.136  0.00  0.00    +0.000 S 
ATOM     26  C   UNL     1      50.238   9.886  11.306  0.00  0.00    +0.000 A 
ATOM     27  N   UNL     1      51.522   9.729  10.891  0.00  0.00    +0.000 NA
ATOM     28  C   UNL     1      52.022   8.559  11.132  0.00  0.00    +0.000 A 
ATOM     29  N   UNL     1      51.348   7.533  11.737  0.00  0.00    +0.000 N 
ATOM     30  C   UNL     1      50.025   7.618  12.090  0.00  0.00    +0.000 A 
ATOM     31  O   UNL     1      49.417   6.629  12.482  0.00  0.00    +0.000 OA
ATOM     32  C   UNL     1      49.430   8.931  11.898  0.00  0.00    +0.000 A 
ATOM     33  H   UNL     1      51.782   6.630  11.863  0.00  0.00    +0.000 HD
ENDBRANCH  20  23
ENDBRANCH  18  19
ENDBRANCH   4  18
TORSDOF 6
ENDMDL
MODEL 7
REMARK VINA RESULT:    -8.028      3.595      4.453
REMARK INTER + INTRA:         -11.465
REMARK INTER:                 -10.905
REMARK INTRA:                  -0.560
REMARK UNBOUND:                -0.621
REMARK  Name = 
REMARK  6 active torsions:
REMARK  status: ('A' for Active; 'I' for Inactive)
REMARK    1  A    between atoms: C_2  and  C_25
REMARK    2  A    between atoms: N_3  and  C_4
REMARK    3  A    between atoms: C_4  and  C_5
REMARK    4  A    between atoms: C_8  and  C_9
REMARK    5  A    between atoms: C_9  and  N_10
REMARK    6  A    between atoms: C_11  and  C_13
REMARK                            x       y       z     vdW  Elec       q    Type
REMARK                         _______ _______ _______ _____ _____    ______ ____
ROOT
ATOM      1  C   UNL     1      44.100   3.704  12.534  0.00  0.00    +0.000 C 
ATOM      2  C   UNL     1      45.566   4.078  12.250  0.00  0.00    +0.000 C 
ATOM      3  C   UNL     1      45.728   5.237  11.266  0.00  0.00    +0.000 C 
ATOM      4  C   UNL     1      44.896   6.479  11.631  0.00  0.00    +0.000 C 
ATOM      5  C   UNL     1      43.430   6.080  11.848  0.00  0.00    +0.000 C 
ATOM      6  C   UNL     1      43.262   4.950  12.867  0.00  0.00    +0.000 C 
ENDROOT
BRANCH   1   7
ATOM      7  C   UNL     1      43.454   2.921  11.381  0.00  0.00    +0.000 C 
BRANCH   7  10
ATOM      8  O   UNL     1      43.895   4.051   8.827  0.00  0.00    +0.000 OA
ATOM      9  C   UNL     1      44.569   3.094   9.191  0.00  0.00    +0.000 C 
ATOM     10  N   UNL     1      44.426   2.472  10.410  0.00  0.00    +0.000 N 
ATOM     11  H   UNL     1      44.961   1.619  10.552  0.00  0.00    +0.000 HD
BRANCH   9  12
ATOM     12  C   UNL     1      45.640   2.524   8.312  0.00  0.00    +0.000 A 
ATOM     13  C   UNL     1      46.327   3.374   7.452  0.00  0.00    +0.000 A 
ATOM     14  C   UNL     1      47.343   2.838   6.671  0.00  0.00    +0.000 A 
ATOM     15  C   UNL     1      47.635   1.483   6.775  0.00  0.00    +0.000 A 
ATOM     16  C   UNL     1      46.895   0.708   7.660  0.00  0.00    +0.000 A 
ATOM     17  N   UNL     1      45.898   1.191   8.433  0.00  0.00    +0.000 NA
ENDBRANCH   9  12
ENDBRANCH   7  10
ENDBRANCH   1   7
BRANCH   4  18
ATOM     18  C   UNL     1      45.430   7.235  12.858  0.00  0.00    +0.000 C 
BRANCH  18  19
ATOM     19  N   UNL     1      46.843   7.514  12.773  0.00  0.00    +0.000 N 
ATOM     20  C   UNL     1      47.379   8.767  12.638  0.00  0.00    +0.000 C 
ATOM     21  O   UNL     1      46.699   9.767  12.431  0.00  0.00    +0.000 OA
ATOM     22  H   UNL     1      47.454   6.746  13.023  0.00  0.00    +0.000 HD
BRANCH  20  23
ATOM     23  C   UNL     1      48.844   8.828  12.729  0.00  0.00    +0.000 A 
ATOM     24  C   UNL     1      49.582   9.524  11.781  0.00  0.00    +0.000 A 
ATOM     25  S   UNL     1      51.266   9.477  12.064  0.00  0.00    +0.000 S 
ATOM     26  C   UNL     1      51.060   8.571  13.492  0.00  0.00    +0.000 A 
ATOM     27  N   UNL     1      52.125   8.219  14.259  0.00  0.00    +0.000 NA
ATOM     28  C   UNL     1      51.815   7.580  15.341  0.00  0.00    +0.000 A 
ATOM     29  N   UNL     1      50.540   7.251  15.714  0.00  0.00    +0.000 N 
ATOM     30  C   UNL     1      49.445   7.507  14.928  0.00  0.00    +0.000 A 
ATOM     31  O   UNL     1      48.343   7.057  15.222  0.00  0.00    +0.000 OA
ATOM     32  C   UNL     1      49.728   8.278  13.728  0.00  0.00    +0.000 A 
ATOM     33  H   UNL     1      50.366   6.716  16.554  0.00  0.00    +0.000 HD
ENDBRANCH  20  23
ENDBRANCH  18  19
ENDBRANCH   4  18
TORSDOF 6
ENDMDL
MODEL 8
REMARK VINA RESULT:    -7.836      2.900      3.722
REMARK INTER + INTRA:         -11.205
REMARK INTER:                 -10.649
REMARK INTRA:                  -0.556
REMARK UNBOUND:                -0.621
REMARK  Name = 
REMARK  6 active torsions:
REMARK  status: ('A' for Active; 'I' for Inactive)
REMARK    1  A    between atoms: C_2  and  C_25
REMARK    2  A    between atoms: N_3  and  C_4
REMARK    3  A    between atoms: C_4  and  C_5
REMARK    4  A    between atoms: C_8  and  C_9
REMARK    5  A    between atoms: C_9  and  N_10
REMARK    6  A    between atoms: C_11  and  C_13
REMARK                            x       y       z     vdW  Elec       q    Type
REMARK                         _______ _______ _______ _____ _____    ______ ____
ROOT
ATOM      1  C   UNL     1      44.221   4.582  12.497  0.00  0.00    +0.000 C 
ATOM      2  C   UNL     1      45.192   4.850  13.662  0.00  0.00    +0.000 C 
ATOM      3  C   UNL     1      46.644   5.038  13.224  0.00  0.00    +0.000 C 
ATOM      4  C   UNL     1      46.822   6.074  12.100  0.00  0.00    +0.000 C 
ATOM      5  C   UNL     1      45.885   5.742  10.931  0.00  0.00    +0.000 C 
ATOM      6  C   UNL     1      44.422   5.598  11.361  0.00  0.00    +0.000 C 
ENDROOT
BRANCH   1   7
ATOM      7  C   UNL     1      44.328   3.148  11.956  0.00  0.00    +0.000 C 
BRANCH   7  10
ATOM      8  O   UNL     1      43.711   1.641   9.645  0.00  0.00    +0.000 OA
ATOM      9  C   UNL     1      44.736   2.312   9.675  0.00  0.00    +0.000 C 
ATOM     10  N   UNL     1      45.126   3.072  10.754  0.00  0.00    +0.000 N 
ATOM     11  H   UNL     1      46.050   3.492  10.705  0.00  0.00    +0.000 HD
BRANCH   9  12
ATOM     12  C   UNL     1      45.661   2.363   8.498  0.00  0.00    +0.000 A 
ATOM     13  C   UNL     1      45.763   3.547   7.775  0.00  0.00    +0.000 A 
ATOM     14  C   UNL     1      46.653   3.592   6.710  0.00  0.00    +0.000 A 
ATOM     15  C   UNL     1      47.405   2.463   6.406  0.00  0.00    +0.000 A 
ATOM     16  C   UNL     1      47.237   1.323   7.182  0.00  0.00    +0.000 A 
ATOM     17  N   UNL     1      46.379   1.238   8.223  0.00  0.00    +0.000 NA
ENDBRANCH   9  12
ENDBRANCH   7  10
ENDBRANCH   1   7
BRANCH   4  18
ATOM     18  C   UNL     1      46.605   7.523  12.563  0.00  0.00    +0.000 C 
BRANCH  18  19
ATOM     19  N   UNL     1      47.124   7.773  13.887  0.00  0.00    +0.000 N 
ATOM     20  C   UNL     1      48.306   8.413  14.148  0.00  0.00    +0.000 C 
ATOM     21  O   UNL     1      49.113   8.712  13.273  0.00  0.00    +0.000 OA
ATOM     22  H   UNL     1      46.468   7.628  14.645  0.00  0.00    +0.000 HD
BRANCH  20  23
ATOM     23  C   UNL     1      48.559   8.693  15.567  0.00  0.00    +0.000 A 
ATOM     24  C   UNL     1      48.573   9.999  16.037  0.00  0.00    +0.000 A 
ATOM     25  S   UNL     1      48.882  10.113  17.713  0.00  0.00    +0.000 S 
ATOM     26  C   UNL     1      48.954   8.419  17.876  0.00  0.00    +0.000 A 
ATOM     27  N   UNL     1      49.156   7.839  19.087  0.00  0.00    +0.000 NA
ATOM     28  C   UNL     1      49.134   6.544  19.069  0.00  0.00    +0.000 A 
ATOM     29  N   UNL     1      48.943   5.783  17.947  0.00  0.00    +0.000 N 
ATOM     30  C   UNL     1      48.825   6.325  16.692  0.00  0.00    +0.000 A 
ATOM     31  O   UNL     1      48.814   5.607  15.698  0.00  0.00    +0.000 OA
ATOM     32  C   UNL     1      48.781   7.778  16.661  0.00  0.00    +0.000 A 
ATOM     33  H   UNL     1      48.975   4.775  17.992  0.00  0.00    +0.000 HD
ENDBRANCH  20  23
ENDBRANCH  18  19
ENDBRANCH   4  18
TORSDOF 6
ENDMDL
MODEL 9
REMARK VINA RESULT:    -7.706      2.672      3.028
REMARK INTER + INTRA:         -11.030
REMARK INTER:                 -10.724
REMARK INTRA:                  -0.305
REMARK UNBOUND:                -0.621
REMARK  Name = 
REMARK  6 active torsions:
REMARK  status: ('A' for Active; 'I' for Inactive)
REMARK    1  A    between atoms: C_2  and  C_25
REMARK    2  A    between atoms: N_3  and  C_4
REMARK    3  A    between atoms: C_4  and  C_5
REMARK    4  A    between atoms: C_8  and  C_9
REMARK    5  A    between atoms: C_9  and  N_10
REMARK    6  A    between atoms: C_11  and  C_13
REMARK                            x       y       z     vdW  Elec       q    Type
REMARK                         _______ _______ _______ _____ _____    ______ ____
ROOT
ATOM      1  C   UNL     1      43.657   6.020  11.856  0.00  0.00    +0.000 C 
ATOM      2  C   UNL     1      44.237   5.401  13.141  0.00  0.00    +0.000 C 
ATOM      3  C   UNL     1      45.587   4.713  12.939  0.00  0.00    +0.000 C 
ATOM      4  C   UNL     1      46.628   5.591  12.223  0.00  0.00    +0.000 C 
ATOM      5  C   UNL     1      46.038   6.141  10.917  0.00  0.00    +0.000 C 
ATOM      6  C   UNL     1      44.708   6.871  11.124  0.00  0.00    +0.000 C 
ENDROOT
BRANCH   1   7
ATOM      7  C   UNL     1      43.068   4.966  10.905  0.00  0.00    +0.000 C 
BRANCH   7  10
ATOM      8  O   UNL     1      43.734   2.264  10.407  0.00  0.00    +0.000 OA
ATOM      9  C   UNL     1      44.286   3.152   9.768  0.00  0.00    +0.000 C 
ATOM     10  N   UNL     1      44.035   4.494   9.941  0.00  0.00    +0.000 N 
ATOM     11  H   UNL     1      44.637   5.139   9.436  0.00  0.00    +0.000 HD
BRANCH   9  12
ATOM     12  C   UNL     1      45.297   2.829   8.710  0.00  0.00    +0.000 A 
ATOM     13  C   UNL     1      45.697   3.834   7.835  0.00  0.00    +0.000 A 
ATOM     14  C   UNL     1      46.663   3.529   6.884  0.00  0.00    +0.000 A 
ATOM     15  C   UNL     1      47.191   2.244   6.841  0.00  0.00    +0.000 A 
ATOM     16  C   UNL     1      46.731   1.304   7.754  0.00  0.00    +0.000 A 
ATOM     17  N   UNL     1      45.790   1.559   8.691  0.00  0.00    +0.000 NA
ENDBRANCH   9  12
ENDBRANCH   7  10
ENDBRANCH   1   7
BRANCH   4  18
ATOM     18  C   UNL     1      47.163   6.740  13.093  0.00  0.00    +0.000 C 
BRANCH  18  19
ATOM     19  N   UNL     1      48.125   6.299  14.074  0.00  0.00    +0.000 N 
ATOM     20  C   UNL     1      48.602   7.077  15.095  0.00  0.00    +0.000 C 
ATOM     21  O   UNL     1      48.363   8.277  15.190  0.00  0.00    +0.000 OA
ATOM     22  H   UNL     1      48.292   5.301  14.101  0.00  0.00    +0.000 HD
BRANCH  20  23
ATOM     23  C   UNL     1      49.453   6.375  16.064  0.00  0.00    +0.000 A 
ATOM     24  C   UNL     1      48.908   5.451  16.945  0.00  0.00    +0.000 A 
ATOM     25  S   UNL     1      50.062   4.745  17.987  0.00  0.00    +0.000 S 
ATOM     26  C   UNL     1      51.336   5.611  17.261  0.00  0.00    +0.000 A 
ATOM     27  N   UNL     1      52.622   5.438  17.664  0.00  0.00    +0.000 NA
ATOM     28  C   UNL     1      53.490   6.120  16.987  0.00  0.00    +0.000 A 
ATOM     29  N   UNL     1      53.184   6.966  15.957  0.00  0.00    +0.000 N 
ATOM     30  C   UNL     1      51.895   7.239  15.575  0.00  0.00    +0.000 A 
ATOM     31  O   UNL     1      51.656   8.120  14.757  0.00  0.00    +0.000 OA
ATOM     32  C   UNL     1      50.881   6.454  16.261  0.00  0.00    +0.000 A 
ATOM     33  H   UNL     1      53.905   7.500  15.492  0.00  0.00    +0.000 HD
ENDBRANCH  20  23
ENDBRANCH  18  19
ENDBRANCH   4  18
TORSDOF 6
ENDMDL
