MODEL 1
REMARK VINA RESULT:    -9.386      0.000      0.000
REMARK INTER + INTRA:         -12.450
REMARK INTER:                 -11.581
REMARK INTRA:                  -0.868
REMARK UNBOUND:                -0.868
REMARK  Name = 
REMARK  4 active torsions:
REMARK  status: ('A' for Active; 'I' for Inactive)
REMARK    1  A    between atoms: C_2  and  C_4
REMARK    2  A    between atoms: N_8  and  C_9
REMARK    3  A    between atoms: C_9  and  C_10
REMARK    4  A    between atoms: C_15  and  C_16
REMARK                            x       y       z     vdW  Elec       q    Type
REMARK                         _______ _______ _______ _____ _____    ______ ____
ROOT
ATOM      1  C   UNL     1      43.611   4.903  11.143  0.00  0.00    +0.000 C 
ENDROOT
BRANCH   1   6
ATOM      2  C   UNL     1      46.386   2.281   7.694  0.00  0.00    +0.000 A 
ATOM      3  C   UNL     1      45.712   1.802   8.814  0.00  0.00    +0.000 A 
ATOM      4  C   UNL     1      44.884   2.667   9.533  0.00  0.00    +0.000 A 
ATOM      5  C   UNL     1      44.753   3.992   9.130  0.00  0.00    +0.000 A 
ATOM      6  N   UNL     1      43.910   4.898   9.728  0.00  0.00    +0.000 N 
ATOM      7  N   UNL     1      45.410   4.466   8.054  0.00  0.00    +0.000 NA
ATOM      8  C   UNL     1      46.215   3.615   7.366  0.00  0.00    +0.000 A 
ATOM      9  H   UNL     1      44.036   5.809   9.297  0.00  0.00    +0.000 HD
BRANCH   2  11
ATOM     10  N   UNL     1      48.388   2.034   6.338  0.00  0.00    +0.000 N 
ATOM     11  C   UNL     1      47.272   1.441   6.862  0.00  0.00    +0.000 C 
ATOM     12  O   UNL     1      47.041   0.254   6.676  0.00  0.00    +0.000 OA
ATOM     13  H   UNL     1      49.038   1.419   5.861  0.00  0.00    +0.000 HD
ATOM     14  H   UNL     1      48.745   2.916   6.673  0.00  0.00    +0.000 HD
ENDBRANCH   2  11
ENDBRANCH   1   6
BRANCH   1  15
ATOM     15  C   UNL     1      44.777   5.235  12.051  0.00  0.00    +0.000 A 
ATOM     16  C   UNL     1      45.169   4.463  13.148  0.00  0.00    +0.000 A 
ATOM     17  C   UNL     1      46.268   4.851  13.907  0.00  0.00    +0.000 A 
ATOM     18  F   UNL     1      46.643   4.098  14.950  0.00  0.00    +0.000 F 
ATOM     19  C   UNL     1      46.991   6.003  13.607  0.00  0.00    +0.000 A 
ATOM     20  C   UNL     1      46.642   6.807  12.512  0.00  0.00    +0.000 A 
ATOM     21  C   UNL     1      45.530   6.393  11.749  0.00  0.00    +0.000 A 
BRANCH  20  22
ATOM     22  C   UNL     1      47.408   8.029  12.163  0.00  0.00    +0.000 A 
ATOM     23  C   UNL     1      46.814   9.307  12.191  0.00  0.00    +0.000 A 
ATOM     24  C   UNL     1      47.537  10.464  11.869  0.00  0.00    +0.000 A 
ATOM     25  C   UNL     1      48.880  10.371  11.524  0.00  0.00    +0.000 A 
ATOM     26  C   UNL     1      49.482   9.122  11.494  0.00  0.00    +0.000 A 
ATOM     27  F   UNL     1      50.777   9.024  11.167  0.00  0.00    +0.000 F 
ATOM     28  C   UNL     1      48.765   7.966  11.799  0.00  0.00    +0.000 A 
ENDBRANCH  20  22
ENDBRANCH   1  15
TORSDOF 4
ENDMDL
MODEL 2
REMARK VINA RESULT:    -8.467      2.095      4.443
REMARK INTER + INTRA:         -11.315
REMARK INTER:                 -10.539
REMARK INTRA:                  -0.776
REMARK UNBOUND:                -0.868
REMARK  Name = 
REMARK  4 active torsions:
REMARK  status: ('A' for Active; 'I' for Inactive)
REMARK    1  A    between atoms: C_2  and  C_4
REMARK    2  A    between atoms: N_8  and  C_9
REMARK    3  A    between atoms: C_9  and  C_10
REMARK    4  A    between atoms: C_15  and  C_16
REMARK                            x       y       z     vdW  Elec       q    Type
REMARK                         _______ _______ _______ _____ _____    ______ ____
ROOT
ATOM      1  C   UNL     1      44.627   5.076  11.601  0.00  0.00    +0.000 C 
ENDROOT
BRANCH   1   6
ATOM      2  C   UNL     1      46.487   2.603   7.491  0.00  0.00    +0.000 A 
ATOM      3  C   UNL     1      46.034   2.072   8.694  0.00  0.00    +0.000 A 
ATOM      4  C   UNL     1      45.419   2.914   9.623  0.00  0.00    +0.000 A 
ATOM      5  C   UNL     1      45.280   4.269   9.341  0.00  0.00    +0.000 A 
ATOM      6  N   UNL     1      44.628   5.161  10.157  0.00  0.00    +0.000 N 
ATOM      7  N   UNL     1      45.725   4.793   8.183  0.00  0.00    +0.000 NA
ATOM      8  C   UNL     1      46.324   3.963   7.290  0.00  0.00    +0.000 A 
ATOM      9  H   UNL     1      44.711   6.096   9.768  0.00  0.00    +0.000 HD
BRANCH   2  11
ATOM     10  N   UNL     1      47.814   2.462   5.459  0.00  0.00    +0.000 N 
ATOM     11  C   UNL     1      47.136   1.792   6.441  0.00  0.00    +0.000 C 
ATOM     12  O   UNL     1      47.103   0.569   6.464  0.00  0.00    +0.000 OA
ATOM     13  H   UNL     1      48.342   1.889   4.810  0.00  0.00    +0.000 HD
ATOM     14  H   UNL     1      48.081   3.431   5.545  0.00  0.00    +0.000 HD
ENDBRANCH   2  11
ENDBRANCH   1   6
BRANCH   1  15
ATOM     15  C   UNL     1      45.858   5.636  12.285  0.00  0.00    +0.000 A 
ATOM     16  C   UNL     1      46.659   6.653  11.760  0.00  0.00    +0.000 A 
ATOM     17  C   UNL     1      47.759   7.106  12.480  0.00  0.00    +0.000 A 
ATOM     18  F   UNL     1      48.515   8.089  11.974  0.00  0.00    +0.000 F 
ATOM     19  C   UNL     1      48.093   6.563  13.719  0.00  0.00    +0.000 A 
ATOM     20  C   UNL     1      47.315   5.546  14.291  0.00  0.00    +0.000 A 
ATOM     21  C   UNL     1      46.199   5.105  13.549  0.00  0.00    +0.000 A 
BRANCH  20  22
ATOM     22  C   UNL     1      47.642   4.964  15.617  0.00  0.00    +0.000 A 
ATOM     23  C   UNL     1      48.564   5.580  16.487  0.00  0.00    +0.000 A 
ATOM     24  C   UNL     1      48.868   5.037  17.743  0.00  0.00    +0.000 A 
ATOM     25  C   UNL     1      48.247   3.867  18.164  0.00  0.00    +0.000 A 
ATOM     26  C   UNL     1      47.336   3.248  17.322  0.00  0.00    +0.000 A 
ATOM     27  F   UNL     1      46.728   2.124  17.722  0.00  0.00    +0.000 F 
ATOM     28  C   UNL     1      47.038   3.776  16.066  0.00  0.00    +0.000 A 
ENDBRANCH  20  22
ENDBRANCH   1  15
TORSDOF 4
ENDMDL
MODEL 3
REMARK VINA RESULT:    -8.449      4.148      7.223
REMARK INTER + INTRA:         -11.293
REMARK INTER:                 -11.091
REMARK INTRA:                  -0.202
REMARK UNBOUND:                -0.868
REMARK  Name = 
REMARK  4 active torsions:
REMARK  status: ('A' for Active; 'I' for Inactive)
REMARK    1  A    between atoms: C_2  and  C_4
REMARK    2  A    between atoms: N_8  and  C_9
REMARK    3  A    between atoms: C_9  and  C_10
REMARK    4  A    between atoms: C_15  and  C_16
REMARK                            x       y       z     vdW  Elec       q    Type
REMARK                         _______ _______ _______ _____ _____    ______ ____
ROOT
ATOM      1  C   UNL     1      46.247   7.459  11.711  0.00  0.00    +0.000 C 
ENDROOT
BRANCH   1   6
ATOM      2  C   UNL     1      47.419   4.402  15.679  0.00  0.00    +0.000 A 
ATOM      3  C   UNL     1      46.422   4.242  14.723  0.00  0.00    +0.000 A 
ATOM      4  C   UNL     1      46.376   5.113  13.632  0.00  0.00    +0.000 A 
ATOM      5  C   UNL     1      47.316   6.133  13.522  0.00  0.00    +0.000 A 
ATOM      6  N   UNL     1      47.396   6.992  12.454  0.00  0.00    +0.000 N 
ATOM      7  N   UNL     1      48.279   6.301  14.449  0.00  0.00    +0.000 NA
ATOM      8  C   UNL     1      48.309   5.449  15.507  0.00  0.00    +0.000 A 
ATOM      9  H   UNL     1      48.120   7.682  12.631  0.00  0.00    +0.000 HD
BRANCH   2  11
ATOM     10  N   UNL     1      48.819   3.349  17.366  0.00  0.00    +0.000 N 
ATOM     11  C   UNL     1      47.560   3.524  16.859  0.00  0.00    +0.000 C 
ATOM     12  O   UNL     1      46.588   3.001  17.387  0.00  0.00    +0.000 OA
ATOM     13  H   UNL     1      48.882   2.833  18.235  0.00  0.00    +0.000 HD
ATOM     14  H   UNL     1      49.591   3.953  17.127  0.00  0.00    +0.000 HD
ENDBRANCH   2  11
ENDBRANCH   1   6
BRANCH   1  15
ATOM     15  C   UNL     1      45.341   6.373  11.167  0.00  0.00    +0.000 A 
ATOM     16  C   UNL     1      44.008   6.194  11.545  0.00  0.00    +0.000 A 
ATOM     17  C   UNL     1      43.258   5.173  10.969  0.00  0.00    +0.000 A 
ATOM     18  F   UNL     1      41.978   5.015  11.331  0.00  0.00    +0.000 F 
ATOM     19  C   UNL     1      43.807   4.311  10.022  0.00  0.00    +0.000 A 
ATOM     20  C   UNL     1      45.138   4.456   9.604  0.00  0.00    +0.000 A 
ATOM     21  C   UNL     1      45.879   5.501  10.193  0.00  0.00    +0.000 A 
BRANCH  20  22
ATOM     22  C   UNL     1      45.739   3.560   8.585  0.00  0.00    +0.000 A 
ATOM     23  C   UNL     1      46.314   4.067   7.402  0.00  0.00    +0.000 A 
ATOM     24  C   UNL     1      46.889   3.225   6.441  0.00  0.00    +0.000 A 
ATOM     25  C   UNL     1      46.913   1.850   6.647  0.00  0.00    +0.000 A 
ATOM     26  C   UNL     1      46.354   1.333   7.805  0.00  0.00    +0.000 A 
ATOM     27  F   UNL     1      46.378   0.010   8.014  0.00  0.00    +0.000 F 
ATOM     28  C   UNL     1      45.769   2.165   8.759  0.00  0.00    +0.000 A 
ENDBRANCH  20  22
ENDBRANCH   1  15
TORSDOF 4
ENDMDL
MODEL 4
REMARK VINA RESULT:    -8.250      5.039      7.975
REMARK INTER + INTRA:         -11.047
REMARK INTER:                 -10.517
REMARK INTRA:                  -0.531
REMARK UNBOUND:                -0.868
REMARK  Name = 
REMARK  4 active torsions:
REMARK  status: ('A' for Active; 'I' for Inactive)
REMARK    1  A    between atoms: C_2  and  C_4
REMARK    2  A    between atoms: N_8  and  C_9
REMARK    3  A    between atoms: C_9  and  C_10
REMARK    4  A    between atoms: C_15  and  C_16
REMARK                            x       y       z     vdW  Elec       q    Type
REMARK                         _______ _______ _______ _____ _____    ______ ____
ROOT
ATOM      1  C   UNL     1      46.217   5.529  13.781  0.00  0.00    +0.000 C 
ENDROOT
BRANCH   1   6
ATOM      2  C   UNL     1      49.543   4.012  17.401  0.00  0.00    +0.000 A 
ATOM      3  C   UNL     1      49.228   5.305  16.996  0.00  0.00    +0.000 A 
ATOM      4  C   UNL     1      48.175   5.502  16.100  0.00  0.00    +0.000 A 
ATOM      5  C   UNL     1      47.466   4.407  15.616  0.00  0.00    +0.000 A 
ATOM      6  N   UNL     1      46.373   4.504  14.790  0.00  0.00    +0.000 N 
ATOM      7  N   UNL     1      47.771   3.151  15.996  0.00  0.00    +0.000 NA
ATOM      8  C   UNL     1      48.800   2.974  16.865  0.00  0.00    +0.000 A 
ATOM      9  H   UNL     1      46.067   3.572  14.527  0.00  0.00    +0.000 HD
BRANCH   2  11
ATOM     10  N   UNL     1      51.336   2.550  18.150  0.00  0.00    +0.000 N 
ATOM     11  C   UNL     1      50.628   3.704  18.355  0.00  0.00    +0.000 C 
ATOM     12  O   UNL     1      50.911   4.464  19.271  0.00  0.00    +0.000 OA
ATOM     13  H   UNL     1      52.142   2.409  18.747  0.00  0.00    +0.000 HD
ATOM     14  H   UNL     1      51.308   2.041  17.279  0.00  0.00    +0.000 HD
ENDBRANCH   2  11
ENDBRANCH   1   6
BRANCH   1  15
ATOM     15  C   UNL     1      45.219   5.214  12.686  0.00  0.00    +0.000 A 
ATOM     16  C   UNL     1      43.860   5.537  12.738  0.00  0.00    +0.000 A 
ATOM     17  C   UNL     1      43.034   5.217  11.666  0.00  0.00    +0.000 A 
ATOM     18  F   UNL     1      41.735   5.540  11.721  0.00  0.00    +0.000 F 
ATOM     19  C   UNL     1      43.525   4.569  10.535  0.00  0.00    +0.000 A 
ATOM     20  C   UNL     1      44.882   4.231  10.432  0.00  0.00    +0.000 A 
ATOM     21  C   UNL     1      45.706   4.571  11.525  0.00  0.00    +0.000 A 
BRANCH  20  22
ATOM     22  C   UNL     1      45.431   3.556   9.229  0.00  0.00    +0.000 A 
ATOM     23  C   UNL     1      45.880   4.288   8.112  0.00  0.00    +0.000 A 
ATOM     24  C   UNL     1      46.406   3.654   6.978  0.00  0.00    +0.000 A 
ATOM     25  C   UNL     1      46.505   2.268   6.939  0.00  0.00    +0.000 A 
ATOM     26  C   UNL     1      46.070   1.531   8.030  0.00  0.00    +0.000 A 
ATOM     27  F   UNL     1      46.167   0.196   8.004  0.00  0.00    +0.000 F 
ATOM     28  C   UNL     1      45.534   2.155   9.156  0.00  0.00    +0.000 A 
ENDBRANCH  20  22
ENDBRANCH   1  15
TORSDOF 4
ENDMDL
MODEL 5
REMARK VINA RESULT:    -8.024      2.601      3.899
REMARK INTER + INTRA:         -10.769
REMARK INTER:                 -10.106
REMARK INTRA:                  -0.663
REMARK UNBOUND:                -0.868
REMARK  Name = 
REMARK  4 active torsions:
REMARK  status: ('A' for Active; 'I' for Inactive)
REMARK    1  A    between atoms: C_2  and  C_4
REMARK    2  A    between atoms: N_8  and  C_9
REMARK    3  A    between atoms: C_9  and  C_10
REMARK    4  A    between atoms: C_15  and  C_16
REMARK                            x       y       z     vdW  Elec       q    Type
REMARK                         _______ _______ _______ _____ _____    ______ ____
ROOT
ATOM      1  C   UNL     1      43.585   3.503  11.055  0.00  0.00    +0.000 C 
ENDROOT
BRANCH   1   6
ATOM      2  C   UNL     1      46.737   2.502   7.114  0.00  0.00    +0.000 A 
ATOM      3  C   UNL     1      46.448   3.726   7.707  0.00  0.00    +0.000 A 
ATOM      4  C   UNL     1      45.680   3.755   8.874  0.00  0.00    +0.000 A 
ATOM      5  C   UNL     1      45.207   2.566   9.419  0.00  0.00    +0.000 A 
ATOM      6  N   UNL     1      44.507   2.486  10.598  0.00  0.00    +0.000 N 
ATOM      7  N   UNL     1      45.474   1.377   8.846  0.00  0.00    +0.000 NA
ATOM      8  C   UNL     1      46.218   1.364   7.709  0.00  0.00    +0.000 A 
ATOM      9  H   UNL     1      44.220   1.525  10.754  0.00  0.00    +0.000 HD
BRANCH   2  11
ATOM     10  N   UNL     1      47.362   3.296   4.903  0.00  0.00    +0.000 N 
ATOM     11  C   UNL     1      47.551   2.366   5.889  0.00  0.00    +0.000 C 
ATOM     12  O   UNL     1      48.389   1.482   5.771  0.00  0.00    +0.000 OA
ATOM     13  H   UNL     1      48.003   3.252   4.119  0.00  0.00    +0.000 HD
ATOM     14  H   UNL     1      46.884   4.170   5.063  0.00  0.00    +0.000 HD
ENDBRANCH   2  11
ENDBRANCH   1   6
BRANCH   1  15
ATOM     15  C   UNL     1      44.226   4.763  11.600  0.00  0.00    +0.000 A 
ATOM     16  C   UNL     1      43.921   6.055  11.167  0.00  0.00    +0.000 A 
ATOM     17  C   UNL     1      44.557   7.146  11.749  0.00  0.00    +0.000 A 
ATOM     18  F   UNL     1      44.250   8.383  11.334  0.00  0.00    +0.000 F 
ATOM     19  C   UNL     1      45.506   6.985  12.755  0.00  0.00    +0.000 A 
ATOM     20  C   UNL     1      45.841   5.708  13.230  0.00  0.00    +0.000 A 
ATOM     21  C   UNL     1      45.179   4.615  12.633  0.00  0.00    +0.000 A 
BRANCH  20  22
ATOM     22  C   UNL     1      46.837   5.513  14.313  0.00  0.00    +0.000 A 
ATOM     23  C   UNL     1      47.869   6.444  14.545  0.00  0.00    +0.000 A 
ATOM     24  C   UNL     1      48.806   6.267  15.572  0.00  0.00    +0.000 A 
ATOM     25  C   UNL     1      48.725   5.155  16.402  0.00  0.00    +0.000 A 
ATOM     26  C   UNL     1      47.715   4.229  16.190  0.00  0.00    +0.000 A 
ATOM     27  F   UNL     1      47.627   3.157  16.989  0.00  0.00    +0.000 F 
ATOM     28  C   UNL     1      46.788   4.393  15.162  0.00  0.00    +0.000 A 
ENDBRANCH  20  22
ENDBRANCH   1  15
TORSDOF 4
ENDMDL
MODEL 6
REMARK VINA RESULT:    -7.937      4.075      7.026
REMARK INTER + INTRA:         -10.662
REMARK INTER:                 -10.296
REMARK INTRA:                  -0.366
REMARK UNBOUND:                -0.868
REMARK  Name = 
REMARK  4 active torsions:
REMARK  status: ('A' for Active; 'I' for Inactive)
REMARK    1  A    between atoms: C_2  and  C_4
REMARK    2  A    between atoms: N_8  and  C_9
REMARK    3  A    between atoms: C_9  and  C_10
REMARK    4  A    between atoms: C_15  and  C_16
REMARK                            x       y       z     vdW  Elec       q    Type
REMARK                         _______ _______ _______ _____ _____    ______ ____
ROOT
ATOM      1  C   UNL     1      43.373   6.654  11.113  0.00  0.00    +0.000 C 
ENDROOT
BRANCH   1   6
ATOM      2  C   UNL     1      47.777   7.548  13.619  0.00  0.00    +0.000 A 
ATOM      3  C   UNL     1      47.126   6.337  13.409  0.00  0.00    +0.000 A 
ATOM      4  C   UNL     1      46.016   6.296  12.561  0.00  0.00    +0.000 A 
ATOM      5  C   UNL     1      45.570   7.464  11.951  0.00  0.00    +0.000 A 
ATOM      6  N   UNL     1      44.536   7.512  11.048  0.00  0.00    +0.000 N 
ATOM      7  N   UNL     1      46.189   8.642  12.157  0.00  0.00    +0.000 NA
ATOM      8  C   UNL     1      47.264   8.668  12.986  0.00  0.00    +0.000 A 
ATOM      9  H   UNL     1      44.360   8.478  10.791  0.00  0.00    +0.000 HD
BRANCH   2  11
ATOM     10  N   UNL     1      50.184   7.407  13.930  0.00  0.00    +0.000 N 
ATOM     11  C   UNL     1      48.965   7.690  14.484  0.00  0.00    +0.000 C 
ATOM     12  O   UNL     1      48.873   8.081  15.640  0.00  0.00    +0.000 OA
ATOM     13  H   UNL     1      50.994   7.613  14.503  0.00  0.00    +0.000 HD
ATOM     14  H   UNL     1      50.326   7.337  12.933  0.00  0.00    +0.000 HD
ENDBRANCH   2  11
ENDBRANCH   1   6
BRANCH   1  15
ATOM     15  C   UNL     1      43.659   5.168  11.031  0.00  0.00    +0.000 A 
ATOM     16  C   UNL     1      43.206   4.225  11.958  0.00  0.00    +0.000 A 
ATOM     17  C   UNL     1      43.511   2.880  11.778  0.00  0.00    +0.000 A 
ATOM     18  F   UNL     1      43.064   1.981  12.665  0.00  0.00    +0.000 F 
ATOM     19  C   UNL     1      44.270   2.443  10.694  0.00  0.00    +0.000 A 
ATOM     20  C   UNL     1      44.740   3.350   9.733  0.00  0.00    +0.000 A 
ATOM     21  C   UNL     1      44.414   4.709   9.928  0.00  0.00    +0.000 A 
BRANCH  20  22
ATOM     22  C   UNL     1      45.536   2.906   8.562  0.00  0.00    +0.000 A 
ATOM     23  C   UNL     1      45.923   3.804   7.547  0.00  0.00    +0.000 A 
ATOM     24  C   UNL     1      46.680   3.389   6.443  0.00  0.00    +0.000 A 
ATOM     25  C   UNL     1      47.080   2.063   6.335  0.00  0.00    +0.000 A 
ATOM     26  C   UNL     1      46.711   1.164   7.324  0.00  0.00    +0.000 A 
ATOM     27  F   UNL     1      47.097  -0.115   7.230  0.00  0.00    +0.000 F 
ATOM     28  C   UNL     1      45.947   1.568   8.418  0.00  0.00    +0.000 A 
ENDBRANCH  20  22
ENDBRANCH   1  15
TORSDOF 4
ENDMDL
MODEL 7
REMARK VINA RESULT:    -7.843      4.051      7.117
REMARK INTER + INTRA:         -10.545
REMARK INTER:                  -9.710
REMARK INTRA:                  -0.835
REMARK UNBOUND:                -0.868
REMARK  Name = 
REMARK  4 active torsions:
REMARK  status: ('A' for Active; 'I' for Inactive)
REMARK    1  A    between atoms: C_2  and  C_4
REMARK    2  A    between atoms: N_8  and  C_9
REMARK    3  A    between atoms: C_9  and  C_10
REMARK    4  A    between atoms: C_15  and  C_16
REMARK                            x       y       z     vdW  Elec       q    Type
REMARK                         _______ _______ _______ _____ _____    ______ ____
ROOT
ATOM      1  C   UNL     1      44.428   6.827  11.489  0.00  0.00    +0.000 C 
ENDROOT
BRANCH   1   6
ATOM      2  C   UNL     1      49.259   7.790  12.974  0.00  0.00    +0.000 A 
ATOM      3  C   UNL     1      48.651   8.072  11.755  0.00  0.00    +0.000 A 
ATOM      4  C   UNL     1      47.276   7.868  11.614  0.00  0.00    +0.000 A 
ATOM      5  C   UNL     1      46.538   7.375  12.685  0.00  0.00    +0.000 A 
ATOM      6  N   UNL     1      45.175   7.208  12.667  0.00  0.00    +0.000 N 
ATOM      7  N   UNL     1      47.121   7.090  13.866  0.00  0.00    +0.000 NA
ATOM      8  C   UNL     1      48.459   7.290  13.988  0.00  0.00    +0.000 A 
ATOM      9  H   UNL     1      44.877   6.781  13.538  0.00  0.00    +0.000 HD
BRANCH   2  11
ATOM     10  N   UNL     1      51.169   7.679  14.474  0.00  0.00    +0.000 N 
ATOM     11  C   UNL     1      50.701   7.987  13.225  0.00  0.00    +0.000 C 
ATOM     12  O   UNL     1      51.458   8.373  12.345  0.00  0.00    +0.000 OA
ATOM     13  H   UNL     1      52.174   7.717  14.596  0.00  0.00    +0.000 HD
ATOM     14  H   UNL     1      50.642   7.124  15.132  0.00  0.00    +0.000 HD
ENDBRANCH   2  11
ENDBRANCH   1   6
BRANCH   1  15
ATOM     15  C   UNL     1      44.352   5.337  11.223  0.00  0.00    +0.000 A 
ATOM     16  C   UNL     1      43.651   4.428  12.019  0.00  0.00    +0.000 A 
ATOM     17  C   UNL     1      43.631   3.080  11.674  0.00  0.00    +0.000 A 
ATOM     18  F   UNL     1      42.947   2.217  12.437  0.00  0.00    +0.000 F 
ATOM     19  C   UNL     1      44.305   2.606  10.551  0.00  0.00    +0.000 A 
ATOM     20  C   UNL     1      45.017   3.480   9.716  0.00  0.00    +0.000 A 
ATOM     21  C   UNL     1      45.018   4.844  10.078  0.00  0.00    +0.000 A 
BRANCH  20  22
ATOM     22  C   UNL     1      45.729   3.000   8.505  0.00  0.00    +0.000 A 
ATOM     23  C   UNL     1      46.121   3.883   7.480  0.00  0.00    +0.000 A 
ATOM     24  C   UNL     1      46.799   3.434   6.338  0.00  0.00    +0.000 A 
ATOM     25  C   UNL     1      47.113   2.087   6.202  0.00  0.00    +0.000 A 
ATOM     26  C   UNL     1      46.737   1.203   7.202  0.00  0.00    +0.000 A 
ATOM     27  F   UNL     1      47.041  -0.096   7.081  0.00  0.00    +0.000 F 
ATOM     28  C   UNL     1      46.051   1.642   8.333  0.00  0.00    +0.000 A 
ENDBRANCH  20  22
ENDBRANCH   1  15
TORSDOF 4
ENDMDL
MODEL 8
REMARK VINA RESULT:    -7.828      2.076      2.790
REMARK INTER + INTRA:         -10.526
REMARK INTER:                 -10.148
REMARK INTRA:                  -0.378
REMARK UNBOUND:                -0.868
REMARK  Name = 
REMARK  4 active torsions:
REMARK  status: ('A' for Active; 'I' for Inactive)
REMARK    1  A    between atoms: C_2  and  C_4
REMARK    2  A    between atoms: N_8  and  C_9
REMARK    3  A    between atoms: C_9  and  C_10
REMARK    4  A    between atoms: C_15  and  C_16
REMARK                            x       y       z     vdW  Elec       q    Type
REMARK                         _______ _______ _______ _____ _____    ______ ____
ROOT
ATOM      1  C   UNL     1      43.467   3.618  11.080  0.00  0.00    +0.000 C 
ENDROOT
BRANCH   1   6
ATOM      2  C   UNL     1      46.639   2.541   7.176  0.00  0.00    +0.000 A 
ATOM      3  C   UNL     1      46.147   3.777   7.581  0.00  0.00    +0.000 A 
ATOM      4  C   UNL     1      45.419   3.866   8.770  0.00  0.00    +0.000 A 
ATOM      5  C   UNL     1      45.187   2.721   9.525  0.00  0.00    +0.000 A 
ATOM      6  N   UNL     1      44.546   2.718  10.740  0.00  0.00    +0.000 N 
ATOM      7  N   UNL     1      45.652   1.518   9.135  0.00  0.00    +0.000 NA
ATOM      8  C   UNL     1      46.354   1.446   7.974  0.00  0.00    +0.000 A 
ATOM      9  H   UNL     1      44.444   1.761  11.064  0.00  0.00    +0.000 HD
BRANCH   2  11
ATOM     10  N   UNL     1      47.208   3.217   4.911  0.00  0.00    +0.000 N 
ATOM     11  C   UNL     1      47.430   2.348   5.944  0.00  0.00    +0.000 C 
ATOM     12  O   UNL     1      48.279   1.470   5.859  0.00  0.00    +0.000 OA
ATOM     13  H   UNL     1      47.832   3.137   4.118  0.00  0.00    +0.000 HD
ATOM     14  H   UNL     1      46.719   4.092   5.031  0.00  0.00    +0.000 HD
ENDBRANCH   2  11
ENDBRANCH   1   6
BRANCH   1  15
ATOM     15  C   UNL     1      43.861   5.072  11.246  0.00  0.00    +0.000 A 
ATOM     16  C   UNL     1      43.022   6.154  10.971  0.00  0.00    +0.000 A 
ATOM     17  C   UNL     1      43.480   7.452  11.175  0.00  0.00    +0.000 A 
ATOM     18  F   UNL     1      42.664   8.483  10.919  0.00  0.00    +0.000 F 
ATOM     19  C   UNL     1      44.768   7.705  11.643  0.00  0.00    +0.000 A 
ATOM     20  C   UNL     1      45.645   6.651  11.940  0.00  0.00    +0.000 A 
ATOM     21  C   UNL     1      45.160   5.343  11.735  0.00  0.00    +0.000 A 
BRANCH  20  22
ATOM     22  C   UNL     1      47.015   6.897  12.455  0.00  0.00    +0.000 A 
ATOM     23  C   UNL     1      47.367   6.605  13.788  0.00  0.00    +0.000 A 
ATOM     24  C   UNL     1      48.662   6.829  14.275  0.00  0.00    +0.000 A 
ATOM     25  C   UNL     1      49.643   7.340  13.433  0.00  0.00    +0.000 A 
ATOM     26  C   UNL     1      49.316   7.631  12.117  0.00  0.00    +0.000 A 
ATOM     27  F   UNL     1      50.256   8.119  11.298  0.00  0.00    +0.000 F 
ATOM     28  C   UNL     1      48.026   7.424  11.630  0.00  0.00    +0.000 A 
ENDBRANCH  20  22
ENDBRANCH   1  15
TORSDOF 4
ENDMDL
MODEL 9
REMARK VINA RESULT:    -7.807      4.013      7.018
REMARK INTER + INTRA:         -10.501
REMARK INTER:                  -9.738
REMARK INTRA:                  -0.763
REMARK UNBOUND:                -0.868
REMARK  Name = 
REMARK  4 active torsions:
REMARK  status: ('A' for Active; 'I' for Inactive)
REMARK    1  A    between atoms: C_2  and  C_4
REMARK    2  A    between atoms: N_8  and  C_9
REMARK    3  A    between atoms: C_9  and  C_10
REMARK    4  A    between atoms: C_15  and  C_16
REMARK                            x       y       z     vdW  Elec       q    Type
REMARK                         _______ _______ _______ _____ _____    ______ ____
ROOT
ATOM      1  C   UNL     1      45.954   4.769  14.086  0.00  0.00    +0.000 C 
ENDROOT
BRANCH   1   6
ATOM      2  C   UNL     1      48.452   8.780  12.049  0.00  0.00    +0.000 A 
ATOM      3  C   UNL     1      47.250   8.768  12.750  0.00  0.00    +0.000 A 
ATOM      4  C   UNL     1      46.825   7.584  13.356  0.00  0.00    +0.000 A 
ATOM      5  C   UNL     1      47.599   6.433  13.243  0.00  0.00    +0.000 A 
ATOM      6  N   UNL     1      47.302   5.243  13.862  0.00  0.00    +0.000 N 
ATOM      7  N   UNL     1      48.759   6.434  12.558  0.00  0.00    +0.000 NA
ATOM      8  C   UNL     1      49.159   7.592  11.970  0.00  0.00    +0.000 A 
ATOM      9  H   UNL     1      47.979   4.540  13.580  0.00  0.00    +0.000 HD
BRANCH   2  11
ATOM     10  N   UNL     1      50.336  10.010  11.128  0.00  0.00    +0.000 N 
ATOM     11  C   UNL     1      48.992   9.984  11.387  0.00  0.00    +0.000 C 
ATOM     12  O   UNL     1      48.266  10.909  11.047  0.00  0.00    +0.000 OA
ATOM     13  H   UNL     1      50.670  10.793  10.579  0.00  0.00    +0.000 HD
ATOM     14  H   UNL     1      50.912   9.182  11.153  0.00  0.00    +0.000 HD
ENDBRANCH   2  11
ENDBRANCH   1   6
BRANCH   1  15
ATOM     15  C   UNL     1      45.061   4.750  12.862  0.00  0.00    +0.000 A 
ATOM     16  C   UNL     1      43.774   5.290  12.815  0.00  0.00    +0.000 A 
ATOM     17  C   UNL     1      43.045   5.234  11.632  0.00  0.00    +0.000 A 
ATOM     18  F   UNL     1      41.815   5.764  11.594  0.00  0.00    +0.000 F 
ATOM     19  C   UNL     1      43.564   4.641  10.483  0.00  0.00    +0.000 A 
ATOM     20  C   UNL     1      44.854   4.091  10.478  0.00  0.00    +0.000 A 
ATOM     21  C   UNL     1      45.581   4.166  11.684  0.00  0.00    +0.000 A 
BRANCH  20  22
ATOM     22  C   UNL     1      45.435   3.470   9.261  0.00  0.00    +0.000 A 
ATOM     23  C   UNL     1      45.894   4.249   8.181  0.00  0.00    +0.000 A 
ATOM     24  C   UNL     1      46.449   3.665   7.034  0.00  0.00    +0.000 A 
ATOM     25  C   UNL     1      46.570   2.284   6.946  0.00  0.00    +0.000 A 
ATOM     26  C   UNL     1      46.125   1.501   8.001  0.00  0.00    +0.000 A 
ATOM     27  F   UNL     1      46.243   0.169   7.927  0.00  0.00    +0.000 F 
ATOM     28  C   UNL     1      45.560   2.074   9.139  0.00  0.00    +0.000 A 
ENDBRANCH  20  22
ENDBRANCH   1  15
TORSDOF 4
ENDMDL
