MODEL 1
REMARK VINA RESULT:    -9.251      0.000      0.000
REMARK INTER + INTRA:         -13.710
REMARK INTER:                 -12.496
REMARK INTRA:                  -1.214
REMARK UNBOUND:                -1.214
REMARK  Name = 
REMARK  6 active torsions:
REMARK  status: ('A' for Active; 'I' for Inactive)
REMARK    1  A    between atoms: C_2  and  C_4
REMARK    2  A    between atoms: C_7  and  O_8
REMARK    3  A    between atoms: O_8  and  C_9
REMARK    4  A    between atoms: C_9  and  C_10
REMARK    5  A    between atoms: C_12  and  C_13
REMARK    6  A    between atoms: C_20  and  N_21
REMARK                            x       y       z     vdW  Elec       q    Type
REMARK                         _______ _______ _______ _____ _____    ______ ____
ROOT
ATOM      1  C   UNL     1      44.540   5.099  12.014  0.00  0.00    +0.000 A 
ATOM      2  C   UNL     1      44.805   6.456  11.767  0.00  0.00    +0.000 A 
ATOM      3  C   UNL     1      45.856   7.146  12.403  0.00  0.00    +0.000 A 
ATOM      4  C   UNL     1      46.680   6.416  13.278  0.00  0.00    +0.000 A 
ATOM      5  C   UNL     1      46.424   5.060  13.533  0.00  0.00    +0.000 A 
ATOM      6  C   UNL     1      45.358   4.400  12.905  0.00  0.00    +0.000 A 
ENDROOT
BRANCH   3   7
ATOM      7  C   UNL     1      46.070   8.589  12.178  0.00  0.00    +0.000 A 
ATOM      8  C   UNL     1      47.342   9.164  12.185  0.00  0.00    +0.000 A 
ATOM      9  C   UNL     1      47.477  10.532  11.962  0.00  0.00    +0.000 A 
ATOM     10  C   UNL     1      46.342  11.294  11.731  0.00  0.00    +0.000 A 
ATOM     11  C   UNL     1      45.116  10.653  11.730  0.00  0.00    +0.000 A 
ATOM     12  N   UNL     1      44.956   9.327  11.944  0.00  0.00    +0.000 NA
ENDBRANCH   3   7
BRANCH   5  13
ATOM     13  N   UNL     1      47.265   4.326  14.487  0.00  0.00    +0.000 N 
ATOM     14  O   UNL     1      47.347   3.096  14.365  0.00  0.00    +0.000 OA
ATOM     15  O   UNL     1      47.853   4.984  15.359  0.00  0.00    +0.000 OA
ENDBRANCH   5  13
BRANCH   1  16
ATOM     16  C   UNL     1      43.395   4.420  11.304  0.00  0.00    +0.000 C 
BRANCH  16  17
ATOM     17  O   UNL     1      43.544   4.607   9.896  0.00  0.00    +0.000 OA
BRANCH  17  21
ATOM     18  C   UNL     1      46.337   2.298   7.826  0.00  0.00    +0.000 A 
ATOM     19  C   UNL     1      45.474   1.660   8.723  0.00  0.00    +0.000 A 
ATOM     20  C   UNL     1      44.528   2.402   9.437  0.00  0.00    +0.000 A 
ATOM     21  C   UNL     1      44.438   3.785   9.265  0.00  0.00    +0.000 A 
ATOM     22  C   UNL     1      45.319   4.423   8.387  0.00  0.00    +0.000 A 
ATOM     23  C   UNL     1      46.271   3.685   7.673  0.00  0.00    +0.000 A 
BRANCH  18  25
ATOM     24  N   UNL     1      48.428   2.220   6.590  0.00  0.00    +0.000 N 
ATOM     25  C   UNL     1      47.336   1.531   7.040  0.00  0.00    +0.000 C 
ATOM     26  O   UNL     1      47.213   0.332   6.836  0.00  0.00    +0.000 OA
ATOM     27  H   UNL     1      49.157   1.670   6.154  0.00  0.00    +0.000 HD
ATOM     28  H   UNL     1      48.686   3.125   6.957  0.00  0.00    +0.000 HD
ENDBRANCH  18  25
ENDBRANCH  17  21
ENDBRANCH  16  17
ENDBRANCH   1  16
TORSDOF 6
ENDMDL
MODEL 2
REMARK VINA RESULT:    -9.139      0.226      1.146
REMARK INTER + INTRA:         -13.559
REMARK INTER:                 -12.384
REMARK INTRA:                  -1.175
REMARK UNBOUND:                -1.214
REMARK  Name = 
REMARK  6 active torsions:
REMARK  status: ('A' for Active; 'I' for Inactive)
REMARK    1  A    between atoms: C_2  and  C_4
REMARK    2  A    between atoms: C_7  and  O_8
REMARK    3  A    between atoms: O_8  and  C_9
REMARK    4  A    between atoms: C_9  and  C_10
REMARK    5  A    between atoms: C_12  and  C_13
REMARK    6  A    between atoms: C_20  and  N_21
REMARK                            x       y       z     vdW  Elec       q    Type
REMARK                         _______ _______ _______ _____ _____    ______ ____
ROOT
ATOM      1  C   UNL     1      44.658   4.938  12.074  0.00  0.00    +0.000 A 
ATOM      2  C   UNL     1      44.956   6.284  11.804  0.00  0.00    +0.000 A 
ATOM      3  C   UNL     1      46.008   6.966  12.446  0.00  0.00    +0.000 A 
ATOM      4  C   UNL     1      46.798   6.239  13.354  0.00  0.00    +0.000 A 
ATOM      5  C   UNL     1      46.508   4.895  13.633  0.00  0.00    +0.000 A 
ATOM      6  C   UNL     1      45.442   4.243  12.997  0.00  0.00    +0.000 A 
ENDROOT
BRANCH   3   7
ATOM      7  C   UNL     1      46.257   8.399  12.194  0.00  0.00    +0.000 A 
ATOM      8  C   UNL     1      47.544   8.939  12.165  0.00  0.00    +0.000 A 
ATOM      9  C   UNL     1      47.712  10.299  11.919  0.00  0.00    +0.000 A 
ATOM     10  C   UNL     1      46.594  11.089  11.700  0.00  0.00    +0.000 A 
ATOM     11  C   UNL     1      45.351  10.482  11.734  0.00  0.00    +0.000 A 
ATOM     12  N   UNL     1      45.158   9.164  11.973  0.00  0.00    +0.000 NA
ENDBRANCH   3   7
BRANCH   5  13
ATOM     13  N   UNL     1      47.314   4.165  14.620  0.00  0.00    +0.000 N 
ATOM     14  O   UNL     1      47.814   4.808  15.554  0.00  0.00    +0.000 OA
ATOM     15  O   UNL     1      47.441   2.940  14.466  0.00  0.00    +0.000 OA
ENDBRANCH   5  13
BRANCH   1  16
ATOM     16  C   UNL     1      43.513   4.268  11.355  0.00  0.00    +0.000 C 
BRANCH  16  17
ATOM     17  O   UNL     1      43.588   4.585   9.964  0.00  0.00    +0.000 OA
BRANCH  17  21
ATOM     18  C   UNL     1      46.359   2.278   7.863  0.00  0.00    +0.000 A 
ATOM     19  C   UNL     1      46.378   3.666   7.694  0.00  0.00    +0.000 A 
ATOM     20  C   UNL     1      45.463   4.470   8.379  0.00  0.00    +0.000 A 
ATOM     21  C   UNL     1      44.519   3.897   9.234  0.00  0.00    +0.000 A 
ATOM     22  C   UNL     1      44.485   2.508   9.380  0.00  0.00    +0.000 A 
ATOM     23  C   UNL     1      45.397   1.697   8.694  0.00  0.00    +0.000 A 
BRANCH  18  25
ATOM     24  N   UNL     1      48.379   2.021   6.536  0.00  0.00    +0.000 N 
ATOM     25  C   UNL     1      47.333   1.403   7.164  0.00  0.00    +0.000 C 
ATOM     26  O   UNL     1      47.230   0.184   7.178  0.00  0.00    +0.000 OA
ATOM     27  H   UNL     1      49.097   1.414   6.159  0.00  0.00    +0.000 HD
ATOM     28  H   UNL     1      48.633   2.980   6.725  0.00  0.00    +0.000 HD
ENDBRANCH  18  25
ENDBRANCH  17  21
ENDBRANCH  16  17
ENDBRANCH   1  16
TORSDOF 6
ENDMDL
MODEL 3
REMARK VINA RESULT:    -8.943      1.048      1.623
REMARK INTER + INTRA:         -13.294
REMARK INTER:                 -12.338
REMARK INTRA:                  -0.957
REMARK UNBOUND:                -1.214
REMARK  Name = 
REMARK  6 active torsions:
REMARK  status: ('A' for Active; 'I' for Inactive)
REMARK    1  A    between atoms: C_2  and  C_4
REMARK    2  A    between atoms: C_7  and  O_8
REMARK    3  A    between atoms: O_8  and  C_9
REMARK    4  A    between atoms: C_9  and  C_10
REMARK    5  A    between atoms: C_12  and  C_13
REMARK    6  A    between atoms: C_20  and  N_21
REMARK                            x       y       z     vdW  Elec       q    Type
REMARK                         _______ _______ _______ _____ _____    ______ ____
ROOT
ATOM      1  C   UNL     1      44.918   5.349  11.820  0.00  0.00    +0.000 A 
ATOM      2  C   UNL     1      45.636   6.527  11.560  0.00  0.00    +0.000 A 
ATOM      3  C   UNL     1      46.779   6.892  12.298  0.00  0.00    +0.000 A 
ATOM      4  C   UNL     1      47.218   6.006  13.299  0.00  0.00    +0.000 A 
ATOM      5  C   UNL     1      46.508   4.827  13.568  0.00  0.00    +0.000 A 
ATOM      6  C   UNL     1      45.361   4.496  12.834  0.00  0.00    +0.000 A 
ENDROOT
BRANCH   3   7
ATOM      7  C   UNL     1      47.475   8.170  12.050  0.00  0.00    +0.000 A 
ATOM      8  C   UNL     1      48.835   8.230  11.739  0.00  0.00    +0.000 A 
ATOM      9  C   UNL     1      49.432   9.466  11.511  0.00  0.00    +0.000 A 
ATOM     10  C   UNL     1      48.659  10.615  11.592  0.00  0.00    +0.000 A 
ATOM     11  C   UNL     1      47.317  10.477  11.895  0.00  0.00    +0.000 A 
ATOM     12  N   UNL     1      46.711   9.288  12.123  0.00  0.00    +0.000 NA
ENDBRANCH   3   7
BRANCH   5  13
ATOM     13  N   UNL     1      46.954   3.938  14.649  0.00  0.00    +0.000 N 
ATOM     14  O   UNL     1      46.714   4.275  15.817  0.00  0.00    +0.000 OA
ATOM     15  O   UNL     1      47.540   2.893  14.328  0.00  0.00    +0.000 OA
ENDBRANCH   5  13
BRANCH   1  16
ATOM     16  C   UNL     1      43.698   5.019  10.996  0.00  0.00    +0.000 C 
BRANCH  16  17
ATOM     17  O   UNL     1      43.790   3.665  10.550  0.00  0.00    +0.000 OA
BRANCH  17  21
ATOM     18  C   UNL     1      46.471   2.685   7.506  0.00  0.00    +0.000 A 
ATOM     19  C   UNL     1      46.058   4.015   7.631  0.00  0.00    +0.000 A 
ATOM     20  C   UNL     1      45.158   4.380   8.636  0.00  0.00    +0.000 A 
ATOM     21  C   UNL     1      44.660   3.421   9.522  0.00  0.00    +0.000 A 
ATOM     22  C   UNL     1      45.054   2.088   9.378  0.00  0.00    +0.000 A 
ATOM     23  C   UNL     1      45.952   1.716   8.370  0.00  0.00    +0.000 A 
BRANCH  18  25
ATOM     24  N   UNL     1      47.417   2.974   5.285  0.00  0.00    +0.000 N 
ATOM     25  C   UNL     1      47.441   2.274   6.460  0.00  0.00    +0.000 C 
ATOM     26  O   UNL     1      48.252   1.379   6.649  0.00  0.00    +0.000 OA
ATOM     27  H   UNL     1      48.152   2.764   4.623  0.00  0.00    +0.000 HD
ATOM     28  H   UNL     1      46.953   3.868   5.198  0.00  0.00    +0.000 HD
ENDBRANCH  18  25
ENDBRANCH  17  21
ENDBRANCH  16  17
ENDBRANCH   1  16
TORSDOF 6
ENDMDL
MODEL 4
REMARK VINA RESULT:    -8.678      2.364      4.582
REMARK INTER + INTRA:         -12.937
REMARK INTER:                 -12.001
REMARK INTRA:                  -0.936
REMARK UNBOUND:                -1.214
REMARK  Name = 
REMARK  6 active torsions:
REMARK  status: ('A' for Active; 'I' for Inactive)
REMARK    1  A    between atoms: C_2  and  C_4
REMARK    2  A    between atoms: C_7  and  O_8
REMARK    3  A    between atoms: O_8  and  C_9
REMARK    4  A    between atoms: C_9  and  C_10
REMARK    5  A    between atoms: C_12  and  C_13
REMARK    6  A    between atoms: C_20  and  N_21
REMARK                            x       y       z     vdW  Elec       q    Type
REMARK                         _______ _______ _______ _____ _____    ______ ____
ROOT
ATOM      1  C   UNL     1      45.105   4.807  12.316  0.00  0.00    +0.000 A 
ATOM      2  C   UNL     1      45.617   4.232  13.490  0.00  0.00    +0.000 A 
ATOM      3  C   UNL     1      46.699   4.796  14.196  0.00  0.00    +0.000 A 
ATOM      4  C   UNL     1      47.238   6.000  13.709  0.00  0.00    +0.000 A 
ATOM      5  C   UNL     1      46.735   6.583  12.537  0.00  0.00    +0.000 A 
ATOM      6  C   UNL     1      45.672   5.992  11.839  0.00  0.00    +0.000 A 
ENDROOT
BRANCH   3   7
ATOM      7  C   UNL     1      47.263   4.133  15.388  0.00  0.00    +0.000 A 
ATOM      8  C   UNL     1      47.151   4.680  16.668  0.00  0.00    +0.000 A 
ATOM      9  C   UNL     1      47.702   4.004  17.753  0.00  0.00    +0.000 A 
ATOM     10  C   UNL     1      48.344   2.794  17.539  0.00  0.00    +0.000 A 
ATOM     11  C   UNL     1      48.407   2.309  16.246  0.00  0.00    +0.000 A 
ATOM     12  N   UNL     1      47.883   2.946  15.173  0.00  0.00    +0.000 NA
ENDBRANCH   3   7
BRANCH   5  13
ATOM     13  N   UNL     1      47.342   7.815  12.016  0.00  0.00    +0.000 N 
ATOM     14  O   UNL     1      48.491   7.749  11.557  0.00  0.00    +0.000 OA
ATOM     15  O   UNL     1      46.663   8.852  12.058  0.00  0.00    +0.000 OA
ENDBRANCH   5  13
BRANCH   1  16
ATOM     16  C   UNL     1      43.948   4.150  11.605  0.00  0.00    +0.000 C 
BRANCH  16  17
ATOM     17  O   UNL     1      43.940   4.575  10.241  0.00  0.00    +0.000 OA
BRANCH  17  21
ATOM     18  C   UNL     1      46.385   2.275   7.762  0.00  0.00    +0.000 A 
ATOM     19  C   UNL     1      46.414   3.666   7.626  0.00  0.00    +0.000 A 
ATOM     20  C   UNL     1      45.606   4.469   8.436  0.00  0.00    +0.000 A 
ATOM     21  C   UNL     1      44.760   3.890   9.385  0.00  0.00    +0.000 A 
ATOM     22  C   UNL     1      44.714   2.498   9.501  0.00  0.00    +0.000 A 
ATOM     23  C   UNL     1      45.518   1.689   8.689  0.00  0.00    +0.000 A 
BRANCH  18  25
ATOM     24  N   UNL     1      48.318   1.993   6.315  0.00  0.00    +0.000 N 
ATOM     25  C   UNL     1      47.248   1.401   6.928  0.00  0.00    +0.000 C 
ATOM     26  O   UNL     1      47.039   0.201   6.822  0.00  0.00    +0.000 OA
ATOM     27  H   UNL     1      48.963   1.372   5.842  0.00  0.00    +0.000 HD
ATOM     28  H   UNL     1      48.664   2.902   6.589  0.00  0.00    +0.000 HD
ENDBRANCH  18  25
ENDBRANCH  17  21
ENDBRANCH  16  17
ENDBRANCH   1  16
TORSDOF 6
ENDMDL
MODEL 5
REMARK VINA RESULT:    -7.840      2.269      3.780
REMARK INTER + INTRA:         -11.804
REMARK INTER:                 -10.833
REMARK INTRA:                  -0.971
REMARK UNBOUND:                -1.214
REMARK  Name = 
REMARK  6 active torsions:
REMARK  status: ('A' for Active; 'I' for Inactive)
REMARK    1  A    between atoms: C_2  and  C_4
REMARK    2  A    between atoms: C_7  and  O_8
REMARK    3  A    between atoms: O_8  and  C_9
REMARK    4  A    between atoms: C_9  and  C_10
REMARK    5  A    between atoms: C_12  and  C_13
REMARK    6  A    between atoms: C_20  and  N_21
REMARK                            x       y       z     vdW  Elec       q    Type
REMARK                         _______ _______ _______ _____ _____    ______ ____
ROOT
ATOM      1  C   UNL     1      44.870   6.160  11.853  0.00  0.00    +0.000 A 
ATOM      2  C   UNL     1      46.092   6.235  12.539  0.00  0.00    +0.000 A 
ATOM      3  C   UNL     1      46.728   7.462  12.815  0.00  0.00    +0.000 A 
ATOM      4  C   UNL     1      46.073   8.640  12.414  0.00  0.00    +0.000 A 
ATOM      5  C   UNL     1      44.851   8.577  11.726  0.00  0.00    +0.000 A 
ATOM      6  C   UNL     1      44.249   7.343  11.444  0.00  0.00    +0.000 A 
ENDROOT
BRANCH   3   7
ATOM      7  C   UNL     1      48.047   7.509  13.477  0.00  0.00    +0.000 A 
ATOM      8  C   UNL     1      49.113   8.250  12.963  0.00  0.00    +0.000 A 
ATOM      9  C   UNL     1      50.331   8.257  13.637  0.00  0.00    +0.000 A 
ATOM     10  C   UNL     1      50.457   7.531  14.812  0.00  0.00    +0.000 A 
ATOM     11  C   UNL     1      49.354   6.829  15.265  0.00  0.00    +0.000 A 
ATOM     12  N   UNL     1      48.160   6.804  14.630  0.00  0.00    +0.000 NA
ENDBRANCH   3   7
BRANCH   5  13
ATOM     13  N   UNL     1      44.205   9.815  11.273  0.00  0.00    +0.000 N 
ATOM     14  O   UNL     1      43.935  10.676  12.122  0.00  0.00    +0.000 OA
ATOM     15  O   UNL     1      43.974   9.931  10.059  0.00  0.00    +0.000 OA
ENDBRANCH   5  13
BRANCH   1  16
ATOM     16  C   UNL     1      44.245   4.813  11.584  0.00  0.00    +0.000 C 
BRANCH  16  17
ATOM     17  O   UNL     1      43.929   4.716  10.194  0.00  0.00    +0.000 OA
BRANCH  17  21
ATOM     18  C   UNL     1      46.486   2.493   7.758  0.00  0.00    +0.000 A 
ATOM     19  C   UNL     1      45.665   1.814   8.664  0.00  0.00    +0.000 A 
ATOM     20  C   UNL     1      44.799   2.525   9.499  0.00  0.00    +0.000 A 
ATOM     21  C   UNL     1      44.747   3.919   9.440  0.00  0.00    +0.000 A 
ATOM     22  C   UNL     1      45.586   4.597   8.552  0.00  0.00    +0.000 A 
ATOM     23  C   UNL     1      46.460   3.890   7.717  0.00  0.00    +0.000 A 
BRANCH  18  25
ATOM     24  N   UNL     1      48.465   2.459   6.347  0.00  0.00    +0.000 N 
ATOM     25  C   UNL     1      47.400   1.760   6.847  0.00  0.00    +0.000 C 
ATOM     26  O   UNL     1      47.235   0.578   6.582  0.00  0.00    +0.000 OA
ATOM     27  H   UNL     1      49.143   1.924   5.819  0.00  0.00    +0.000 HD
ATOM     28  H   UNL     1      48.771   3.335   6.746  0.00  0.00    +0.000 HD
ENDBRANCH  18  25
ENDBRANCH  17  21
ENDBRANCH  16  17
ENDBRANCH   1  16
TORSDOF 6
ENDMDL
MODEL 6
REMARK VINA RESULT:    -7.201      2.884      7.013
REMARK INTER + INTRA:         -10.940
REMARK INTER:                  -9.916
REMARK INTRA:                  -1.025
REMARK UNBOUND:                -1.214
REMARK  Name = 
REMARK  6 active torsions:
REMARK  status: ('A' for Active; 'I' for Inactive)
REMARK    1  A    between atoms: C_2  and  C_4
REMARK    2  A    between atoms: C_7  and  O_8
REMARK    3  A    between atoms: O_8  and  C_9
REMARK    4  A    between atoms: C_9  and  C_10
REMARK    5  A    between atoms: C_12  and  C_13
REMARK    6  A    between atoms: C_20  and  N_21
REMARK                            x       y       z     vdW  Elec       q    Type
REMARK                         _______ _______ _______ _____ _____    ______ ____
ROOT
ATOM      1  C   UNL     1      44.996   5.715  10.690  0.00  0.00    +0.000 A 
ATOM      2  C   UNL     1      45.561   5.159   9.531  0.00  0.00    +0.000 A 
ATOM      3  C   UNL     1      45.442   3.790   9.216  0.00  0.00    +0.000 A 
ATOM      4  C   UNL     1      44.692   2.984  10.091  0.00  0.00    +0.000 A 
ATOM      5  C   UNL     1      44.125   3.528  11.253  0.00  0.00    +0.000 A 
ATOM      6  C   UNL     1      44.275   4.888  11.555  0.00  0.00    +0.000 A 
ENDROOT
BRANCH   3   7
ATOM      7  C   UNL     1      46.103   3.218   8.027  0.00  0.00    +0.000 A 
ATOM      8  C   UNL     1      46.472   1.873   7.953  0.00  0.00    +0.000 A 
ATOM      9  C   UNL     1      47.089   1.394   6.802  0.00  0.00    +0.000 A 
ATOM     10  C   UNL     1      47.319   2.264   5.746  0.00  0.00    +0.000 A 
ATOM     11  C   UNL     1      46.918   3.580   5.888  0.00  0.00    +0.000 A 
ATOM     12  N   UNL     1      46.317   4.073   6.996  0.00  0.00    +0.000 NA
ENDBRANCH   3   7
BRANCH   5  13
ATOM     13  N   UNL     1      43.386   2.661  12.179  0.00  0.00    +0.000 N 
ATOM     14  O   UNL     1      42.818   1.662  11.714  0.00  0.00    +0.000 OA
ATOM     15  O   UNL     1      43.379   2.975  13.379  0.00  0.00    +0.000 OA
ENDBRANCH   5  13
BRANCH   1  16
ATOM     16  C   UNL     1      45.165   7.187  10.971  0.00  0.00    +0.000 C 
BRANCH  16  17
ATOM     17  O   UNL     1      45.727   7.351  12.275  0.00  0.00    +0.000 OA
BRANCH  17  21
ATOM     18  C   UNL     1      49.785   8.320  12.352  0.00  0.00    +0.000 A 
ATOM     19  C   UNL     1      49.406   7.003  12.630  0.00  0.00    +0.000 A 
ATOM     20  C   UNL     1      48.055   6.642  12.617  0.00  0.00    +0.000 A 
ATOM     21  C   UNL     1      47.072   7.592  12.331  0.00  0.00    +0.000 A 
ATOM     22  C   UNL     1      47.452   8.913  12.079  0.00  0.00    +0.000 A 
ATOM     23  C   UNL     1      48.803   9.281  12.095  0.00  0.00    +0.000 A 
BRANCH  18  25
ATOM     24  N   UNL     1      52.041   8.098  13.230  0.00  0.00    +0.000 N 
ATOM     25  C   UNL     1      51.213   8.725  12.339  0.00  0.00    +0.000 C 
ATOM     26  O   UNL     1      51.642   9.551  11.547  0.00  0.00    +0.000 OA
ATOM     27  H   UNL     1      53.029   8.297  13.139  0.00  0.00    +0.000 HD
ATOM     28  H   UNL     1      51.779   7.244  13.702  0.00  0.00    +0.000 HD
ENDBRANCH  18  25
ENDBRANCH  17  21
ENDBRANCH  16  17
ENDBRANCH   1  16
TORSDOF 6
ENDMDL
MODEL 7
REMARK VINA RESULT:    -7.171      1.617      2.308
REMARK INTER + INTRA:         -10.900
REMARK INTER:                  -9.865
REMARK INTRA:                  -1.036
REMARK UNBOUND:                -1.214
REMARK  Name = 
REMARK  6 active torsions:
REMARK  status: ('A' for Active; 'I' for Inactive)
REMARK    1  A    between atoms: C_2  and  C_4
REMARK    2  A    between atoms: C_7  and  O_8
REMARK    3  A    between atoms: O_8  and  C_9
REMARK    4  A    between atoms: C_9  and  C_10
REMARK    5  A    between atoms: C_12  and  C_13
REMARK    6  A    between atoms: C_20  and  N_21
REMARK                            x       y       z     vdW  Elec       q    Type
REMARK                         _______ _______ _______ _____ _____    ______ ____
ROOT
ATOM      1  C   UNL     1      44.947   5.569  12.206  0.00  0.00    +0.000 A 
ATOM      2  C   UNL     1      44.393   6.730  11.642  0.00  0.00    +0.000 A 
ATOM      3  C   UNL     1      45.014   7.990  11.749  0.00  0.00    +0.000 A 
ATOM      4  C   UNL     1      46.252   8.052  12.414  0.00  0.00    +0.000 A 
ATOM      5  C   UNL     1      46.813   6.899  12.983  0.00  0.00    +0.000 A 
ATOM      6  C   UNL     1      46.166   5.660  12.882  0.00  0.00    +0.000 A 
ENDROOT
BRANCH   3   7
ATOM      7  C   UNL     1      44.377   9.206  11.207  0.00  0.00    +0.000 A 
ATOM      8  C   UNL     1      45.074  10.405  11.047  0.00  0.00    +0.000 A 
ATOM      9  C   UNL     1      44.417  11.516  10.526  0.00  0.00    +0.000 A 
ATOM     10  C   UNL     1      43.081  11.405  10.170  0.00  0.00    +0.000 A 
ATOM     11  C   UNL     1      42.459  10.183  10.348  0.00  0.00    +0.000 A 
ATOM     12  N   UNL     1      43.072   9.087  10.853  0.00  0.00    +0.000 NA
ENDBRANCH   3   7
BRANCH   5  13
ATOM     13  N   UNL     1      48.083   6.991  13.715  0.00  0.00    +0.000 N 
ATOM     14  O   UNL     1      48.145   7.767  14.678  0.00  0.00    +0.000 OA
ATOM     15  O   UNL     1      49.022   6.277  13.330  0.00  0.00    +0.000 OA
ENDBRANCH   5  13
BRANCH   1  16
ATOM     16  C   UNL     1      44.227   4.251  12.060  0.00  0.00    +0.000 C 
BRANCH  16  17
ATOM     17  O   UNL     1      43.671   4.168  10.747  0.00  0.00    +0.000 OA
BRANCH  17  21
ATOM     18  C   UNL     1      46.157   2.458   7.864  0.00  0.00    +0.000 A 
ATOM     19  C   UNL     1      46.042   3.850   7.907  0.00  0.00    +0.000 A 
ATOM     20  C   UNL     1      45.215   4.459   8.856  0.00  0.00    +0.000 A 
ATOM     21  C   UNL     1      44.495   3.683   9.767  0.00  0.00    +0.000 A 
ATOM     22  C   UNL     1      44.592   2.290   9.705  0.00  0.00    +0.000 A 
ATOM     23  C   UNL     1      45.415   1.675   8.753  0.00  0.00    +0.000 A 
BRANCH  18  25
ATOM     24  N   UNL     1      47.113   0.423   6.940  0.00  0.00    +0.000 N 
ATOM     25  C   UNL     1      47.043   1.787   6.879  0.00  0.00    +0.000 C 
ATOM     26  O   UNL     1      47.653   2.418   6.027  0.00  0.00    +0.000 OA
ATOM     27  H   UNL     1      47.628  -0.033   6.197  0.00  0.00    +0.000 HD
ATOM     28  H   UNL     1      46.436  -0.132   7.444  0.00  0.00    +0.000 HD
ENDBRANCH  18  25
ENDBRANCH  17  21
ENDBRANCH  16  17
ENDBRANCH   1  16
TORSDOF 6
ENDMDL
MODEL 8
REMARK VINA RESULT:    -7.083      2.858      7.227
REMARK INTER + INTRA:         -10.782
REMARK INTER:                  -9.747
REMARK INTRA:                  -1.036
REMARK UNBOUND:                -1.214
REMARK  Name = 
REMARK  6 active torsions:
REMARK  status: ('A' for Active; 'I' for Inactive)
REMARK    1  A    between atoms: C_2  and  C_4
REMARK    2  A    between atoms: C_7  and  O_8
REMARK    3  A    between atoms: O_8  and  C_9
REMARK    4  A    between atoms: C_9  and  C_10
REMARK    5  A    between atoms: C_12  and  C_13
REMARK    6  A    between atoms: C_20  and  N_21
REMARK                            x       y       z     vdW  Elec       q    Type
REMARK                         _______ _______ _______ _____ _____    ______ ____
ROOT
ATOM      1  C   UNL     1      45.062   5.590  10.551  0.00  0.00    +0.000 A 
ATOM      2  C   UNL     1      45.615   4.982   9.412  0.00  0.00    +0.000 A 
ATOM      3  C   UNL     1      45.474   3.605   9.149  0.00  0.00    +0.000 A 
ATOM      4  C   UNL     1      44.712   2.843  10.054  0.00  0.00    +0.000 A 
ATOM      5  C   UNL     1      44.156   3.440  11.195  0.00  0.00    +0.000 A 
ATOM      6  C   UNL     1      44.329   4.808  11.447  0.00  0.00    +0.000 A 
ENDROOT
BRANCH   3   7
ATOM      7  C   UNL     1      46.124   2.978   7.981  0.00  0.00    +0.000 A 
ATOM      8  C   UNL     1      46.363   3.677   6.797  0.00  0.00    +0.000 A 
ATOM      9  C   UNL     1      46.984   3.030   5.732  0.00  0.00    +0.000 A 
ATOM     10  C   UNL     1      47.359   1.703   5.874  0.00  0.00    +0.000 A 
ATOM     11  C   UNL     1      47.099   1.078   7.081  0.00  0.00    +0.000 A 
ATOM     12  N   UNL     1      46.496   1.682   8.131  0.00  0.00    +0.000 NA
ENDBRANCH   3   7
BRANCH   5  13
ATOM     13  N   UNL     1      43.404   2.620  12.154  0.00  0.00    +0.000 N 
ATOM     14  O   UNL     1      42.800   1.628  11.723  0.00  0.00    +0.000 OA
ATOM     15  O   UNL     1      43.425   2.965  13.345  0.00  0.00    +0.000 OA
ENDBRANCH   5  13
BRANCH   1  16
ATOM     16  C   UNL     1      45.255   7.069  10.776  0.00  0.00    +0.000 C 
BRANCH  16  17
ATOM     17  O   UNL     1      45.416   7.308  12.175  0.00  0.00    +0.000 OA
BRANCH  17  21
ATOM     18  C   UNL     1      49.279   7.544  13.736  0.00  0.00    +0.000 A 
ATOM     19  C   UNL     1      48.926   8.403  12.691  0.00  0.00    +0.000 A 
ATOM     20  C   UNL     1      47.643   8.349  12.140  0.00  0.00    +0.000 A 
ATOM     21  C   UNL     1      46.702   7.438  12.625  0.00  0.00    +0.000 A 
ATOM     22  C   UNL     1      47.066   6.564  13.653  0.00  0.00    +0.000 A 
ATOM     23  C   UNL     1      48.352   6.609  14.205  0.00  0.00    +0.000 A 
BRANCH  18  25
ATOM     24  N   UNL     1      51.625   8.171  13.613  0.00  0.00    +0.000 N 
ATOM     25  C   UNL     1      50.629   7.594  14.352  0.00  0.00    +0.000 C 
ATOM     26  O   UNL     1      50.838   7.175  15.482  0.00  0.00    +0.000 OA
ATOM     27  H   UNL     1      52.512   8.302  14.082  0.00  0.00    +0.000 HD
ATOM     28  H   UNL     1      51.434   8.750  12.808  0.00  0.00    +0.000 HD
ENDBRANCH  18  25
ENDBRANCH  17  21
ENDBRANCH  16  17
ENDBRANCH   1  16
TORSDOF 6
ENDMDL
MODEL 9
REMARK VINA RESULT:    -6.520      3.462      6.973
REMARK INTER + INTRA:         -10.021
REMARK INTER:                  -9.113
REMARK INTRA:                  -0.908
REMARK UNBOUND:                -1.214
REMARK  Name = 
REMARK  6 active torsions:
REMARK  status: ('A' for Active; 'I' for Inactive)
REMARK    1  A    between atoms: C_2  and  C_4
REMARK    2  A    between atoms: C_7  and  O_8
REMARK    3  A    between atoms: O_8  and  C_9
REMARK    4  A    between atoms: C_9  and  C_10
REMARK    5  A    between atoms: C_12  and  C_13
REMARK    6  A    between atoms: C_20  and  N_21
REMARK                            x       y       z     vdW  Elec       q    Type
REMARK                         _______ _______ _______ _____ _____    ______ ____
ROOT
ATOM      1  C   UNL     1      46.321   4.607  13.243  0.00  0.00    +0.000 A 
ATOM      2  C   UNL     1      46.998   5.830  13.100  0.00  0.00    +0.000 A 
ATOM      3  C   UNL     1      46.507   6.873  12.290  0.00  0.00    +0.000 A 
ATOM      4  C   UNL     1      45.274   6.672  11.645  0.00  0.00    +0.000 A 
ATOM      5  C   UNL     1      44.590   5.454  11.779  0.00  0.00    +0.000 A 
ATOM      6  C   UNL     1      45.109   4.423  12.573  0.00  0.00    +0.000 A 
ENDROOT
BRANCH   3   7
ATOM      7  C   UNL     1      47.273   8.121  12.103  0.00  0.00    +0.000 A 
ATOM      8  C   UNL     1      48.634   8.121  11.792  0.00  0.00    +0.000 A 
ATOM      9  C   UNL     1      49.298   9.333  11.624  0.00  0.00    +0.000 A 
ATOM     10  C   UNL     1      48.590  10.517  11.764  0.00  0.00    +0.000 A 
ATOM     11  C   UNL     1      47.242  10.438  12.064  0.00  0.00    +0.000 A 
ATOM     12  N   UNL     1      46.571   9.275  12.233  0.00  0.00    +0.000 NA
ENDBRANCH   3   7
BRANCH   5  13
ATOM     13  N   UNL     1      43.327   5.245  11.059  0.00  0.00    +0.000 N 
ATOM     14  O   UNL     1      43.379   4.760   9.921  0.00  0.00    +0.000 OA
ATOM     15  O   UNL     1      42.276   5.558  11.639  0.00  0.00    +0.000 OA
ENDBRANCH   5  13
BRANCH   1  16
ATOM     16  C   UNL     1      46.904   3.528  14.122  0.00  0.00    +0.000 C 
BRANCH  16  17
ATOM     17  O   UNL     1      46.779   3.925  15.489  0.00  0.00    +0.000 OA
BRANCH  17  21
ATOM     18  C   UNL     1      50.256   3.916  17.796  0.00  0.00    +0.000 A 
ATOM     19  C   UNL     1      49.706   2.690  17.410  0.00  0.00    +0.000 A 
ATOM     20  C   UNL     1      48.539   2.654  16.641  0.00  0.00    +0.000 A 
ATOM     21  C   UNL     1      47.911   3.839  16.252  0.00  0.00    +0.000 A 
ATOM     22  C   UNL     1      48.449   5.062  16.661  0.00  0.00    +0.000 A 
ATOM     23  C   UNL     1      49.614   5.105  17.436  0.00  0.00    +0.000 A 
BRANCH  18  25
ATOM     24  N   UNL     1      51.379   4.353  19.907  0.00  0.00    +0.000 N 
ATOM     25  C   UNL     1      51.504   3.983  18.596  0.00  0.00    +0.000 C 
ATOM     26  O   UNL     1      52.591   3.685  18.122  0.00  0.00    +0.000 OA
ATOM     27  H   UNL     1      52.215   4.288  20.473  0.00  0.00    +0.000 HD
ATOM     28  H   UNL     1      50.490   4.347  20.388  0.00  0.00    +0.000 HD
ENDBRANCH  18  25
ENDBRANCH  17  21
ENDBRANCH  16  17
ENDBRANCH   1  16
TORSDOF 6
ENDMDL
