MODEL 1
REMARK VINA RESULT:    -9.420      0.000      0.000
REMARK INTER + INTRA:         -13.887
REMARK INTER:                 -12.724
REMARK INTRA:                  -1.163
REMARK UNBOUND:                -1.163
REMARK  Name = 
REMARK  6 active torsions:
REMARK  status: ('A' for Active; 'I' for Inactive)
REMARK    1  A    between atoms: C_2  and  C_4
REMARK    2  A    between atoms: C_7  and  N_8
REMARK    3  A    between atoms: N_8  and  C_9
REMARK    4  A    between atoms: C_9  and  C_10
REMARK    5  A    between atoms: C_10  and  C_13
REMARK    6  A    between atoms: C_17  and  C_18
REMARK                            x       y       z     vdW  Elec       q    Type
REMARK                         _______ _______ _______ _____ _____    ______ ____
ROOT
ATOM      1  C   UNL     1      43.552   5.355  12.262  0.00  0.00    +0.000 C 
ATOM      2  F   UNL     1      43.048   6.427  11.581  0.00  0.00    +0.000 F 
ATOM      3  F   UNL     1      42.810   5.271  13.408  0.00  0.00    +0.000 F 
ENDROOT
BRANCH   1   4
ATOM      4  C   UNL     1      45.034   5.510  12.541  0.00  0.00    +0.000 A 
ATOM      5  C   UNL     1      45.821   6.380  11.778  0.00  0.00    +0.000 A 
ATOM      6  C   UNL     1      47.160   6.577  12.102  0.00  0.00    +0.000 A 
ATOM      7  C   UNL     1      47.717   5.923  13.204  0.00  0.00    +0.000 A 
ATOM      8  C   UNL     1      46.958   5.046  14.000  0.00  0.00    +0.000 A 
ATOM      9  C   UNL     1      45.616   4.839  13.634  0.00  0.00    +0.000 A 
BRANCH   8  10
ATOM     10  C   UNL     1      47.536   4.428  15.211  0.00  0.00    +0.000 A 
ATOM     11  C   UNL     1      47.947   5.165  16.321  0.00  0.00    +0.000 A 
ATOM     12  C   UNL     1      48.555   4.508  17.391  0.00  0.00    +0.000 A 
ATOM     13  C   UNL     1      48.733   3.134  17.333  0.00  0.00    +0.000 A 
ATOM     14  C   UNL     1      48.287   2.469  16.206  0.00  0.00    +0.000 A 
ATOM     15  N   UNL     1      47.696   3.080  15.156  0.00  0.00    +0.000 NA
ENDBRANCH   8  10
ENDBRANCH   1   4
BRANCH   1  16
ATOM     16  C   UNL     1      43.315   4.066  11.433  0.00  0.00    +0.000 C 
BRANCH  16  17
ATOM     17  N   UNL     1      43.441   4.272   9.982  0.00  0.00    +0.000 N 
ATOM     18  H   UNL     1      42.555   4.264   9.476  0.00  0.00    +0.000 HD
BRANCH  17  22
ATOM     19  C   UNL     1      46.496   2.484   7.691  0.00  0.00    +0.000 A 
ATOM     20  C   UNL     1      46.330   3.871   7.652  0.00  0.00    +0.000 A 
ATOM     21  C   UNL     1      45.334   4.479   8.423  0.00  0.00    +0.000 A 
ATOM     22  C   UNL     1      44.505   3.729   9.270  0.00  0.00    +0.000 A 
ATOM     23  C   UNL     1      44.676   2.338   9.282  0.00  0.00    +0.000 A 
ATOM     24  C   UNL     1      45.655   1.717   8.502  0.00  0.00    +0.000 A 
BRANCH  19  26
ATOM     25  N   UNL     1      48.575   2.545   6.429  0.00  0.00    +0.000 N 
ATOM     26  C   UNL     1      47.513   1.797   6.858  0.00  0.00    +0.000 C 
ATOM     27  O   UNL     1      47.430   0.607   6.589  0.00  0.00    +0.000 OA
ATOM     28  H   UNL     1      49.311   2.043   5.949  0.00  0.00    +0.000 HD
ATOM     29  H   UNL     1      48.801   3.446   6.826  0.00  0.00    +0.000 HD
ENDBRANCH  19  26
ENDBRANCH  17  22
ENDBRANCH  16  17
ENDBRANCH   1  16
TORSDOF 6
ENDMDL
MODEL 2
REMARK VINA RESULT:    -9.062      2.142      3.908
REMARK INTER + INTRA:         -13.403
REMARK INTER:                 -12.261
REMARK INTRA:                  -1.142
REMARK UNBOUND:                -1.163
REMARK  Name = 
REMARK  6 active torsions:
REMARK  status: ('A' for Active; 'I' for Inactive)
REMARK    1  A    between atoms: C_2  and  C_4
REMARK    2  A    between atoms: C_7  and  N_8
REMARK    3  A    between atoms: N_8  and  C_9
REMARK    4  A    between atoms: C_9  and  C_10
REMARK    5  A    between atoms: C_10  and  C_13
REMARK    6  A    between atoms: C_17  and  C_18
REMARK                            x       y       z     vdW  Elec       q    Type
REMARK                         _______ _______ _______ _____ _____    ______ ____
ROOT
ATOM      1  C   UNL     1      43.222   5.029  12.529  0.00  0.00    +0.000 C 
ATOM      2  F   UNL     1      42.416   6.075  12.181  0.00  0.00    +0.000 F 
ATOM      3  F   UNL     1      42.631   4.464  13.626  0.00  0.00    +0.000 F 
ENDROOT
BRANCH   1   4
ATOM      4  C   UNL     1      44.644   5.478  12.803  0.00  0.00    +0.000 A 
ATOM      5  C   UNL     1      45.603   4.576  13.276  0.00  0.00    +0.000 A 
ATOM      6  C   UNL     1      46.924   4.983  13.439  0.00  0.00    +0.000 A 
ATOM      7  C   UNL     1      47.300   6.289  13.112  0.00  0.00    +0.000 A 
ATOM      8  C   UNL     1      46.367   7.224  12.628  0.00  0.00    +0.000 A 
ATOM      9  C   UNL     1      45.033   6.798  12.501  0.00  0.00    +0.000 A 
BRANCH   8  10
ATOM     10  C   UNL     1      46.794   8.573  12.205  0.00  0.00    +0.000 A 
ATOM     11  C   UNL     1      48.132   8.933  12.041  0.00  0.00    +0.000 A 
ATOM     12  C   UNL     1      48.449  10.251  11.715  0.00  0.00    +0.000 A 
ATOM     13  C   UNL     1      47.430  11.178  11.556  0.00  0.00    +0.000 A 
ATOM     14  C   UNL     1      46.127  10.744  11.721  0.00  0.00    +0.000 A 
ATOM     15  N   UNL     1      45.791   9.474  12.035  0.00  0.00    +0.000 NA
ENDBRANCH   8  10
ENDBRANCH   1   4
BRANCH   1  16
ATOM     16  C   UNL     1      43.223   3.982  11.384  0.00  0.00    +0.000 C 
BRANCH  16  17
ATOM     17  N   UNL     1      43.656   4.531  10.090  0.00  0.00    +0.000 N 
ATOM     18  H   UNL     1      42.904   4.929   9.528  0.00  0.00    +0.000 HD
BRANCH  17  22
ATOM     19  C   UNL     1      46.497   2.508   7.720  0.00  0.00    +0.000 A 
ATOM     20  C   UNL     1      46.376   3.896   7.613  0.00  0.00    +0.000 A 
ATOM     21  C   UNL     1      45.452   4.582   8.408  0.00  0.00    +0.000 A 
ATOM     22  C   UNL     1      44.655   3.911   9.345  0.00  0.00    +0.000 A 
ATOM     23  C   UNL     1      44.779   2.518   9.427  0.00  0.00    +0.000 A 
ATOM     24  C   UNL     1      45.685   1.818   8.624  0.00  0.00    +0.000 A 
BRANCH  19  26
ATOM     25  N   UNL     1      48.560   2.390   6.435  0.00  0.00    +0.000 N 
ATOM     26  C   UNL     1      47.436   1.740   6.867  0.00  0.00    +0.000 C 
ATOM     27  O   UNL     1      47.238   0.567   6.583  0.00  0.00    +0.000 OA
ATOM     28  H   UNL     1      49.239   1.826   5.940  0.00  0.00    +0.000 HD
ATOM     29  H   UNL     1      48.875   3.259   6.840  0.00  0.00    +0.000 HD
ENDBRANCH  19  26
ENDBRANCH  17  22
ENDBRANCH  16  17
ENDBRANCH   1  16
TORSDOF 6
ENDMDL
MODEL 3
REMARK VINA RESULT:    -8.561      1.355      1.935
REMARK INTER + INTRA:         -12.727
REMARK INTER:                 -11.620
REMARK INTRA:                  -1.106
REMARK UNBOUND:                -1.163
REMARK  Name = 
REMARK  6 active torsions:
REMARK  status: ('A' for Active; 'I' for Inactive)
REMARK    1  A    between atoms: C_2  and  C_4
REMARK    2  A    between atoms: C_7  and  N_8
REMARK    3  A    between atoms: N_8  and  C_9
REMARK    4  A    between atoms: C_9  and  C_10
REMARK    5  A    between atoms: C_10  and  C_13
REMARK    6  A    between atoms: C_17  and  C_18
REMARK                            x       y       z     vdW  Elec       q    Type
REMARK                         _______ _______ _______ _____ _____    ______ ____
ROOT
ATOM      1  C   UNL     1      44.829   5.264  12.324  0.00  0.00    +0.000 C 
ATOM      2  F   UNL     1      43.973   5.608  13.331  0.00  0.00    +0.000 F 
ATOM      3  F   UNL     1      44.842   3.896  12.311  0.00  0.00    +0.000 F 
ENDROOT
BRANCH   1   4
ATOM      4  C   UNL     1      46.210   5.855  12.530  0.00  0.00    +0.000 A 
ATOM      5  C   UNL     1      46.820   6.618  11.529  0.00  0.00    +0.000 A 
ATOM      6  C   UNL     1      48.049   7.227  11.766  0.00  0.00    +0.000 A 
ATOM      7  C   UNL     1      48.667   7.094  13.012  0.00  0.00    +0.000 A 
ATOM      8  C   UNL     1      48.083   6.341  14.047  0.00  0.00    +0.000 A 
ATOM      9  C   UNL     1      46.856   5.710  13.773  0.00  0.00    +0.000 A 
BRANCH   8  10
ATOM     10  C   UNL     1      48.705   6.280  15.385  0.00  0.00    +0.000 A 
ATOM     11  C   UNL     1      49.549   7.274  15.880  0.00  0.00    +0.000 A 
ATOM     12  C   UNL     1      50.156   7.099  17.124  0.00  0.00    +0.000 A 
ATOM     13  C   UNL     1      49.904   5.942  17.847  0.00  0.00    +0.000 A 
ATOM     14  C   UNL     1      49.045   5.007  17.298  0.00  0.00    +0.000 A 
ATOM     15  N   UNL     1      48.444   5.152  16.097  0.00  0.00    +0.000 NA
ENDBRANCH   8  10
ENDBRANCH   1   4
BRANCH   1  16
ATOM     16  C   UNL     1      44.252   5.758  10.971  0.00  0.00    +0.000 C 
BRANCH  16  17
ATOM     17  N   UNL     1      43.703   4.676  10.140  0.00  0.00    +0.000 N 
ATOM     18  H   UNL     1      42.953   4.144  10.581  0.00  0.00    +0.000 HD
BRANCH  17  22
ATOM     19  C   UNL     1      46.403   2.486   7.753  0.00  0.00    +0.000 A 
ATOM     20  C   UNL     1      45.496   1.803   8.568  0.00  0.00    +0.000 A 
ATOM     21  C   UNL     1      44.582   2.517   9.349  0.00  0.00    +0.000 A 
ATOM     22  C   UNL     1      44.527   3.917   9.314  0.00  0.00    +0.000 A 
ATOM     23  C   UNL     1      45.454   4.585   8.503  0.00  0.00    +0.000 A 
ATOM     24  C   UNL     1      46.386   3.884   7.732  0.00  0.00    +0.000 A 
BRANCH  19  26
ATOM     25  N   UNL     1      48.439   2.512   6.421  0.00  0.00    +0.000 N 
ATOM     26  C   UNL     1      47.415   1.768   6.940  0.00  0.00    +0.000 C 
ATOM     27  O   UNL     1      47.361   0.559   6.764  0.00  0.00    +0.000 OA
ATOM     28  H   UNL     1      49.174   1.995   5.955  0.00  0.00    +0.000 HD
ATOM     29  H   UNL     1      48.649   3.445   6.741  0.00  0.00    +0.000 HD
ENDBRANCH  19  26
ENDBRANCH  17  22
ENDBRANCH  16  17
ENDBRANCH   1  16
TORSDOF 6
ENDMDL
MODEL 4
REMARK VINA RESULT:    -8.522      1.791      3.028
REMARK INTER + INTRA:         -12.675
REMARK INTER:                 -11.476
REMARK INTRA:                  -1.199
REMARK UNBOUND:                -1.163
REMARK  Name = 
REMARK  6 active torsions:
REMARK  status: ('A' for Active; 'I' for Inactive)
REMARK    1  A    between atoms: C_2  and  C_4
REMARK    2  A    between atoms: C_7  and  N_8
REMARK    3  A    between atoms: N_8  and  C_9
REMARK    4  A    between atoms: C_9  and  C_10
REMARK    5  A    between atoms: C_10  and  C_13
REMARK    6  A    between atoms: C_17  and  C_18
REMARK                            x       y       z     vdW  Elec       q    Type
REMARK                         _______ _______ _______ _____ _____    ______ ____
ROOT
ATOM      1  C   UNL     1      43.687   5.766  12.034  0.00  0.00    +0.000 C 
ATOM      2  F   UNL     1      43.752   6.961  11.375  0.00  0.00    +0.000 F 
ATOM      3  F   UNL     1      42.710   5.926  12.978  0.00  0.00    +0.000 F 
ENDROOT
BRANCH   1   4
ATOM      4  C   UNL     1      45.022   5.382  12.640  0.00  0.00    +0.000 A 
ATOM      5  C   UNL     1      45.285   4.061  13.017  0.00  0.00    +0.000 A 
ATOM      6  C   UNL     1      46.545   3.707  13.490  0.00  0.00    +0.000 A 
ATOM      7  C   UNL     1      47.557   4.667  13.570  0.00  0.00    +0.000 A 
ATOM      8  C   UNL     1      47.335   6.004  13.195  0.00  0.00    +0.000 A 
ATOM      9  C   UNL     1      46.045   6.343  12.749  0.00  0.00    +0.000 A 
BRANCH   8  10
ATOM     10  C   UNL     1      48.437   6.987  13.204  0.00  0.00    +0.000 A 
ATOM     11  C   UNL     1      48.644   7.910  12.178  0.00  0.00    +0.000 A 
ATOM     12  C   UNL     1      49.756   8.751  12.230  0.00  0.00    +0.000 A 
ATOM     13  C   UNL     1      50.630   8.658  13.303  0.00  0.00    +0.000 A 
ATOM     14  C   UNL     1      50.352   7.729  14.288  0.00  0.00    +0.000 A 
ATOM     15  N   UNL     1      49.283   6.903  14.264  0.00  0.00    +0.000 NA
ENDBRANCH   8  10
ENDBRANCH   1   4
BRANCH   1  16
ATOM     16  C   UNL     1      43.231   4.662  11.045  0.00  0.00    +0.000 C 
BRANCH  16  17
ATOM     17  N   UNL     1      43.692   4.885   9.666  0.00  0.00    +0.000 N 
ATOM     18  H   UNL     1      42.999   5.314   9.053  0.00  0.00    +0.000 HD
BRANCH  17  22
ATOM     19  C   UNL     1      46.407   2.223   7.843  0.00  0.00    +0.000 A 
ATOM     20  C   UNL     1      45.429   1.723   8.708  0.00  0.00    +0.000 A 
ATOM     21  C   UNL     1      44.510   2.592   9.303  0.00  0.00    +0.000 A 
ATOM     22  C   UNL     1      44.521   3.967   9.029  0.00  0.00    +0.000 A 
ATOM     23  C   UNL     1      45.518   4.452   8.172  0.00  0.00    +0.000 A 
ATOM     24  C   UNL     1      46.454   3.596   7.586  0.00  0.00    +0.000 A 
BRANCH  19  26
ATOM     25  N   UNL     1      48.489   1.947   6.615  0.00  0.00    +0.000 N 
ATOM     26  C   UNL     1      47.425   1.340   7.223  0.00  0.00    +0.000 C 
ATOM     27  O   UNL     1      47.340   0.121   7.277  0.00  0.00    +0.000 OA
ATOM     28  H   UNL     1      49.225   1.335   6.286  0.00  0.00    +0.000 HD
ATOM     29  H   UNL     1      48.716   2.920   6.762  0.00  0.00    +0.000 HD
ENDBRANCH  19  26
ENDBRANCH  17  22
ENDBRANCH  16  17
ENDBRANCH   1  16
TORSDOF 6
ENDMDL
MODEL 5
REMARK VINA RESULT:    -8.025      2.835      7.339
REMARK INTER + INTRA:         -12.003
REMARK INTER:                 -10.943
REMARK INTRA:                  -1.060
REMARK UNBOUND:                -1.163
REMARK  Name = 
REMARK  6 active torsions:
REMARK  status: ('A' for Active; 'I' for Inactive)
REMARK    1  A    between atoms: C_2  and  C_4
REMARK    2  A    between atoms: C_7  and  N_8
REMARK    3  A    between atoms: N_8  and  C_9
REMARK    4  A    between atoms: C_9  and  C_10
REMARK    5  A    between atoms: C_10  and  C_13
REMARK    6  A    between atoms: C_17  and  C_18
REMARK                            x       y       z     vdW  Elec       q    Type
REMARK                         _______ _______ _______ _____ _____    ______ ____
ROOT
ATOM      1  C   UNL     1      45.689   7.601  11.991  0.00  0.00    +0.000 C 
ATOM      2  F   UNL     1      45.309   7.936  13.259  0.00  0.00    +0.000 F 
ATOM      3  F   UNL     1      45.429   8.708  11.230  0.00  0.00    +0.000 F 
ENDROOT
BRANCH   1   4
ATOM      4  C   UNL     1      44.961   6.368  11.490  0.00  0.00    +0.000 A 
ATOM      5  C   UNL     1      43.645   6.104  11.883  0.00  0.00    +0.000 A 
ATOM      6  C   UNL     1      42.961   5.017  11.346  0.00  0.00    +0.000 A 
ATOM      7  C   UNL     1      43.582   4.198  10.399  0.00  0.00    +0.000 A 
ATOM      8  C   UNL     1      44.901   4.434   9.973  0.00  0.00    +0.000 A 
ATOM      9  C   UNL     1      45.582   5.520  10.552  0.00  0.00    +0.000 A 
BRANCH   8  10
ATOM     10  C   UNL     1      45.514   3.614   8.909  0.00  0.00    +0.000 A 
ATOM     11  C   UNL     1      45.590   2.222   8.967  0.00  0.00    +0.000 A 
ATOM     12  C   UNL     1      46.255   1.531   7.955  0.00  0.00    +0.000 A 
ATOM     13  C   UNL     1      46.823   2.240   6.907  0.00  0.00    +0.000 A 
ATOM     14  C   UNL     1      46.696   3.617   6.910  0.00  0.00    +0.000 A 
ATOM     15  N   UNL     1      46.057   4.311   7.876  0.00  0.00    +0.000 NA
ENDBRANCH   8  10
ENDBRANCH   1   4
BRANCH   1  16
ATOM     16  C   UNL     1      47.219   7.343  11.967  0.00  0.00    +0.000 C 
BRANCH  16  17
ATOM     17  N   UNL     1      47.850   7.450  13.291  0.00  0.00    +0.000 N 
ATOM     18  H   UNL     1      48.713   7.993  13.305  0.00  0.00    +0.000 HD
BRANCH  17  22
ATOM     19  C   UNL     1      47.712   4.360  16.157  0.00  0.00    +0.000 A 
ATOM     20  C   UNL     1      47.042   4.199  14.941  0.00  0.00    +0.000 A 
ATOM     21  C   UNL     1      47.097   5.208  13.973  0.00  0.00    +0.000 A 
ATOM     22  C   UNL     1      47.841   6.378  14.179  0.00  0.00    +0.000 A 
ATOM     23  C   UNL     1      48.492   6.528  15.410  0.00  0.00    +0.000 A 
ATOM     24  C   UNL     1      48.430   5.536  16.393  0.00  0.00    +0.000 A 
BRANCH  19  26
ATOM     25  N   UNL     1      48.813   3.031  17.872  0.00  0.00    +0.000 N 
ATOM     26  C   UNL     1      47.646   3.331  17.224  0.00  0.00    +0.000 C 
ATOM     27  O   UNL     1      46.593   2.795  17.539  0.00  0.00    +0.000 OA
ATOM     28  H   UNL     1      48.736   2.404  18.663  0.00  0.00    +0.000 HD
ATOM     29  H   UNL     1      49.634   3.614  17.812  0.00  0.00    +0.000 HD
ENDBRANCH  19  26
ENDBRANCH  17  22
ENDBRANCH  16  17
ENDBRANCH   1  16
TORSDOF 6
ENDMDL
MODEL 6
REMARK VINA RESULT:    -7.825      2.874      3.693
REMARK INTER + INTRA:         -11.732
REMARK INTER:                 -10.751
REMARK INTRA:                  -0.981
REMARK UNBOUND:                -1.163
REMARK  Name = 
REMARK  6 active torsions:
REMARK  status: ('A' for Active; 'I' for Inactive)
REMARK    1  A    between atoms: C_2  and  C_4
REMARK    2  A    between atoms: C_7  and  N_8
REMARK    3  A    between atoms: N_8  and  C_9
REMARK    4  A    between atoms: C_9  and  C_10
REMARK    5  A    between atoms: C_10  and  C_13
REMARK    6  A    between atoms: C_17  and  C_18
REMARK                            x       y       z     vdW  Elec       q    Type
REMARK                         _______ _______ _______ _____ _____    ______ ____
ROOT
ATOM      1  C   UNL     1      44.958   5.517  12.214  0.00  0.00    +0.000 C 
ATOM      2  F   UNL     1      44.264   5.386  13.383  0.00  0.00    +0.000 F 
ATOM      3  F   UNL     1      45.836   4.469  12.194  0.00  0.00    +0.000 F 
ENDROOT
BRANCH   1   4
ATOM      4  C   UNL     1      45.655   6.860  12.118  0.00  0.00    +0.000 A 
ATOM      5  C   UNL     1      44.918   8.046  12.025  0.00  0.00    +0.000 A 
ATOM      6  C   UNL     1      45.570   9.275  12.027  0.00  0.00    +0.000 A 
ATOM      7  C   UNL     1      46.962   9.329  12.140  0.00  0.00    +0.000 A 
ATOM      8  C   UNL     1      47.738   8.161  12.241  0.00  0.00    +0.000 A 
ATOM      9  C   UNL     1      47.058   6.930  12.207  0.00  0.00    +0.000 A 
BRANCH   8  10
ATOM     10  C   UNL     1      49.198   8.235  12.447  0.00  0.00    +0.000 A 
ATOM     11  C   UNL     1      49.781   8.517  13.683  0.00  0.00    +0.000 A 
ATOM     12  C   UNL     1      51.167   8.645  13.771  0.00  0.00    +0.000 A 
ATOM     13  C   UNL     1      51.940   8.485  12.630  0.00  0.00    +0.000 A 
ATOM     14  C   UNL     1      51.293   8.194  11.444  0.00  0.00    +0.000 A 
ATOM     15  N   UNL     1      49.953   8.063  11.330  0.00  0.00    +0.000 NA
ENDBRANCH   8  10
ENDBRANCH   1   4
BRANCH   1  16
ATOM     16  C   UNL     1      43.981   5.356  11.020  0.00  0.00    +0.000 C 
BRANCH  16  17
ATOM     17  N   UNL     1      43.872   3.971  10.537  0.00  0.00    +0.000 N 
ATOM     18  H   UNL     1      43.690   3.282  11.267  0.00  0.00    +0.000 HD
BRANCH  17  22
ATOM     19  C   UNL     1      46.521   2.693   7.515  0.00  0.00    +0.000 A 
ATOM     20  C   UNL     1      45.905   1.744   8.336  0.00  0.00    +0.000 A 
ATOM     21  C   UNL     1      45.009   2.153   9.328  0.00  0.00    +0.000 A 
ATOM     22  C   UNL     1      44.681   3.504   9.506  0.00  0.00    +0.000 A 
ATOM     23  C   UNL     1      45.321   4.442   8.684  0.00  0.00    +0.000 A 
ATOM     24  C   UNL     1      46.233   4.048   7.701  0.00  0.00    +0.000 A 
BRANCH  19  26
ATOM     25  N   UNL     1      47.449   2.967   5.283  0.00  0.00    +0.000 N 
ATOM     26  C   UNL     1      47.508   2.304   6.478  0.00  0.00    +0.000 C 
ATOM     27  O   UNL     1      48.359   1.451   6.686  0.00  0.00    +0.000 OA
ATOM     28  H   UNL     1      48.189   2.764   4.623  0.00  0.00    +0.000 HD
ATOM     29  H   UNL     1      46.934   3.826   5.163  0.00  0.00    +0.000 HD
ENDBRANCH  19  26
ENDBRANCH  17  22
ENDBRANCH  16  17
ENDBRANCH   1  16
TORSDOF 6
ENDMDL
MODEL 7
REMARK VINA RESULT:    -7.532      2.980      7.598
REMARK INTER + INTRA:         -11.337
REMARK INTER:                 -10.408
REMARK INTRA:                  -0.929
REMARK UNBOUND:                -1.163
REMARK  Name = 
REMARK  6 active torsions:
REMARK  status: ('A' for Active; 'I' for Inactive)
REMARK    1  A    between atoms: C_2  and  C_4
REMARK    2  A    between atoms: C_7  and  N_8
REMARK    3  A    between atoms: N_8  and  C_9
REMARK    4  A    between atoms: C_9  and  C_10
REMARK    5  A    between atoms: C_10  and  C_13
REMARK    6  A    between atoms: C_17  and  C_18
REMARK                            x       y       z     vdW  Elec       q    Type
REMARK                         _______ _______ _______ _____ _____    ______ ____
ROOT
ATOM      1  C   UNL     1      44.703   6.544  11.446  0.00  0.00    +0.000 C 
ATOM      2  F   UNL     1      43.503   7.196  11.412  0.00  0.00    +0.000 F 
ATOM      3  F   UNL     1      45.517   7.238  10.593  0.00  0.00    +0.000 F 
ENDROOT
BRANCH   1   4
ATOM      4  C   UNL     1      44.563   5.085  11.056  0.00  0.00    +0.000 A 
ATOM      5  C   UNL     1      43.616   4.264  11.678  0.00  0.00    +0.000 A 
ATOM      6  C   UNL     1      43.440   2.952  11.248  0.00  0.00    +0.000 A 
ATOM      7  C   UNL     1      44.197   2.457  10.183  0.00  0.00    +0.000 A 
ATOM      8  C   UNL     1      45.155   3.252   9.528  0.00  0.00    +0.000 A 
ATOM      9  C   UNL     1      45.335   4.565  10.000  0.00  0.00    +0.000 A 
BRANCH   8  10
ATOM     10  C   UNL     1      45.884   2.744   8.349  0.00  0.00    +0.000 A 
ATOM     11  C   UNL     1      46.132   3.515   7.214  0.00  0.00    +0.000 A 
ATOM     12  C   UNL     1      46.760   2.932   6.114  0.00  0.00    +0.000 A 
ATOM     13  C   UNL     1      47.133   1.597   6.172  0.00  0.00    +0.000 A 
ATOM     14  C   UNL     1      46.867   0.899   7.336  0.00  0.00    +0.000 A 
ATOM     15  N   UNL     1      46.261   1.440   8.415  0.00  0.00    +0.000 NA
ENDBRANCH   8  10
ENDBRANCH   1   4
BRANCH   1  16
ATOM     16  C   UNL     1      45.298   6.643  12.875  0.00  0.00    +0.000 C 
BRANCH  16  17
ATOM     17  N   UNL     1      46.648   6.069  12.987  0.00  0.00    +0.000 N 
ATOM     18  H   UNL     1      46.910   5.453  12.217  0.00  0.00    +0.000 HD
BRANCH  17  22
ATOM     19  C   UNL     1      48.312   4.698  16.611  0.00  0.00    +0.000 A 
ATOM     20  C   UNL     1      48.711   5.934  16.095  0.00  0.00    +0.000 A 
ATOM     21  C   UNL     1      48.152   6.410  14.904  0.00  0.00    +0.000 A 
ATOM     22  C   UNL     1      47.165   5.687  14.221  0.00  0.00    +0.000 A 
ATOM     23  C   UNL     1      46.789   4.443  14.745  0.00  0.00    +0.000 A 
ATOM     24  C   UNL     1      47.354   3.948  15.923  0.00  0.00    +0.000 A 
BRANCH  19  26
ATOM     25  N   UNL     1      48.087   3.409  18.662  0.00  0.00    +0.000 N 
ATOM     26  C   UNL     1      48.909   4.140  17.849  0.00  0.00    +0.000 C 
ATOM     27  O   UNL     1      50.091   4.296  18.122  0.00  0.00    +0.000 OA
ATOM     28  H   UNL     1      48.530   2.951  19.448  0.00  0.00    +0.000 HD
ATOM     29  H   UNL     1      47.191   3.059  18.356  0.00  0.00    +0.000 HD
ENDBRANCH  19  26
ENDBRANCH  17  22
ENDBRANCH  16  17
ENDBRANCH   1  16
TORSDOF 6
ENDMDL
MODEL 8
REMARK VINA RESULT:    -7.242      3.401      7.217
REMARK INTER + INTRA:         -10.945
REMARK INTER:                  -9.916
REMARK INTRA:                  -1.030
REMARK UNBOUND:                -1.163
REMARK  Name = 
REMARK  6 active torsions:
REMARK  status: ('A' for Active; 'I' for Inactive)
REMARK    1  A    between atoms: C_2  and  C_4
REMARK    2  A    between atoms: C_7  and  N_8
REMARK    3  A    between atoms: N_8  and  C_9
REMARK    4  A    between atoms: C_9  and  C_10
REMARK    5  A    between atoms: C_10  and  C_13
REMARK    6  A    between atoms: C_17  and  C_18
REMARK                            x       y       z     vdW  Elec       q    Type
REMARK                         _______ _______ _______ _____ _____    ______ ____
ROOT
ATOM      1  C   UNL     1      43.870   6.195  11.541  0.00  0.00    +0.000 C 
ATOM      2  F   UNL     1      43.767   6.341  12.895  0.00  0.00    +0.000 F 
ATOM      3  F   UNL     1      42.733   6.757  11.028  0.00  0.00    +0.000 F 
ENDROOT
BRANCH   1   4
ATOM      4  C   UNL     1      44.031   4.741  11.140  0.00  0.00    +0.000 A 
ATOM      5  C   UNL     1      43.271   3.740  11.754  0.00  0.00    +0.000 A 
ATOM      6  C   UNL     1      43.366   2.423  11.315  0.00  0.00    +0.000 A 
ATOM      7  C   UNL     1      44.206   2.100  10.246  0.00  0.00    +0.000 A 
ATOM      8  C   UNL     1      44.982   3.079   9.598  0.00  0.00    +0.000 A 
ATOM      9  C   UNL     1      44.892   4.397  10.080  0.00  0.00    +0.000 A 
BRANCH   8  10
ATOM     10  C   UNL     1      45.799   2.739   8.417  0.00  0.00    +0.000 A 
ATOM     11  C   UNL     1      46.028   3.627   7.366  0.00  0.00    +0.000 A 
ATOM     12  C   UNL     1      46.748   3.198   6.251  0.00  0.00    +0.000 A 
ATOM     13  C   UNL     1      47.227   1.897   6.211  0.00  0.00    +0.000 A 
ATOM     14  C   UNL     1      46.974   1.078   7.296  0.00  0.00    +0.000 A 
ATOM     15  N   UNL     1      46.281   1.468   8.387  0.00  0.00    +0.000 NA
ENDBRANCH   8  10
ENDBRANCH   1   4
BRANCH   1  16
ATOM     16  C   UNL     1      45.088   7.009  11.030  0.00  0.00    +0.000 C 
BRANCH  16  17
ATOM     17  N   UNL     1      45.538   8.043  11.975  0.00  0.00    +0.000 N 
ATOM     18  H   UNL     1      45.474   8.997  11.619  0.00  0.00    +0.000 HD
BRANCH  17  22
ATOM     19  C   UNL     1      48.977   7.345  14.313  0.00  0.00    +0.000 A 
ATOM     20  C   UNL     1      48.292   8.556  14.442  0.00  0.00    +0.000 A 
ATOM     21  C   UNL     1      47.139   8.792  13.687  0.00  0.00    +0.000 A 
ATOM     22  C   UNL     1      46.624   7.822  12.816  0.00  0.00    +0.000 A 
ATOM     23  C   UNL     1      47.332   6.620  12.689  0.00  0.00    +0.000 A 
ATOM     24  C   UNL     1      48.497   6.379  13.422  0.00  0.00    +0.000 A 
BRANCH  19  26
ATOM     25  N   UNL     1      51.367   7.681  14.620  0.00  0.00    +0.000 N 
ATOM     26  C   UNL     1      50.226   7.071  15.065  0.00  0.00    +0.000 C 
ATOM     27  O   UNL     1      50.237   6.358  16.058  0.00  0.00    +0.000 OA
ATOM     28  H   UNL     1      52.189   7.567  15.200  0.00  0.00    +0.000 HD
ATOM     29  H   UNL     1      51.352   8.453  13.970  0.00  0.00    +0.000 HD
ENDBRANCH  19  26
ENDBRANCH  17  22
ENDBRANCH  16  17
ENDBRANCH   1  16
TORSDOF 6
ENDMDL
