MODEL 1
REMARK VINA RESULT:    -9.329      0.000      0.000
REMARK INTER + INTRA:         -12.387
REMARK INTER:                 -11.510
REMARK INTRA:                  -0.877
REMARK UNBOUND:                -0.877
REMARK  Name = 
REMARK  4 active torsions:
REMARK  status: ('A' for Active; 'I' for Inactive)
REMARK    1  A    between atoms: C_2  and  C_4
REMARK    2  A    between atoms: N_8  and  C_9
REMARK    3  A    between atoms: C_9  and  C_10
REMARK    4  A    between atoms: C_15  and  C_16
REMARK                            x       y       z     vdW  Elec       q    Type
REMARK                         _______ _______ _______ _____ _____    ______ ____
ROOT
ATOM      1  C   UNL     1      44.678   5.124  11.892  0.00  0.00    +0.000 A 
ATOM      2  C   UNL     1      45.024   4.241  12.920  0.00  0.00    +0.000 A 
ATOM      3  C   UNL     1      46.115   4.520  13.740  0.00  0.00    +0.000 A 
ATOM      4  C   UNL     1      46.860   5.682  13.539  0.00  0.00    +0.000 A 
ATOM      5  F   UNL     1      47.886   5.908  14.375  0.00  0.00    +0.000 F 
ATOM      6  C   UNL     1      46.553   6.601  12.523  0.00  0.00    +0.000 A 
ATOM      7  C   UNL     1      45.446   6.290  11.706  0.00  0.00    +0.000 A 
ENDROOT
BRANCH   6   8
ATOM      8  C   UNL     1      47.330   7.844  12.313  0.00  0.00    +0.000 A 
ATOM      9  C   UNL     1      48.638   7.840  11.839  0.00  0.00    +0.000 A 
ATOM     10  N   UNL     1      49.366   8.961  11.637  0.00  0.00    +0.000 NA
ATOM     11  N   UNL     1      48.806  10.176  11.890  0.00  0.00    +0.000 NA
ATOM     12  C   UNL     1      47.546  10.252  12.353  0.00  0.00    +0.000 A 
ATOM     13  N   UNL     1      46.983  11.515  12.559  0.00  0.00    +0.000 N 
ATOM     14  C   UNL     1      46.790   9.111  12.569  0.00  0.00    +0.000 A 
ATOM     15  H   UNL     1      47.710  12.209  12.401  0.00  0.00    +0.000 HD
ATOM     16  H   UNL     1      46.566  11.601  13.478  0.00  0.00    +0.000 HD
ENDBRANCH   6   8
BRANCH   1  17
ATOM     17  C   UNL     1      43.474   4.857  11.016  0.00  0.00    +0.000 C 
BRANCH  17  22
ATOM     18  C   UNL     1      46.382   2.259   7.694  0.00  0.00    +0.000 A 
ATOM     19  C   UNL     1      45.629   1.776   8.759  0.00  0.00    +0.000 A 
ATOM     20  C   UNL     1      44.773   2.643   9.437  0.00  0.00    +0.000 A 
ATOM     21  C   UNL     1      44.691   3.976   9.050  0.00  0.00    +0.000 A 
ATOM     22  N   UNL     1      43.802   4.874   9.604  0.00  0.00    +0.000 N 
ATOM     23  N   UNL     1      45.427   4.457   8.029  0.00  0.00    +0.000 NA
ATOM     24  C   UNL     1      46.260   3.602   7.379  0.00  0.00    +0.000 A 
ATOM     25  H   UNL     1      44.014   5.787   9.212  0.00  0.00    +0.000 HD
BRANCH  18  27
ATOM     26  N   UNL     1      48.358   2.018   6.304  0.00  0.00    +0.000 N 
ATOM     27  C   UNL     1      47.292   1.404   6.905  0.00  0.00    +0.000 C 
ATOM     28  O   UNL     1      47.123   0.199   6.815  0.00  0.00    +0.000 OA
ATOM     29  H   UNL     1      49.028   1.411   5.847  0.00  0.00    +0.000 HD
ATOM     30  H   UNL     1      48.673   2.941   6.566  0.00  0.00    +0.000 HD
ENDBRANCH  18  27
ENDBRANCH  17  22
ENDBRANCH   1  17
TORSDOF 4
ENDMDL
MODEL 2
REMARK VINA RESULT:    -9.104      2.988      3.934
REMARK INTER + INTRA:         -12.111
REMARK INTER:                 -11.225
REMARK INTRA:                  -0.886
REMARK UNBOUND:                -0.877
REMARK  Name = 
REMARK  4 active torsions:
REMARK  status: ('A' for Active; 'I' for Inactive)
REMARK    1  A    between atoms: C_2  and  C_4
REMARK    2  A    between atoms: N_8  and  C_9
REMARK    3  A    between atoms: C_9  and  C_10
REMARK    4  A    between atoms: C_15  and  C_16
REMARK                            x       y       z     vdW  Elec       q    Type
REMARK                         _______ _______ _______ _____ _____    ______ ____
ROOT
ATOM      1  C   UNL     1      44.638   5.444  11.869  0.00  0.00    +0.000 A 
ATOM      2  C   UNL     1      45.145   6.709  11.556  0.00  0.00    +0.000 A 
ATOM      3  C   UNL     1      46.214   7.230  12.281  0.00  0.00    +0.000 A 
ATOM      4  C   UNL     1      46.783   6.490  13.316  0.00  0.00    +0.000 A 
ATOM      5  F   UNL     1      47.825   7.035  13.963  0.00  0.00    +0.000 F 
ATOM      6  C   UNL     1      46.313   5.214  13.669  0.00  0.00    +0.000 A 
ATOM      7  C   UNL     1      45.227   4.715  12.921  0.00  0.00    +0.000 A 
ENDROOT
BRANCH   6   8
ATOM      8  C   UNL     1      46.921   4.416  14.757  0.00  0.00    +0.000 A 
ATOM      9  C   UNL     1      47.664   3.263  14.519  0.00  0.00    +0.000 A 
ATOM     10  N   UNL     1      48.231   2.520  15.496  0.00  0.00    +0.000 NA
ATOM     11  N   UNL     1      48.093   2.907  16.794  0.00  0.00    +0.000 NA
ATOM     12  C   UNL     1      47.386   4.009  17.096  0.00  0.00    +0.000 A 
ATOM     13  N   UNL     1      47.302   4.407  18.433  0.00  0.00    +0.000 N 
ATOM     14  C   UNL     1      46.795   4.778  16.105  0.00  0.00    +0.000 A 
ATOM     15  H   UNL     1      47.745   3.687  19.000  0.00  0.00    +0.000 HD
ATOM     16  H   UNL     1      46.346   4.584  18.720  0.00  0.00    +0.000 HD
ENDBRANCH   6   8
BRANCH   1  17
ATOM     17  C   UNL     1      43.503   4.845  11.070  0.00  0.00    +0.000 C 
BRANCH  17  22
ATOM     18  C   UNL     1      46.362   2.264   7.692  0.00  0.00    +0.000 A 
ATOM     19  C   UNL     1      45.670   1.784   8.799  0.00  0.00    +0.000 A 
ATOM     20  C   UNL     1      44.813   2.637   9.491  0.00  0.00    +0.000 A 
ATOM     21  C   UNL     1      44.669   3.957   9.076  0.00  0.00    +0.000 A 
ATOM     22  N   UNL     1      43.772   4.838   9.646  0.00  0.00    +0.000 N 
ATOM     23  N   UNL     1      45.345   4.436   8.014  0.00  0.00    +0.000 NA
ATOM     24  C   UNL     1      46.181   3.594   7.351  0.00  0.00    +0.000 A 
ATOM     25  H   UNL     1      43.936   5.747   9.223  0.00  0.00    +0.000 HD
BRANCH  18  27
ATOM     26  N   UNL     1      48.294   2.054   6.236  0.00  0.00    +0.000 N 
ATOM     27  C   UNL     1      47.268   1.422   6.886  0.00  0.00    +0.000 C 
ATOM     28  O   UNL     1      47.132   0.210   6.825  0.00  0.00    +0.000 OA
ATOM     29  H   UNL     1      48.965   1.458   5.767  0.00  0.00    +0.000 HD
ATOM     30  H   UNL     1      48.590   2.991   6.469  0.00  0.00    +0.000 HD
ENDBRANCH  18  27
ENDBRANCH  17  22
ENDBRANCH   1  17
TORSDOF 4
ENDMDL
MODEL 3
REMARK VINA RESULT:    -8.383      2.114      2.858
REMARK INTER + INTRA:         -11.221
REMARK INTER:                 -10.718
REMARK INTRA:                  -0.503
REMARK UNBOUND:                -0.877
REMARK  Name = 
REMARK  4 active torsions:
REMARK  status: ('A' for Active; 'I' for Inactive)
REMARK    1  A    between atoms: C_2  and  C_4
REMARK    2  A    between atoms: N_8  and  C_9
REMARK    3  A    between atoms: C_9  and  C_10
REMARK    4  A    between atoms: C_15  and  C_16
REMARK                            x       y       z     vdW  Elec       q    Type
REMARK                         _______ _______ _______ _____ _____    ______ ____
ROOT
ATOM      1  C   UNL     1      43.884   4.796  11.379  0.00  0.00    +0.000 A 
ATOM      2  C   UNL     1      43.118   5.927  11.077  0.00  0.00    +0.000 A 
ATOM      3  C   UNL     1      43.587   7.195  11.411  0.00  0.00    +0.000 A 
ATOM      4  C   UNL     1      44.822   7.339  12.043  0.00  0.00    +0.000 A 
ATOM      5  F   UNL     1      45.231   8.588  12.318  0.00  0.00    +0.000 F 
ATOM      6  C   UNL     1      45.630   6.237  12.365  0.00  0.00    +0.000 A 
ATOM      7  C   UNL     1      45.127   4.965  12.020  0.00  0.00    +0.000 A 
ENDROOT
BRANCH   6   8
ATOM      8  C   UNL     1      46.949   6.383  13.022  0.00  0.00    +0.000 A 
ATOM      9  C   UNL     1      47.216   5.878  14.291  0.00  0.00    +0.000 A 
ATOM     10  N   UNL     1      48.412   5.996  14.909  0.00  0.00    +0.000 NA
ATOM     11  N   UNL     1      49.434   6.629  14.270  0.00  0.00    +0.000 NA
ATOM     12  C   UNL     1      49.244   7.144  13.043  0.00  0.00    +0.000 A 
ATOM     13  N   UNL     1      50.326   7.747  12.394  0.00  0.00    +0.000 N 
ATOM     14  C   UNL     1      48.022   7.034  12.400  0.00  0.00    +0.000 A 
ATOM     15  H   UNL     1      51.103   7.779  13.050  0.00  0.00    +0.000 HD
ATOM     16  H   UNL     1      50.092   8.665  12.035  0.00  0.00    +0.000 HD
ENDBRANCH   6   8
BRANCH   1  17
ATOM     17  C   UNL     1      43.409   3.414  10.991  0.00  0.00    +0.000 C 
BRANCH  17  22
ATOM     18  C   UNL     1      46.683   2.503   7.157  0.00  0.00    +0.000 A 
ATOM     19  C   UNL     1      46.210   3.722   7.630  0.00  0.00    +0.000 A 
ATOM     20  C   UNL     1      45.451   3.752   8.799  0.00  0.00    +0.000 A 
ATOM     21  C   UNL     1      45.167   2.567   9.469  0.00  0.00    +0.000 A 
ATOM     22  N   UNL     1      44.506   2.519  10.680  0.00  0.00    +0.000 N 
ATOM     23  N   UNL     1      45.609   1.379   9.012  0.00  0.00    +0.000 NA
ATOM     24  C   UNL     1      46.345   1.364   7.869  0.00  0.00    +0.000 A 
ATOM     25  H   UNL     1      44.350   1.538  10.897  0.00  0.00    +0.000 HD
BRANCH  18  27
ATOM     26  N   UNL     1      47.374   3.358   4.993  0.00  0.00    +0.000 N 
ATOM     27  C   UNL     1      47.517   2.384   5.944  0.00  0.00    +0.000 C 
ATOM     28  O   UNL     1      48.322   1.476   5.805  0.00  0.00    +0.000 OA
ATOM     29  H   UNL     1      48.018   3.322   4.212  0.00  0.00    +0.000 HD
ATOM     30  H   UNL     1      46.927   4.243   5.183  0.00  0.00    +0.000 HD
ENDBRANCH  18  27
ENDBRANCH  17  22
ENDBRANCH   1  17
TORSDOF 4
ENDMDL
MODEL 4
REMARK VINA RESULT:    -8.159      2.151      2.912
REMARK INTER + INTRA:         -10.945
REMARK INTER:                 -10.419
REMARK INTRA:                  -0.526
REMARK UNBOUND:                -0.877
REMARK  Name = 
REMARK  4 active torsions:
REMARK  status: ('A' for Active; 'I' for Inactive)
REMARK    1  A    between atoms: C_2  and  C_4
REMARK    2  A    between atoms: N_8  and  C_9
REMARK    3  A    between atoms: C_9  and  C_10
REMARK    4  A    between atoms: C_15  and  C_16
REMARK                            x       y       z     vdW  Elec       q    Type
REMARK                         _______ _______ _______ _____ _____    ______ ____
ROOT
ATOM      1  C   UNL     1      44.456   6.427  11.551  0.00  0.00    +0.000 A 
ATOM      2  C   UNL     1      44.134   7.756  11.257  0.00  0.00    +0.000 A 
ATOM      3  C   UNL     1      44.905   8.791  11.779  0.00  0.00    +0.000 A 
ATOM      4  C   UNL     1      46.001   8.504  12.593  0.00  0.00    +0.000 A 
ATOM      5  F   UNL     1      46.719   9.542  13.048  0.00  0.00    +0.000 F 
ATOM      6  C   UNL     1      46.368   7.187  12.916  0.00  0.00    +0.000 A 
ATOM      7  C   UNL     1      45.565   6.160  12.377  0.00  0.00    +0.000 A 
ENDROOT
BRANCH   6   8
ATOM      8  C   UNL     1      47.538   6.874  13.767  0.00  0.00    +0.000 A 
ATOM      9  C   UNL     1      47.515   5.880  14.741  0.00  0.00    +0.000 A 
ATOM     10  N   UNL     1      48.571   5.575  15.526  0.00  0.00    +0.000 NA
ATOM     11  N   UNL     1      49.740   6.254  15.367  0.00  0.00    +0.000 NA
ATOM     12  C   UNL     1      49.832   7.229  14.446  0.00  0.00    +0.000 A 
ATOM     13  N   UNL     1      51.059   7.876  14.275  0.00  0.00    +0.000 N 
ATOM     14  C   UNL     1      48.755   7.556  13.637  0.00  0.00    +0.000 A 
ATOM     15  H   UNL     1      51.693   7.537  14.995  0.00  0.00    +0.000 HD
ATOM     16  H   UNL     1      50.965   8.885  14.293  0.00  0.00    +0.000 HD
ENDBRANCH   6   8
BRANCH   1  17
ATOM     17  C   UNL     1      43.654   5.288  10.963  0.00  0.00    +0.000 C 
BRANCH  17  22
ATOM     18  C   UNL     1      46.233   2.032   7.964  0.00  0.00    +0.000 A 
ATOM     19  C   UNL     1      45.484   1.763   9.104  0.00  0.00    +0.000 A 
ATOM     20  C   UNL     1      44.721   2.781   9.675  0.00  0.00    +0.000 A 
ATOM     21  C   UNL     1      44.728   4.050   9.109  0.00  0.00    +0.000 A 
ATOM     22  N   UNL     1      43.931   5.085   9.554  0.00  0.00    +0.000 N 
ATOM     23  N   UNL     1      45.462   4.325   8.013  0.00  0.00    +0.000 NA
ATOM     24  C   UNL     1      46.203   3.325   7.467  0.00  0.00    +0.000 A 
ATOM     25  H   UNL     1      44.198   5.915   9.033  0.00  0.00    +0.000 HD
BRANCH  18  27
ATOM     26  N   UNL     1      46.776  -0.302   7.577  0.00  0.00    +0.000 N 
ATOM     27  C   UNL     1      47.045   1.007   7.279  0.00  0.00    +0.000 C 
ATOM     28  O   UNL     1      47.899   1.307   6.459  0.00  0.00    +0.000 OA
ATOM     29  H   UNL     1      47.270  -0.998   7.031  0.00  0.00    +0.000 HD
ATOM     30  H   UNL     1      45.924  -0.592   8.035  0.00  0.00    +0.000 HD
ENDBRANCH  18  27
ENDBRANCH  17  22
ENDBRANCH   1  17
TORSDOF 4
ENDMDL
MODEL 5
REMARK VINA RESULT:    -7.804      3.473      7.534
REMARK INTER + INTRA:         -10.506
REMARK INTER:                 -10.390
REMARK INTRA:                  -0.116
REMARK UNBOUND:                -0.877
REMARK  Name = 
REMARK  4 active torsions:
REMARK  status: ('A' for Active; 'I' for Inactive)
REMARK    1  A    between atoms: C_2  and  C_4
REMARK    2  A    between atoms: N_8  and  C_9
REMARK    3  A    between atoms: C_9  and  C_10
REMARK    4  A    between atoms: C_15  and  C_16
REMARK                            x       y       z     vdW  Elec       q    Type
REMARK                         _______ _______ _______ _____ _____    ______ ____
ROOT
ATOM      1  C   UNL     1      44.874   5.259  10.624  0.00  0.00    +0.000 A 
ATOM      2  C   UNL     1      43.814   4.632  11.288  0.00  0.00    +0.000 A 
ATOM      3  C   UNL     1      43.465   3.324  10.962  0.00  0.00    +0.000 A 
ATOM      4  C   UNL     1      44.173   2.637   9.976  0.00  0.00    +0.000 A 
ATOM      5  F   UNL     1      43.805   1.371   9.722  0.00  0.00    +0.000 F 
ATOM      6  C   UNL     1      45.246   3.220   9.283  0.00  0.00    +0.000 A 
ATOM      7  C   UNL     1      45.574   4.547   9.631  0.00  0.00    +0.000 A 
ENDROOT
BRANCH   6   8
ATOM      8  C   UNL     1      46.012   2.492   8.246  0.00  0.00    +0.000 A 
ATOM      9  C   UNL     1      46.188   1.112   8.272  0.00  0.00    +0.000 A 
ATOM     10  N   UNL     1      46.880   0.425   7.336  0.00  0.00    +0.000 NA
ATOM     11  N   UNL     1      47.436   1.097   6.291  0.00  0.00    +0.000 NA
ATOM     12  C   UNL     1      47.308   2.433   6.205  0.00  0.00    +0.000 A 
ATOM     13  N   UNL     1      47.850   3.088   5.096  0.00  0.00    +0.000 N 
ATOM     14  C   UNL     1      46.605   3.149   7.160  0.00  0.00    +0.000 A 
ATOM     15  H   UNL     1      48.368   2.402   4.551  0.00  0.00    +0.000 HD
ATOM     16  H   UNL     1      48.426   3.878   5.363  0.00  0.00    +0.000 HD
ENDBRANCH   6   8
BRANCH   1  17
ATOM     17  C   UNL     1      45.292   6.665  10.991  0.00  0.00    +0.000 C 
BRANCH  17  22
ATOM     18  C   UNL     1      47.803   5.432  15.282  0.00  0.00    +0.000 A 
ATOM     19  C   UNL     1      46.781   4.742  14.640  0.00  0.00    +0.000 A 
ATOM     20  C   UNL     1      46.352   5.172  13.385  0.00  0.00    +0.000 A 
ATOM     21  C   UNL     1      46.939   6.288  12.799  0.00  0.00    +0.000 A 
ATOM     22  N   UNL     1      46.639   6.721  11.523  0.00  0.00    +0.000 N 
ATOM     23  N   UNL     1      47.920   6.971  13.419  0.00  0.00    +0.000 NA
ATOM     24  C   UNL     1      48.327   6.543  14.644  0.00  0.00    +0.000 A 
ATOM     25  H   UNL     1      47.133   7.598  11.381  0.00  0.00    +0.000 HD
BRANCH  18  27
ATOM     26  N   UNL     1      47.636   5.429  17.705  0.00  0.00    +0.000 N 
ATOM     27  C   UNL     1      48.337   5.028  16.599  0.00  0.00    +0.000 C 
ATOM     28  O   UNL     1      49.341   4.340  16.701  0.00  0.00    +0.000 OA
ATOM     29  H   UNL     1      47.955   5.066  18.595  0.00  0.00    +0.000 HD
ATOM     30  H   UNL     1      46.685   5.762  17.654  0.00  0.00    +0.000 HD
ENDBRANCH  18  27
ENDBRANCH  17  22
ENDBRANCH   1  17
TORSDOF 4
ENDMDL
MODEL 6
REMARK VINA RESULT:    -7.370      3.283      7.115
REMARK INTER + INTRA:          -9.971
REMARK INTER:                  -9.404
REMARK INTRA:                  -0.567
REMARK UNBOUND:                -0.877
REMARK  Name = 
REMARK  4 active torsions:
REMARK  status: ('A' for Active; 'I' for Inactive)
REMARK    1  A    between atoms: C_2  and  C_4
REMARK    2  A    between atoms: N_8  and  C_9
REMARK    3  A    between atoms: C_9  and  C_10
REMARK    4  A    between atoms: C_15  and  C_16
REMARK                            x       y       z     vdW  Elec       q    Type
REMARK                         _______ _______ _______ _____ _____    ______ ____
ROOT
ATOM      1  C   UNL     1      44.586   5.372  12.220  0.00  0.00    +0.000 A 
ATOM      2  C   UNL     1      43.656   4.532  12.841  0.00  0.00    +0.000 A 
ATOM      3  C   UNL     1      43.310   3.318  12.252  0.00  0.00    +0.000 A 
ATOM      4  C   UNL     1      43.894   2.937  11.044  0.00  0.00    +0.000 A 
ATOM      5  F   UNL     1      43.539   1.747  10.536  0.00  0.00    +0.000 F 
ATOM      6  C   UNL     1      44.834   3.743  10.381  0.00  0.00    +0.000 A 
ATOM      7  C   UNL     1      45.160   4.968  10.999  0.00  0.00    +0.000 A 
ENDROOT
BRANCH   6   8
ATOM      8  C   UNL     1      45.469   3.339   9.106  0.00  0.00    +0.000 A 
ATOM      9  C   UNL     1      45.726   4.239   8.076  0.00  0.00    +0.000 A 
ATOM     10  N   UNL     1      46.307   3.894   6.905  0.00  0.00    +0.000 NA
ATOM     11  N   UNL     1      46.683   2.602   6.702  0.00  0.00    +0.000 NA
ATOM     12  C   UNL     1      46.462   1.679   7.654  0.00  0.00    +0.000 A 
ATOM     13  N   UNL     1      46.903   0.370   7.435  0.00  0.00    +0.000 N 
ATOM     14  C   UNL     1      45.864   2.018   8.857  0.00  0.00    +0.000 A 
ATOM     15  H   UNL     1      47.256   0.317   6.482  0.00  0.00    +0.000 HD
ATOM     16  H   UNL     1      46.174  -0.312   7.611  0.00  0.00    +0.000 HD
ENDBRANCH   6   8
BRANCH   1  17
ATOM     17  C   UNL     1      45.002   6.675  12.863  0.00  0.00    +0.000 C 
BRANCH  17  22
ATOM     18  C   UNL     1      49.798   8.223  11.944  0.00  0.00    +0.000 A 
ATOM     19  C   UNL     1      48.604   8.898  11.716  0.00  0.00    +0.000 A 
ATOM     20  C   UNL     1      47.412   8.358  12.198  0.00  0.00    +0.000 A 
ATOM     21  C   UNL     1      47.430   7.150  12.887  0.00  0.00    +0.000 A 
ATOM     22  N   UNL     1      46.312   6.596  13.477  0.00  0.00    +0.000 N 
ATOM     23  N   UNL     1      48.580   6.481  13.101  0.00  0.00    +0.000 NA
ATOM     24  C   UNL     1      49.734   7.018  12.623  0.00  0.00    +0.000 A 
ATOM     25  H   UNL     1      46.581   5.681  13.828  0.00  0.00    +0.000 HD
BRANCH  18  27
ATOM     26  N   UNL     1      52.223   8.092  11.956  0.00  0.00    +0.000 N 
ATOM     27  C   UNL     1      51.107   8.738  11.494  0.00  0.00    +0.000 C 
ATOM     28  O   UNL     1      51.195   9.676  10.718  0.00  0.00    +0.000 OA
ATOM     29  H   UNL     1      53.108   8.390  11.566  0.00  0.00    +0.000 HD
ATOM     30  H   UNL     1      52.185   7.174  12.375  0.00  0.00    +0.000 HD
ENDBRANCH  18  27
ENDBRANCH  17  22
ENDBRANCH   1  17
TORSDOF 4
ENDMDL
MODEL 7
REMARK VINA RESULT:    -7.300      5.365      8.089
REMARK INTER + INTRA:          -9.885
REMARK INTER:                  -9.105
REMARK INTRA:                  -0.780
REMARK UNBOUND:                -0.877
REMARK  Name = 
REMARK  4 active torsions:
REMARK  status: ('A' for Active; 'I' for Inactive)
REMARK    1  A    between atoms: C_2  and  C_4
REMARK    2  A    between atoms: N_8  and  C_9
REMARK    3  A    between atoms: C_9  and  C_10
REMARK    4  A    between atoms: C_15  and  C_16
REMARK                            x       y       z     vdW  Elec       q    Type
REMARK                         _______ _______ _______ _____ _____    ______ ____
ROOT
ATOM      1  C   UNL     1      48.600   6.693  14.974  0.00  0.00    +0.000 A 
ATOM      2  C   UNL     1      49.348   7.361  13.999  0.00  0.00    +0.000 A 
ATOM      3  C   UNL     1      48.921   7.362  12.673  0.00  0.00    +0.000 A 
ATOM      4  C   UNL     1      47.747   6.699  12.317  0.00  0.00    +0.000 A 
ATOM      5  F   UNL     1      47.375   6.754  11.028  0.00  0.00    +0.000 F 
ATOM      6  C   UNL     1      46.959   6.016  13.257  0.00  0.00    +0.000 A 
ATOM      7  C   UNL     1      47.418   6.029  14.591  0.00  0.00    +0.000 A 
ENDROOT
BRANCH   6   8
ATOM      8  C   UNL     1      45.703   5.323  12.890  0.00  0.00    +0.000 A 
ATOM      9  C   UNL     1      45.577   3.937  12.906  0.00  0.00    +0.000 A 
ATOM     10  N   UNL     1      44.441   3.283  12.578  0.00  0.00    +0.000 NA
ATOM     11  N   UNL     1      43.339   3.998  12.219  0.00  0.00    +0.000 NA
ATOM     12  C   UNL     1      43.391   5.340  12.179  0.00  0.00    +0.000 A 
ATOM     13  N   UNL     1      42.230   6.048  11.854  0.00  0.00    +0.000 N 
ATOM     14  C   UNL     1      44.551   6.024  12.509  0.00  0.00    +0.000 A 
ATOM     15  H   UNL     1      41.517   5.371  11.591  0.00  0.00    +0.000 HD
ATOM     16  H   UNL     1      42.393   6.733  11.125  0.00  0.00    +0.000 HD
ENDBRANCH   6   8
BRANCH   1  17
ATOM     17  C   UNL     1      49.026   6.713  16.424  0.00  0.00    +0.000 C 
BRANCH  17  22
ATOM     18  C   UNL     1      51.467   2.359  17.575  0.00  0.00    +0.000 A 
ATOM     19  C   UNL     1      51.953   3.662  17.586  0.00  0.00    +0.000 A 
ATOM     20  C   UNL     1      51.067   4.722  17.400  0.00  0.00    +0.000 A 
ATOM     21  C   UNL     1      49.716   4.465  17.194  0.00  0.00    +0.000 A 
ATOM     22  N   UNL     1      48.761   5.457  17.097  0.00  0.00    +0.000 N 
ATOM     23  N   UNL     1      49.237   3.206  17.168  0.00  0.00    +0.000 NA
ATOM     24  C   UNL     1      50.112   2.182  17.348  0.00  0.00    +0.000 A 
ATOM     25  H   UNL     1      47.883   5.005  16.858  0.00  0.00    +0.000 HD
BRANCH  18  27
ATOM     26  N   UNL     1      51.718   0.028  18.209  0.00  0.00    +0.000 N 
ATOM     27  C   UNL     1      52.330   1.180  17.792  0.00  0.00    +0.000 C 
ATOM     28  O   UNL     1      53.532   1.218  17.580  0.00  0.00    +0.000 OA
ATOM     29  H   UNL     1      52.302  -0.798  18.261  0.00  0.00    +0.000 HD
ATOM     30  H   UNL     1      50.720  -0.113  18.141  0.00  0.00    +0.000 HD
ENDBRANCH  18  27
ENDBRANCH  17  22
ENDBRANCH   1  17
TORSDOF 4
ENDMDL
MODEL 8
REMARK VINA RESULT:    -7.281      3.619      7.641
REMARK INTER + INTRA:          -9.861
REMARK INTER:                  -9.526
REMARK INTRA:                  -0.336
REMARK UNBOUND:                -0.877
REMARK  Name = 
REMARK  4 active torsions:
REMARK  status: ('A' for Active; 'I' for Inactive)
REMARK    1  A    between atoms: C_2  and  C_4
REMARK    2  A    between atoms: N_8  and  C_9
REMARK    3  A    between atoms: C_9  and  C_10
REMARK    4  A    between atoms: C_15  and  C_16
REMARK                            x       y       z     vdW  Elec       q    Type
REMARK                         _______ _______ _______ _____ _____    ______ ____
ROOT
ATOM      1  C   UNL     1      44.943   5.411  10.612  0.00  0.00    +0.000 A 
ATOM      2  C   UNL     1      43.875   4.825  11.300  0.00  0.00    +0.000 A 
ATOM      3  C   UNL     1      43.498   3.515  11.015  0.00  0.00    +0.000 A 
ATOM      4  C   UNL     1      44.186   2.784  10.047  0.00  0.00    +0.000 A 
ATOM      5  F   UNL     1      43.792   1.520   9.833  0.00  0.00    +0.000 F 
ATOM      6  C   UNL     1      45.267   3.325   9.330  0.00  0.00    +0.000 A 
ATOM      7  C   UNL     1      45.622   4.655   9.636  0.00  0.00    +0.000 A 
ENDROOT
BRANCH   6   8
ATOM      8  C   UNL     1      46.012   2.551   8.312  0.00  0.00    +0.000 A 
ATOM      9  C   UNL     1      46.121   1.164   8.353  0.00  0.00    +0.000 A 
ATOM     10  N   UNL     1      46.793   0.437   7.433  0.00  0.00    +0.000 NA
ATOM     11  N   UNL     1      47.395   1.071   6.390  0.00  0.00    +0.000 NA
ATOM     12  C   UNL     1      47.332   2.410   6.290  0.00  0.00    +0.000 A 
ATOM     13  N   UNL     1      47.920   3.029   5.183  0.00  0.00    +0.000 N 
ATOM     14  C   UNL     1      46.650   3.169   7.229  0.00  0.00    +0.000 A 
ATOM     15  H   UNL     1      48.413   2.313   4.653  0.00  0.00    +0.000 HD
ATOM     16  H   UNL     1      48.529   3.793   5.451  0.00  0.00    +0.000 HD
ENDBRANCH   6   8
BRANCH   1  17
ATOM     17  C   UNL     1      45.391   6.818  10.933  0.00  0.00    +0.000 C 
BRANCH  17  22
ATOM     18  C   UNL     1      49.656   7.743  13.616  0.00  0.00    +0.000 A 
ATOM     19  C   UNL     1      49.250   8.293  12.406  0.00  0.00    +0.000 A 
ATOM     20  C   UNL     1      47.966   8.025  11.932  0.00  0.00    +0.000 A 
ATOM     21  C   UNL     1      47.116   7.205  12.665  0.00  0.00    +0.000 A 
ATOM     22  N   UNL     1      45.802   6.967  12.315  0.00  0.00    +0.000 N 
ATOM     23  N   UNL     1      47.506   6.655  13.832  0.00  0.00    +0.000 NA
ATOM     24  C   UNL     1      48.761   6.922  14.281  0.00  0.00    +0.000 A 
ATOM     25  H   UNL     1      45.442   6.269  12.960  0.00  0.00    +0.000 HD
BRANCH  18  27
ATOM     26  N   UNL     1      52.044   8.083  13.339  0.00  0.00    +0.000 N 
ATOM     27  C   UNL     1      50.987   7.998  14.205  0.00  0.00    +0.000 C 
ATOM     28  O   UNL     1      51.137   8.158  15.406  0.00  0.00    +0.000 OA
ATOM     29  H   UNL     1      52.934   8.355  13.741  0.00  0.00    +0.000 HD
ATOM     30  H   UNL     1      51.924   8.219  12.346  0.00  0.00    +0.000 HD
ENDBRANCH  18  27
ENDBRANCH  17  22
ENDBRANCH   1  17
TORSDOF 4
ENDMDL
MODEL 9
REMARK VINA RESULT:    -6.872      4.966      8.305
REMARK INTER + INTRA:          -9.356
REMARK INTER:                  -8.752
REMARK INTRA:                  -0.604
REMARK UNBOUND:                -0.877
REMARK  Name = 
REMARK  4 active torsions:
REMARK  status: ('A' for Active; 'I' for Inactive)
REMARK    1  A    between atoms: C_2  and  C_4
REMARK    2  A    between atoms: N_8  and  C_9
REMARK    3  A    between atoms: C_9  and  C_10
REMARK    4  A    between atoms: C_15  and  C_16
REMARK                            x       y       z     vdW  Elec       q    Type
REMARK                         _______ _______ _______ _____ _____    ______ ____
ROOT
ATOM      1  C   UNL     1      47.237   7.575  13.512  0.00  0.00    +0.000 A 
ATOM      2  C   UNL     1      46.712   8.822  13.157  0.00  0.00    +0.000 A 
ATOM      3  C   UNL     1      45.576   8.897  12.355  0.00  0.00    +0.000 A 
ATOM      4  C   UNL     1      44.958   7.729  11.909  0.00  0.00    +0.000 A 
ATOM      5  F   UNL     1      43.854   7.864  11.158  0.00  0.00    +0.000 F 
ATOM      6  C   UNL     1      45.444   6.453  12.238  0.00  0.00    +0.000 A 
ATOM      7  C   UNL     1      46.599   6.409  13.047  0.00  0.00    +0.000 A 
ENDROOT
BRANCH   6   8
ATOM      8  C   UNL     1      44.785   5.209  11.780  0.00  0.00    +0.000 A 
ATOM      9  C   UNL     1      44.017   4.411  12.623  0.00  0.00    +0.000 A 
ATOM     10  N   UNL     1      43.404   3.273  12.227  0.00  0.00    +0.000 NA
ATOM     11  N   UNL     1      43.518   2.869  10.932  0.00  0.00    +0.000 NA
ATOM     12  C   UNL     1      44.248   3.591  10.064  0.00  0.00    +0.000 A 
ATOM     13  N   UNL     1      44.308   3.177   8.731  0.00  0.00    +0.000 N 
ATOM     14  C   UNL     1      44.886   4.757  10.458  0.00  0.00    +0.000 A 
ATOM     15  H   UNL     1      43.830   2.281   8.662  0.00  0.00    +0.000 HD
ATOM     16  H   UNL     1      45.261   3.129   8.388  0.00  0.00    +0.000 HD
ENDBRANCH   6   8
BRANCH   1  17
ATOM     17  C   UNL     1      48.447   7.473  14.412  0.00  0.00    +0.000 C 
BRANCH  17  22
ATOM     18  C   UNL     1      51.078   4.524  17.673  0.00  0.00    +0.000 A 
ATOM     19  C   UNL     1      51.444   5.740  17.104  0.00  0.00    +0.000 A 
ATOM     20  C   UNL     1      50.503   6.460  16.370  0.00  0.00    +0.000 A 
ATOM     21  C   UNL     1      49.219   5.952  16.205  0.00  0.00    +0.000 A 
ATOM     22  N   UNL     1      48.204   6.644  15.576  0.00  0.00    +0.000 N 
ATOM     23  N   UNL     1      48.859   4.769  16.740  0.00  0.00    +0.000 NA
ATOM     24  C   UNL     1      49.787   4.075  17.451  0.00  0.00    +0.000 A 
ATOM     25  H   UNL     1      47.408   6.015  15.511  0.00  0.00    +0.000 HD
BRANCH  18  27
ATOM     26  N   UNL     1      52.060   2.371  18.214  0.00  0.00    +0.000 N 
ATOM     27  C   UNL     1      52.002   3.711  18.488  0.00  0.00    +0.000 C 
ATOM     28  O   UNL     1      52.710   4.212  19.348  0.00  0.00    +0.000 OA
ATOM     29  H   UNL     1      52.766   1.840  18.710  0.00  0.00    +0.000 HD
ATOM     30  H   UNL     1      51.699   1.975  17.358  0.00  0.00    +0.000 HD
ENDBRANCH  18  27
ENDBRANCH  17  22
ENDBRANCH   1  17
TORSDOF 4
ENDMDL
