MODEL 1
REMARK VINA RESULT:    -9.631      0.000      0.000
REMARK INTER + INTRA:         -12.147
REMARK INTER:                 -11.884
REMARK INTRA:                  -0.264
REMARK UNBOUND:                -0.264
REMARK  Name = 
REMARK  4 active torsions:
REMARK  status: ('A' for Active; 'I' for Inactive)
REMARK    1  A    between atoms: C_2  and  C_4
REMARK    2  A    between atoms: N_8  and  C_9
REMARK    3  A    between atoms: C_9  and  C_10
REMARK    4  A    between atoms: C_14  and  C_15
REMARK                            x       y       z     vdW  Elec       q    Type
REMARK                         _______ _______ _______ _____ _____    ______ ____
ROOT
ATOM      1  C   UNL     1      43.966   4.702  11.594  0.00  0.00    +0.000 C 
ATOM      2  C   UNL     1      42.670   5.118  12.274  0.00  0.00    +0.000 C 
ATOM      3  C   UNL     1      43.118   5.851  11.053  0.00  0.00    +0.000 C 
ENDROOT
BRANCH   1   8
ATOM      4  C   UNL     1      46.457   2.716   7.527  0.00  0.00    +0.000 A 
ATOM      5  C   UNL     1      46.183   4.037   7.854  0.00  0.00    +0.000 A 
ATOM      6  C   UNL     1      45.364   4.307   8.950  0.00  0.00    +0.000 A 
ATOM      7  C   UNL     1      44.836   3.261   9.700  0.00  0.00    +0.000 A 
ATOM      8  N   UNL     1      44.014   3.465  10.811  0.00  0.00    +0.000 N 
ATOM      9  N   UNL     1      45.083   1.973   9.379  0.00  0.00    +0.000 NA
ATOM     10  C   UNL     1      45.871   1.724   8.298  0.00  0.00    +0.000 A 
ATOM     11  H   UNL     1      43.829   2.569  11.251  0.00  0.00    +0.000 HD
BRANCH   4  13
ATOM     12  N   UNL     1      47.245   3.113   5.265  0.00  0.00    +0.000 N 
ATOM     13  C   UNL     1      47.319   2.336   6.389  0.00  0.00    +0.000 C 
ATOM     14  O   UNL     1      48.094   1.392   6.458  0.00  0.00    +0.000 OA
ATOM     15  H   UNL     1      47.907   2.905   4.529  0.00  0.00    +0.000 HD
ATOM     16  H   UNL     1      46.806   4.023   5.258  0.00  0.00    +0.000 HD
ENDBRANCH   4  13
ENDBRANCH   1   8
BRANCH   1  17
ATOM     17  C   UNL     1      45.295   5.128  12.217  0.00  0.00    +0.000 A 
ATOM     18  C   UNL     1      45.968   6.284  11.781  0.00  0.00    +0.000 A 
ATOM     19  C   UNL     1      47.097   6.756  12.445  0.00  0.00    +0.000 A 
ATOM     20  C   UNL     1      47.575   6.088  13.568  0.00  0.00    +0.000 A 
ATOM     21  C   UNL     1      46.948   4.923  14.039  0.00  0.00    +0.000 A 
ATOM     22  C   UNL     1      45.841   4.444  13.319  0.00  0.00    +0.000 A 
BRANCH  21  23
ATOM     23  C   UNL     1      47.354   4.269  15.295  0.00  0.00    +0.000 A 
ATOM     24  C   UNL     1      47.166   4.894  16.529  0.00  0.00    +0.000 A 
ATOM     25  C   UNL     1      47.511   4.219  17.696  0.00  0.00    +0.000 A 
ATOM     26  C   UNL     1      48.029   2.937  17.607  0.00  0.00    +0.000 A 
ATOM     27  C   UNL     1      48.172   2.376  16.349  0.00  0.00    +0.000 A 
ATOM     28  N   UNL     1      47.842   3.005  15.198  0.00  0.00    +0.000 NA
ENDBRANCH  21  23
ENDBRANCH   1  17
TORSDOF 4
ENDMDL
MODEL 2
REMARK VINA RESULT:    -8.922      1.937      3.791
REMARK INTER + INTRA:         -11.272
REMARK INTER:                 -10.950
REMARK INTRA:                  -0.322
REMARK UNBOUND:                -0.264
REMARK  Name = 
REMARK  4 active torsions:
REMARK  status: ('A' for Active; 'I' for Inactive)
REMARK    1  A    between atoms: C_2  and  C_4
REMARK    2  A    between atoms: N_8  and  C_9
REMARK    3  A    between atoms: C_9  and  C_10
REMARK    4  A    between atoms: C_14  and  C_15
REMARK                            x       y       z     vdW  Elec       q    Type
REMARK                         _______ _______ _______ _____ _____    ______ ____
ROOT
ATOM      1  C   UNL     1      43.772   4.815  11.506  0.00  0.00    +0.000 C 
ATOM      2  C   UNL     1      42.430   5.341  11.994  0.00  0.00    +0.000 C 
ATOM      3  C   UNL     1      43.101   6.016  10.843  0.00  0.00    +0.000 C 
ENDROOT
BRANCH   1   8
ATOM      4  C   UNL     1      46.422   2.703   7.605  0.00  0.00    +0.000 A 
ATOM      5  C   UNL     1      46.163   4.036   7.898  0.00  0.00    +0.000 A 
ATOM      6  C   UNL     1      45.295   4.343   8.944  0.00  0.00    +0.000 A 
ATOM      7  C   UNL     1      44.704   3.323   9.682  0.00  0.00    +0.000 A 
ATOM      8  N   UNL     1      43.830   3.564  10.744  0.00  0.00    +0.000 N 
ATOM      9  N   UNL     1      44.935   2.024   9.393  0.00  0.00    +0.000 NA
ATOM     10  C   UNL     1      45.772   1.739   8.359  0.00  0.00    +0.000 A 
ATOM     11  H   UNL     1      43.601   2.680  11.188  0.00  0.00    +0.000 HD
BRANCH   4  13
ATOM     12  N   UNL     1      47.478   3.142   5.464  0.00  0.00    +0.000 N 
ATOM     13  C   UNL     1      47.332   2.285   6.519  0.00  0.00    +0.000 C 
ATOM     14  O   UNL     1      47.959   1.236   6.577  0.00  0.00    +0.000 OA
ATOM     15  H   UNL     1      48.175   2.894   4.774  0.00  0.00    +0.000 HD
ATOM     16  H   UNL     1      47.172   4.105   5.495  0.00  0.00    +0.000 HD
ENDBRANCH   4  13
ENDBRANCH   1   8
BRANCH   1  17
ATOM     17  C   UNL     1      45.030   5.146  12.307  0.00  0.00    +0.000 A 
ATOM     18  C   UNL     1      45.576   4.226  13.221  0.00  0.00    +0.000 A 
ATOM     19  C   UNL     1      46.801   4.462  13.838  0.00  0.00    +0.000 A 
ATOM     20  C   UNL     1      47.516   5.620  13.548  0.00  0.00    +0.000 A 
ATOM     21  C   UNL     1      47.013   6.575  12.651  0.00  0.00    +0.000 A 
ATOM     22  C   UNL     1      45.752   6.333  12.082  0.00  0.00    +0.000 A 
BRANCH  21  23
ATOM     23  C   UNL     1      47.803   7.745  12.229  0.00  0.00    +0.000 A 
ATOM     24  C   UNL     1      49.138   7.613  11.842  0.00  0.00    +0.000 A 
ATOM     25  C   UNL     1      49.834   8.733  11.396  0.00  0.00    +0.000 A 
ATOM     26  C   UNL     1      49.181   9.955  11.340  0.00  0.00    +0.000 A 
ATOM     27  C   UNL     1      47.853  10.005  11.725  0.00  0.00    +0.000 A 
ATOM     28  N   UNL     1      47.150   8.933  12.159  0.00  0.00    +0.000 NA
ENDBRANCH  21  23
ENDBRANCH   1  17
TORSDOF 4
ENDMDL
MODEL 3
REMARK VINA RESULT:    -7.682      3.091      7.706
REMARK INTER + INTRA:          -9.742
REMARK INTER:                  -9.336
REMARK INTRA:                  -0.406
REMARK UNBOUND:                -0.264
REMARK  Name = 
REMARK  4 active torsions:
REMARK  status: ('A' for Active; 'I' for Inactive)
REMARK    1  A    between atoms: C_2  and  C_4
REMARK    2  A    between atoms: N_8  and  C_9
REMARK    3  A    between atoms: C_9  and  C_10
REMARK    4  A    between atoms: C_14  and  C_15
REMARK                            x       y       z     vdW  Elec       q    Type
REMARK                         _______ _______ _______ _____ _____    ______ ____
ROOT
ATOM      1  C   UNL     1      48.582   7.609  12.907  0.00  0.00    +0.000 C 
ATOM      2  C   UNL     1      49.714   7.199  11.977  0.00  0.00    +0.000 C 
ATOM      3  C   UNL     1      49.381   8.647  12.123  0.00  0.00    +0.000 C 
ENDROOT
BRANCH   1   8
ATOM      4  C   UNL     1      47.880   4.348  16.853  0.00  0.00    +0.000 A 
ATOM      5  C   UNL     1      47.225   4.433  15.631  0.00  0.00    +0.000 A 
ATOM      6  C   UNL     1      47.511   5.503  14.784  0.00  0.00    +0.000 A 
ATOM      7  C   UNL     1      48.442   6.464  15.163  0.00  0.00    +0.000 A 
ATOM      8  N   UNL     1      48.776   7.556  14.359  0.00  0.00    +0.000 N 
ATOM      9  N   UNL     1      49.071   6.399  16.357  0.00  0.00    +0.000 NA
ATOM     10  C   UNL     1      48.771   5.358  17.180  0.00  0.00    +0.000 A 
ATOM     11  H   UNL     1      49.538   8.065  14.795  0.00  0.00    +0.000 HD
BRANCH   4  13
ATOM     12  N   UNL     1      48.491   3.165  18.883  0.00  0.00    +0.000 N 
ATOM     13  C   UNL     1      47.645   3.248  17.811  0.00  0.00    +0.000 C 
ATOM     14  O   UNL     1      46.713   2.467  17.675  0.00  0.00    +0.000 OA
ATOM     15  H   UNL     1      48.264   2.470  19.583  0.00  0.00    +0.000 HD
ATOM     16  H   UNL     1      49.107   3.919  19.152  0.00  0.00    +0.000 HD
ENDBRANCH   4  13
ENDBRANCH   1   8
BRANCH   1  17
ATOM     17  C   UNL     1      47.139   7.425  12.438  0.00  0.00    +0.000 A 
ATOM     18  C   UNL     1      46.185   8.448  12.595  0.00  0.00    +0.000 A 
ATOM     19  C   UNL     1      44.915   8.342  12.037  0.00  0.00    +0.000 A 
ATOM     20  C   UNL     1      44.570   7.214  11.298  0.00  0.00    +0.000 A 
ATOM     21  C   UNL     1      45.480   6.160  11.119  0.00  0.00    +0.000 A 
ATOM     22  C   UNL     1      46.737   6.274  11.736  0.00  0.00    +0.000 A 
BRANCH  21  23
ATOM     23  C   UNL     1      45.188   5.016  10.238  0.00  0.00    +0.000 A 
ATOM     24  C   UNL     1      45.709   4.948   8.945  0.00  0.00    +0.000 A 
ATOM     25  C   UNL     1      45.457   3.823   8.165  0.00  0.00    +0.000 A 
ATOM     26  C   UNL     1      44.696   2.792   8.694  0.00  0.00    +0.000 A 
ATOM     27  C   UNL     1      44.226   2.923   9.989  0.00  0.00    +0.000 A 
ATOM     28  N   UNL     1      44.459   4.002  10.772  0.00  0.00    +0.000 NA
ENDBRANCH  21  23
ENDBRANCH   1  17
TORSDOF 4
ENDMDL
MODEL 4
REMARK VINA RESULT:    -7.141      4.194      8.734
REMARK INTER + INTRA:          -9.074
REMARK INTER:                  -8.493
REMARK INTRA:                  -0.581
REMARK UNBOUND:                -0.264
REMARK  Name = 
REMARK  4 active torsions:
REMARK  status: ('A' for Active; 'I' for Inactive)
REMARK    1  A    between atoms: C_2  and  C_4
REMARK    2  A    between atoms: N_8  and  C_9
REMARK    3  A    between atoms: C_9  and  C_10
REMARK    4  A    between atoms: C_14  and  C_15
REMARK                            x       y       z     vdW  Elec       q    Type
REMARK                         _______ _______ _______ _____ _____    ______ ____
ROOT
ATOM      1  C   UNL     1      48.257   3.373  17.141  0.00  0.00    +0.000 C 
ATOM      2  C   UNL     1      48.062   3.680  18.618  0.00  0.00    +0.000 C 
ATOM      3  C   UNL     1      47.022   2.888  17.897  0.00  0.00    +0.000 C 
ENDROOT
BRANCH   1   8
ATOM      4  C   UNL     1      53.148   2.023  18.116  0.00  0.00    +0.000 A 
ATOM      5  C   UNL     1      52.518   3.255  18.227  0.00  0.00    +0.000 A 
ATOM      6  C   UNL     1      51.209   3.390  17.765  0.00  0.00    +0.000 A 
ATOM      7  C   UNL     1      50.551   2.299  17.206  0.00  0.00    +0.000 A 
ATOM      8  N   UNL     1      49.240   2.367  16.729  0.00  0.00    +0.000 N 
ATOM      9  N   UNL     1      51.162   1.102  17.078  0.00  0.00    +0.000 NA
ATOM     10  C   UNL     1      52.445   0.989  17.519  0.00  0.00    +0.000 A 
ATOM     11  H   UNL     1      48.941   1.436  16.457  0.00  0.00    +0.000 HD
BRANCH   4  13
ATOM     12  N   UNL     1      54.693   0.912  19.623  0.00  0.00    +0.000 N 
ATOM     13  C   UNL     1      54.529   1.786  18.584  0.00  0.00    +0.000 C 
ATOM     14  O   UNL     1      55.489   2.318  18.043  0.00  0.00    +0.000 OA
ATOM     15  H   UNL     1      55.647   0.682  19.872  0.00  0.00    +0.000 HD
ATOM     16  H   UNL     1      53.964   0.283  19.929  0.00  0.00    +0.000 HD
ENDBRANCH   4  13
ENDBRANCH   1   8
BRANCH   1  17
ATOM     17  C   UNL     1      47.988   4.475  16.117  0.00  0.00    +0.000 A 
ATOM     18  C   UNL     1      48.731   5.670  16.119  0.00  0.00    +0.000 A 
ATOM     19  C   UNL     1      48.594   6.608  15.100  0.00  0.00    +0.000 A 
ATOM     20  C   UNL     1      47.715   6.368  14.047  0.00  0.00    +0.000 A 
ATOM     21  C   UNL     1      46.942   5.198  14.001  0.00  0.00    +0.000 A 
ATOM     22  C   UNL     1      47.067   4.293  15.069  0.00  0.00    +0.000 A 
BRANCH  21  23
ATOM     23  C   UNL     1      46.101   4.860  12.839  0.00  0.00    +0.000 A 
ATOM     24  C   UNL     1      45.967   5.740  11.764  0.00  0.00    +0.000 A 
ATOM     25  C   UNL     1      45.209   5.360  10.661  0.00  0.00    +0.000 A 
ATOM     26  C   UNL     1      44.609   4.111  10.652  0.00  0.00    +0.000 A 
ATOM     27  C   UNL     1      44.800   3.286  11.747  0.00  0.00    +0.000 A 
ATOM     28  N   UNL     1      45.534   3.626  12.831  0.00  0.00    +0.000 NA
ENDBRANCH  21  23
ENDBRANCH   1  17
TORSDOF 4
ENDMDL
MODEL 5
REMARK VINA RESULT:    -7.136      3.335      7.114
REMARK INTER + INTRA:          -9.068
REMARK INTER:                  -8.714
REMARK INTRA:                  -0.355
REMARK UNBOUND:                -0.264
REMARK  Name = 
REMARK  4 active torsions:
REMARK  status: ('A' for Active; 'I' for Inactive)
REMARK    1  A    between atoms: C_2  and  C_4
REMARK    2  A    between atoms: N_8  and  C_9
REMARK    3  A    between atoms: C_9  and  C_10
REMARK    4  A    between atoms: C_14  and  C_15
REMARK                            x       y       z     vdW  Elec       q    Type
REMARK                         _______ _______ _______ _____ _____    ______ ____
ROOT
ATOM      1  C   UNL     1      44.741   5.395  12.359  0.00  0.00    +0.000 C 
ATOM      2  C   UNL     1      44.208   6.671  11.726  0.00  0.00    +0.000 C 
ATOM      3  C   UNL     1      43.444   6.039  12.841  0.00  0.00    +0.000 C 
ENDROOT
BRANCH   1   8
ATOM      4  C   UNL     1      49.312   7.777  12.716  0.00  0.00    +0.000 A 
ATOM      5  C   UNL     1      48.544   7.470  11.601  0.00  0.00    +0.000 A 
ATOM      6  C   UNL     1      47.399   6.689  11.761  0.00  0.00    +0.000 A 
ATOM      7  C   UNL     1      47.037   6.234  13.024  0.00  0.00    +0.000 A 
ATOM      8  N   UNL     1      45.902   5.453  13.252  0.00  0.00    +0.000 N 
ATOM      9  N   UNL     1      47.787   6.513  14.112  0.00  0.00    +0.000 NA
ATOM     10  C   UNL     1      48.910   7.262  13.938  0.00  0.00    +0.000 A 
ATOM     11  H   UNL     1      45.789   5.321  14.252  0.00  0.00    +0.000 HD
BRANCH   4  13
ATOM     12  N   UNL     1      51.673   8.077  13.191  0.00  0.00    +0.000 N 
ATOM     13  C   UNL     1      50.535   8.602  12.642  0.00  0.00    +0.000 C 
ATOM     14  O   UNL     1      50.542   9.689  12.082  0.00  0.00    +0.000 OA
ATOM     15  H   UNL     1      52.526   8.604  13.050  0.00  0.00    +0.000 HD
ATOM     16  H   UNL     1      51.761   7.102  13.440  0.00  0.00    +0.000 HD
ENDBRANCH   4  13
ENDBRANCH   1   8
BRANCH   1  17
ATOM     17  C   UNL     1      44.560   4.071  11.617  0.00  0.00    +0.000 A 
ATOM     18  C   UNL     1      43.537   3.171  11.969  0.00  0.00    +0.000 A 
ATOM     19  C   UNL     1      43.275   2.040  11.201  0.00  0.00    +0.000 A 
ATOM     20  C   UNL     1      44.024   1.786  10.057  0.00  0.00    +0.000 A 
ATOM     21  C   UNL     1      45.063   2.645   9.666  0.00  0.00    +0.000 A 
ATOM     22  C   UNL     1      45.336   3.752  10.487  0.00  0.00    +0.000 A 
BRANCH  21  23
ATOM     23  C   UNL     1      45.787   2.471   8.394  0.00  0.00    +0.000 A 
ATOM     24  C   UNL     1      45.863   3.504   7.459  0.00  0.00    +0.000 A 
ATOM     25  C   UNL     1      46.603   3.318   6.295  0.00  0.00    +0.000 A 
ATOM     26  C   UNL     1      47.255   2.112   6.095  0.00  0.00    +0.000 A 
ATOM     27  C   UNL     1      47.147   1.140   7.074  0.00  0.00    +0.000 A 
ATOM     28  N   UNL     1      46.438   1.292   8.216  0.00  0.00    +0.000 NA
ENDBRANCH  21  23
ENDBRANCH   1  17
TORSDOF 4
ENDMDL
MODEL 6
REMARK VINA RESULT:    -7.006      3.304      5.226
REMARK INTER + INTRA:          -8.908
REMARK INTER:                  -8.051
REMARK INTRA:                  -0.857
REMARK UNBOUND:                -0.264
REMARK  Name = 
REMARK  4 active torsions:
REMARK  status: ('A' for Active; 'I' for Inactive)
REMARK    1  A    between atoms: C_2  and  C_4
REMARK    2  A    between atoms: N_8  and  C_9
REMARK    3  A    between atoms: C_9  and  C_10
REMARK    4  A    between atoms: C_14  and  C_15
REMARK                            x       y       z     vdW  Elec       q    Type
REMARK                         _______ _______ _______ _____ _____    ______ ____
ROOT
ATOM      1  C   UNL     1      48.686   8.471  12.626  0.00  0.00    +0.000 C 
ATOM      2  C   UNL     1      48.433   9.861  12.061  0.00  0.00    +0.000 C 
ATOM      3  C   UNL     1      49.814   9.294  12.009  0.00  0.00    +0.000 C 
ENDROOT
BRANCH   1   8
ATOM      4  C   UNL     1      44.323   5.856  11.721  0.00  0.00    +0.000 A 
ATOM      5  C   UNL     1      44.681   6.661  12.795  0.00  0.00    +0.000 A 
ATOM      6  C   UNL     1      45.986   7.148  12.870  0.00  0.00    +0.000 A 
ATOM      7  C   UNL     1      46.907   6.831  11.877  0.00  0.00    +0.000 A 
ATOM      8  N   UNL     1      48.225   7.290  11.891  0.00  0.00    +0.000 N 
ATOM      9  N   UNL     1      46.572   6.035  10.838  0.00  0.00    +0.000 NA
ATOM     10  C   UNL     1      45.300   5.554  10.786  0.00  0.00    +0.000 A 
ATOM     11  H   UNL     1      48.679   7.013  11.026  0.00  0.00    +0.000 HD
BRANCH   4  13
ATOM     12  N   UNL     1      41.914   6.161  11.735  0.00  0.00    +0.000 N 
ATOM     13  C   UNL     1      42.964   5.301  11.556  0.00  0.00    +0.000 C 
ATOM     14  O   UNL     1      42.782   4.135  11.236  0.00  0.00    +0.000 OA
ATOM     15  H   UNL     1      40.993   5.797  11.526  0.00  0.00    +0.000 HD
ATOM     16  H   UNL     1      42.028   7.164  11.761  0.00  0.00    +0.000 HD
ENDBRANCH   4  13
ENDBRANCH   1   8
BRANCH   1  17
ATOM     17  C   UNL     1      48.778   8.296  14.142  0.00  0.00    +0.000 A 
ATOM     18  C   UNL     1      48.497   9.361  15.017  0.00  0.00    +0.000 A 
ATOM     19  C   UNL     1      48.433   9.167  16.394  0.00  0.00    +0.000 A 
ATOM     20  C   UNL     1      48.639   7.898  16.928  0.00  0.00    +0.000 A 
ATOM     21  C   UNL     1      48.933   6.803  16.101  0.00  0.00    +0.000 A 
ATOM     22  C   UNL     1      49.040   7.041  14.721  0.00  0.00    +0.000 A 
BRANCH  21  23
ATOM     23  C   UNL     1      49.030   5.430  16.626  0.00  0.00    +0.000 A 
ATOM     24  C   UNL     1      47.919   4.585  16.648  0.00  0.00    +0.000 A 
ATOM     25  C   UNL     1      48.064   3.276  17.099  0.00  0.00    +0.000 A 
ATOM     26  C   UNL     1      49.313   2.839  17.510  0.00  0.00    +0.000 A 
ATOM     27  C   UNL     1      50.372   3.729  17.445  0.00  0.00    +0.000 A 
ATOM     28  N   UNL     1      50.262   5.005  17.008  0.00  0.00    +0.000 NA
ENDBRANCH  21  23
ENDBRANCH   1  17
TORSDOF 4
ENDMDL
MODEL 7
REMARK VINA RESULT:    -6.945      4.099      7.264
REMARK INTER + INTRA:          -8.833
REMARK INTER:                  -8.183
REMARK INTRA:                  -0.650
REMARK UNBOUND:                -0.264
REMARK  Name = 
REMARK  4 active torsions:
REMARK  status: ('A' for Active; 'I' for Inactive)
REMARK    1  A    between atoms: C_2  and  C_4
REMARK    2  A    between atoms: N_8  and  C_9
REMARK    3  A    between atoms: C_9  and  C_10
REMARK    4  A    between atoms: C_14  and  C_15
REMARK                            x       y       z     vdW  Elec       q    Type
REMARK                         _______ _______ _______ _____ _____    ______ ____
ROOT
ATOM      1  C   UNL     1      45.815   4.401  12.994  0.00  0.00    +0.000 C 
ATOM      2  C   UNL     1      44.346   4.095  13.246  0.00  0.00    +0.000 C 
ATOM      3  C   UNL     1      44.937   3.777  11.912  0.00  0.00    +0.000 C 
ENDROOT
BRANCH   1   8
ATOM      4  C   UNL     1      48.334   3.873  17.475  0.00  0.00    +0.000 A 
ATOM      5  C   UNL     1      47.734   4.990  16.908  0.00  0.00    +0.000 A 
ATOM      6  C   UNL     1      47.234   4.904  15.609  0.00  0.00    +0.000 A 
ATOM      7  C   UNL     1      47.334   3.711  14.901  0.00  0.00    +0.000 A 
ATOM      8  N   UNL     1      46.849   3.558  13.600  0.00  0.00    +0.000 N 
ATOM      9  N   UNL     1      47.931   2.625  15.437  0.00  0.00    +0.000 NA
ATOM     10  C   UNL     1      48.429   2.728  16.699  0.00  0.00    +0.000 A 
ATOM     11  H   UNL     1      46.948   2.586  13.324  0.00  0.00    +0.000 HD
BRANCH   4  13
ATOM     12  N   UNL     1      48.306   3.022  19.748  0.00  0.00    +0.000 N 
ATOM     13  C   UNL     1      48.885   3.870  18.845  0.00  0.00    +0.000 C 
ATOM     14  O   UNL     1      49.843   4.567  19.152  0.00  0.00    +0.000 OA
ATOM     15  H   UNL     1      48.751   2.955  20.654  0.00  0.00    +0.000 HD
ATOM     16  H   UNL     1      47.686   2.272  19.474  0.00  0.00    +0.000 HD
ENDBRANCH   4  13
ENDBRANCH   1   8
BRANCH   1  17
ATOM     17  C   UNL     1      46.231   5.847  12.725  0.00  0.00    +0.000 A 
ATOM     18  C   UNL     1      45.305   6.902  12.818  0.00  0.00    +0.000 A 
ATOM     19  C   UNL     1      45.711   8.230  12.722  0.00  0.00    +0.000 A 
ATOM     20  C   UNL     1      47.057   8.535  12.540  0.00  0.00    +0.000 A 
ATOM     21  C   UNL     1      48.021   7.521  12.431  0.00  0.00    +0.000 A 
ATOM     22  C   UNL     1      47.574   6.190  12.482  0.00  0.00    +0.000 A 
BRANCH  21  23
ATOM     23  C   UNL     1      49.463   7.816  12.366  0.00  0.00    +0.000 A 
ATOM     24  C   UNL     1      50.159   7.755  11.158  0.00  0.00    +0.000 A 
ATOM     25  C   UNL     1      51.509   8.095  11.129  0.00  0.00    +0.000 A 
ATOM     26  C   UNL     1      52.129   8.493  12.302  0.00  0.00    +0.000 A 
ATOM     27  C   UNL     1      51.371   8.544  13.459  0.00  0.00    +0.000 A 
ATOM     28  N   UNL     1      50.058   8.224  13.517  0.00  0.00    +0.000 NA
ENDBRANCH  21  23
ENDBRANCH   1  17
TORSDOF 4
ENDMDL
MODEL 8
REMARK VINA RESULT:    -6.841      3.820      7.108
REMARK INTER + INTRA:          -8.705
REMARK INTER:                  -8.279
REMARK INTRA:                  -0.425
REMARK UNBOUND:                -0.264
REMARK  Name = 
REMARK  4 active torsions:
REMARK  status: ('A' for Active; 'I' for Inactive)
REMARK    1  A    between atoms: C_2  and  C_4
REMARK    2  A    between atoms: N_8  and  C_9
REMARK    3  A    between atoms: C_9  and  C_10
REMARK    4  A    between atoms: C_14  and  C_15
REMARK                            x       y       z     vdW  Elec       q    Type
REMARK                         _______ _______ _______ _____ _____    ______ ____
ROOT
ATOM      1  C   UNL     1      45.826   7.725  12.611  0.00  0.00    +0.000 C 
ATOM      2  C   UNL     1      45.740   8.899  11.648  0.00  0.00    +0.000 C 
ATOM      3  C   UNL     1      44.882   8.896  12.870  0.00  0.00    +0.000 C 
ENDROOT
BRANCH   1   8
ATOM      4  C   UNL     1      50.969   8.192  12.421  0.00  0.00    +0.000 A 
ATOM      5  C   UNL     1      50.055   7.900  11.416  0.00  0.00    +0.000 A 
ATOM      6  C   UNL     1      48.719   7.691  11.755  0.00  0.00    +0.000 A 
ATOM      7  C   UNL     1      48.315   7.779  13.083  0.00  0.00    +0.000 A 
ATOM      8  N   UNL     1      46.992   7.585  13.488  0.00  0.00    +0.000 N 
ATOM      9  N   UNL     1      49.199   8.044  14.069  0.00  0.00    +0.000 NA
ATOM     10  C   UNL     1      50.502   8.231  13.725  0.00  0.00    +0.000 A 
ATOM     11  H   UNL     1      46.919   7.790  14.479  0.00  0.00    +0.000 HD
BRANCH   4  13
ATOM     12  N   UNL     1      53.086   7.453  11.491  0.00  0.00    +0.000 N 
ATOM     13  C   UNL     1      52.401   8.434  12.154  0.00  0.00    +0.000 C 
ATOM     14  O   UNL     1      52.945   9.482  12.476  0.00  0.00    +0.000 OA
ATOM     15  H   UNL     1      54.039   7.668  11.227  0.00  0.00    +0.000 HD
ATOM     16  H   UNL     1      52.624   6.697  11.006  0.00  0.00    +0.000 HD
ENDBRANCH   4  13
ENDBRANCH   1   8
BRANCH   1  17
ATOM     17  C   UNL     1      45.132   6.414  12.241  0.00  0.00    +0.000 A 
ATOM     18  C   UNL     1      43.925   6.030  12.853  0.00  0.00    +0.000 A 
ATOM     19  C   UNL     1      43.215   4.917  12.413  0.00  0.00    +0.000 A 
ATOM     20  C   UNL     1      43.690   4.166  11.342  0.00  0.00    +0.000 A 
ATOM     21  C   UNL     1      44.895   4.499  10.703  0.00  0.00    +0.000 A 
ATOM     22  C   UNL     1      45.614   5.598  11.201  0.00  0.00    +0.000 A 
BRANCH  21  23
ATOM     23  C   UNL     1      45.356   3.800   9.490  0.00  0.00    +0.000 A 
ATOM     24  C   UNL     1      45.880   4.505   8.406  0.00  0.00    +0.000 A 
ATOM     25  C   UNL     1      46.357   3.805   7.302  0.00  0.00    +0.000 A 
ATOM     26  C   UNL     1      46.307   2.420   7.308  0.00  0.00    +0.000 A 
ATOM     27  C   UNL     1      45.789   1.789   8.426  0.00  0.00    +0.000 A 
ATOM     28  N   UNL     1      45.321   2.443   9.514  0.00  0.00    +0.000 NA
ENDBRANCH  21  23
ENDBRANCH   1  17
TORSDOF 4
ENDMDL
MODEL 9
REMARK VINA RESULT:    -6.802      2.965      4.048
REMARK INTER + INTRA:          -8.656
REMARK INTER:                  -7.861
REMARK INTRA:                  -0.795
REMARK UNBOUND:                -0.264
REMARK  Name = 
REMARK  4 active torsions:
REMARK  status: ('A' for Active; 'I' for Inactive)
REMARK    1  A    between atoms: C_2  and  C_4
REMARK    2  A    between atoms: N_8  and  C_9
REMARK    3  A    between atoms: C_9  and  C_10
REMARK    4  A    between atoms: C_14  and  C_15
REMARK                            x       y       z     vdW  Elec       q    Type
REMARK                         _______ _______ _______ _____ _____    ______ ____
ROOT
ATOM      1  C   UNL     1      44.060   5.419  11.559  0.00  0.00    +0.000 C 
ATOM      2  C   UNL     1      44.656   4.579  12.679  0.00  0.00    +0.000 C 
ATOM      3  C   UNL     1      43.243   5.050  12.794  0.00  0.00    +0.000 C 
ENDROOT
BRANCH   1   8
ATOM      4  C   UNL     1      46.315   3.570   7.294  0.00  0.00    +0.000 A 
ATOM      5  C   UNL     1      46.742   4.547   8.184  0.00  0.00    +0.000 A 
ATOM      6  C   UNL     1      45.876   4.969   9.192  0.00  0.00    +0.000 A 
ATOM      7  C   UNL     1      44.607   4.411   9.299  0.00  0.00    +0.000 A 
ATOM      8  N   UNL     1      43.695   4.786  10.288  0.00  0.00    +0.000 N 
ATOM      9  N   UNL     1      44.176   3.473   8.427  0.00  0.00    +0.000 NA
ATOM     10  C   UNL     1      45.026   3.083   7.439  0.00  0.00    +0.000 A 
ATOM     11  H   UNL     1      42.880   4.184  10.229  0.00  0.00    +0.000 HD
BRANCH   4  13
ATOM     12  N   UNL     1      48.449   2.708   6.520  0.00  0.00    +0.000 N 
ATOM     13  C   UNL     1      47.166   3.058   6.200  0.00  0.00    +0.000 C 
ATOM     14  O   UNL     1      46.734   2.916   5.064  0.00  0.00    +0.000 OA
ATOM     15  H   UNL     1      48.993   2.268   5.789  0.00  0.00    +0.000 HD
ATOM     16  H   UNL     1      48.760   2.585   7.474  0.00  0.00    +0.000 HD
ENDBRANCH   4  13
ENDBRANCH   1   8
BRANCH   1  17
ATOM     17  C   UNL     1      44.440   6.896  11.461  0.00  0.00    +0.000 A 
ATOM     18  C   UNL     1      43.521   7.857  11.000  0.00  0.00    +0.000 A 
ATOM     19  C   UNL     1      43.812   9.217  11.052  0.00  0.00    +0.000 A 
ATOM     20  C   UNL     1      45.026   9.651  11.577  0.00  0.00    +0.000 A 
ATOM     21  C   UNL     1      45.982   8.734  12.041  0.00  0.00    +0.000 A 
ATOM     22  C   UNL     1      45.681   7.367  11.930  0.00  0.00    +0.000 A 
BRANCH  21  23
ATOM     23  C   UNL     1      47.218   9.167  12.716  0.00  0.00    +0.000 A 
ATOM     24  C   UNL     1      48.121  10.027  12.088  0.00  0.00    +0.000 A 
ATOM     25  C   UNL     1      49.249  10.458  12.781  0.00  0.00    +0.000 A 
ATOM     26  C   UNL     1      49.447  10.026  14.083  0.00  0.00    +0.000 A 
ATOM     27  C   UNL     1      48.501   9.186  14.645  0.00  0.00    +0.000 A 
ATOM     28  N   UNL     1      47.394   8.755  13.998  0.00  0.00    +0.000 NA
ENDBRANCH  21  23
ENDBRANCH   1  17
TORSDOF 4
ENDMDL
