MODEL 1
REMARK VINA RESULT:    -9.356      0.000      0.000
REMARK INTER + INTRA:         -13.794
REMARK INTER:                 -12.912
REMARK INTRA:                  -0.883
REMARK UNBOUND:                -0.883
REMARK  Name = 
REMARK  7 active torsions:
REMARK  status: ('A' for Active; 'I' for Inactive)
REMARK    1  A    between atoms: C_2  and  C_4
REMARK    2  A    between atoms: N_8  and  C_9
REMARK    3  A    between atoms: C_9  and  C_10
REMARK    4  A    between atoms: C_10  and  C_11
REMARK    5  A    between atoms: C_15  and  C_16
REMARK    6  A    between atoms: C_19  and  S_20
REMARK    7  A    between atoms: S_20  and  N_21
REMARK                            x       y       z     vdW  Elec       q    Type
REMARK                         _______ _______ _______ _____ _____    ______ ____
ROOT
ATOM      1  C   UNL     1      45.159   5.872  12.291  0.00  0.00    +0.000 A 
ATOM      2  C   UNL     1      45.983   6.559  11.389  0.00  0.00    +0.000 A 
ATOM      3  C   UNL     1      47.331   6.761  11.665  0.00  0.00    +0.000 A 
ATOM      4  C   UNL     1      47.872   6.293  12.858  0.00  0.00    +0.000 A 
ATOM      5  C   UNL     1      47.079   5.632  13.811  0.00  0.00    +0.000 A 
ATOM      6  C   UNL     1      45.727   5.399  13.488  0.00  0.00    +0.000 A 
ENDROOT
BRANCH   5   7
ATOM      7  C   UNL     1      47.624   5.292  15.141  0.00  0.00    +0.000 A 
ATOM      8  C   UNL     1      48.557   6.151  15.756  0.00  0.00    +0.000 A 
ATOM      9  C   UNL     1      49.029   5.918  17.046  0.00  0.00    +0.000 A 
ATOM     10  C   UNL     1      48.550   4.821  17.757  0.00  0.00    +0.000 A 
ATOM     11  C   UNL     1      47.655   3.926  17.167  0.00  0.00    +0.000 A 
ATOM     12  C   UNL     1      47.199   4.163  15.865  0.00  0.00    +0.000 A 
BRANCH  10  13
ATOM     13  S   UNL     1      49.063   4.592  19.429  0.00  0.00    +0.000 S 
ATOM     14  O   UNL     1      50.499   4.430  19.468  0.00  0.00    +0.000 OA
ATOM     15  O   UNL     1      48.364   5.530  20.279  0.00  0.00    +0.000 OA
BRANCH  13  16
ATOM     16  N   UNL     1      48.412   3.083  19.763  0.00  0.00    +0.000 NA
ATOM     17  H   UNL     1      47.845   2.763  18.979  0.00  0.00    +0.000 HD
ATOM     18  H   UNL     1      49.148   2.438  20.045  0.00  0.00    +0.000 HD
ENDBRANCH  13  16
ENDBRANCH  10  13
ENDBRANCH   5   7
BRANCH   1  19
ATOM     19  C   UNL     1      43.679   5.635  12.050  0.00  0.00    +0.000 C 
BRANCH  19  20
ATOM     20  C   UNL     1      43.379   4.466  11.111  0.00  0.00    +0.000 C 
BRANCH  20  25
ATOM     21  C   UNL     1      46.439   2.328   7.730  0.00  0.00    +0.000 A 
ATOM     22  C   UNL     1      45.620   1.741   8.686  0.00  0.00    +0.000 A 
ATOM     23  C   UNL     1      44.718   2.541   9.382  0.00  0.00    +0.000 A 
ATOM     24  C   UNL     1      44.668   3.914   9.136  0.00  0.00    +0.000 A 
ATOM     25  N   UNL     1      43.736   4.755   9.734  0.00  0.00    +0.000 N 
ATOM     26  N   UNL     1      45.492   4.499   8.248  0.00  0.00    +0.000 NA
ATOM     27  C   UNL     1      46.359   3.702   7.567  0.00  0.00    +0.000 A 
ATOM     28  H   UNL     1      44.024   5.709   9.529  0.00  0.00    +0.000 HD
BRANCH  21  30
ATOM     29  N   UNL     1      48.536   2.152   6.521  0.00  0.00    +0.000 N 
ATOM     30  C   UNL     1      47.366   1.544   6.889  0.00  0.00    +0.000 C 
ATOM     31  O   UNL     1      47.120   0.390   6.574  0.00  0.00    +0.000 OA
ATOM     32  H   UNL     1      49.215   1.565   6.051  0.00  0.00    +0.000 HD
ATOM     33  H   UNL     1      48.878   2.989   6.969  0.00  0.00    +0.000 HD
ENDBRANCH  21  30
ENDBRANCH  20  25
ENDBRANCH  19  20
ENDBRANCH   1  19
TORSDOF 7
ENDMDL
MODEL 2
REMARK VINA RESULT:    -8.437      3.930      4.609
REMARK INTER + INTRA:         -12.525
REMARK INTER:                 -11.439
REMARK INTRA:                  -1.086
REMARK UNBOUND:                -0.883
REMARK  Name = 
REMARK  7 active torsions:
REMARK  status: ('A' for Active; 'I' for Inactive)
REMARK    1  A    between atoms: C_2  and  C_4
REMARK    2  A    between atoms: N_8  and  C_9
REMARK    3  A    between atoms: C_9  and  C_10
REMARK    4  A    between atoms: C_10  and  C_11
REMARK    5  A    between atoms: C_15  and  C_16
REMARK    6  A    between atoms: C_19  and  S_20
REMARK    7  A    between atoms: S_20  and  N_21
REMARK                            x       y       z     vdW  Elec       q    Type
REMARK                         _______ _______ _______ _____ _____    ______ ____
ROOT
ATOM      1  C   UNL     1      45.074   5.477  12.578  0.00  0.00    +0.000 A 
ATOM      2  C   UNL     1      45.309   4.275  13.260  0.00  0.00    +0.000 A 
ATOM      3  C   UNL     1      46.530   4.030  13.877  0.00  0.00    +0.000 A 
ATOM      4  C   UNL     1      47.545   4.979  13.806  0.00  0.00    +0.000 A 
ATOM      5  C   UNL     1      47.372   6.183  13.103  0.00  0.00    +0.000 A 
ATOM      6  C   UNL     1      46.110   6.427  12.525  0.00  0.00    +0.000 A 
ENDROOT
BRANCH   5   7
ATOM      7  C   UNL     1      48.508   7.103  12.891  0.00  0.00    +0.000 A 
ATOM      8  C   UNL     1      49.407   7.359  13.947  0.00  0.00    +0.000 A 
ATOM      9  C   UNL     1      50.542   8.147  13.768  0.00  0.00    +0.000 A 
ATOM     10  C   UNL     1      50.809   8.678  12.509  0.00  0.00    +0.000 A 
ATOM     11  C   UNL     1      49.922   8.478  11.449  0.00  0.00    +0.000 A 
ATOM     12  C   UNL     1      48.778   7.696  11.645  0.00  0.00    +0.000 A 
BRANCH  10  13
ATOM     13  S   UNL     1      52.304   9.581  12.258  0.00  0.00    +0.000 S 
ATOM     14  O   UNL     1      53.428   8.677  12.357  0.00  0.00    +0.000 OA
ATOM     15  O   UNL     1      52.135  10.491  11.147  0.00  0.00    +0.000 OA
BRANCH  13  16
ATOM     16  N   UNL     1      52.343  10.530  13.639  0.00  0.00    +0.000 NA
ATOM     17  H   UNL     1      52.429  11.514  13.388  0.00  0.00    +0.000 HD
ATOM     18  H   UNL     1      51.548  10.313  14.237  0.00  0.00    +0.000 HD
ENDBRANCH  13  16
ENDBRANCH  10  13
ENDBRANCH   5   7
BRANCH   1  19
ATOM     19  C   UNL     1      43.767   5.792  11.874  0.00  0.00    +0.000 C 
BRANCH  19  20
ATOM     20  C   UNL     1      43.290   4.693  10.923  0.00  0.00    +0.000 C 
BRANCH  20  25
ATOM     21  C   UNL     1      46.421   2.317   7.774  0.00  0.00    +0.000 A 
ATOM     22  C   UNL     1      45.534   1.798   8.709  0.00  0.00    +0.000 A 
ATOM     23  C   UNL     1      44.632   2.657   9.331  0.00  0.00    +0.000 A 
ATOM     24  C   UNL     1      44.649   4.020   9.034  0.00  0.00    +0.000 A 
ATOM     25  N   UNL     1      43.723   4.918   9.555  0.00  0.00    +0.000 N 
ATOM     26  N   UNL     1      45.537   4.540   8.167  0.00  0.00    +0.000 NA
ATOM     27  C   UNL     1      46.402   3.686   7.558  0.00  0.00    +0.000 A 
ATOM     28  H   UNL     1      44.058   5.852   9.331  0.00  0.00    +0.000 HD
BRANCH  21  30
ATOM     29  N   UNL     1      48.462   2.078   6.484  0.00  0.00    +0.000 N 
ATOM     30  C   UNL     1      47.354   1.468   7.008  0.00  0.00    +0.000 C 
ATOM     31  O   UNL     1      47.171   0.266   6.885  0.00  0.00    +0.000 OA
ATOM     32  H   UNL     1      49.155   1.466   6.068  0.00  0.00    +0.000 HD
ATOM     33  H   UNL     1      48.770   2.993   6.780  0.00  0.00    +0.000 HD
ENDBRANCH  21  30
ENDBRANCH  20  25
ENDBRANCH  19  20
ENDBRANCH   1  19
TORSDOF 7
ENDMDL
MODEL 3
REMARK VINA RESULT:    -8.080      2.455      2.968
REMARK INTER + INTRA:         -12.033
REMARK INTER:                 -11.433
REMARK INTRA:                  -0.600
REMARK UNBOUND:                -0.883
REMARK  Name = 
REMARK  7 active torsions:
REMARK  status: ('A' for Active; 'I' for Inactive)
REMARK    1  A    between atoms: C_2  and  C_4
REMARK    2  A    between atoms: N_8  and  C_9
REMARK    3  A    between atoms: C_9  and  C_10
REMARK    4  A    between atoms: C_10  and  C_11
REMARK    5  A    between atoms: C_15  and  C_16
REMARK    6  A    between atoms: C_19  and  S_20
REMARK    7  A    between atoms: S_20  and  N_21
REMARK                            x       y       z     vdW  Elec       q    Type
REMARK                         _______ _______ _______ _____ _____    ______ ____
ROOT
ATOM      1  C   UNL     1      45.319   5.890  12.335  0.00  0.00    +0.000 A 
ATOM      2  C   UNL     1      44.675   7.086  11.989  0.00  0.00    +0.000 A 
ATOM      3  C   UNL     1      45.277   8.317  12.229  0.00  0.00    +0.000 A 
ATOM      4  C   UNL     1      46.526   8.370  12.837  0.00  0.00    +0.000 A 
ATOM      5  C   UNL     1      47.195   7.201  13.237  0.00  0.00    +0.000 A 
ATOM      6  C   UNL     1      46.586   5.965  12.942  0.00  0.00    +0.000 A 
ENDROOT
BRANCH   5   7
ATOM      7  C   UNL     1      48.439   7.278  14.032  0.00  0.00    +0.000 A 
ATOM      8  C   UNL     1      48.535   6.576  15.251  0.00  0.00    +0.000 A 
ATOM      9  C   UNL     1      49.717   6.546  15.988  0.00  0.00    +0.000 A 
ATOM     10  C   UNL     1      50.841   7.206  15.497  0.00  0.00    +0.000 A 
ATOM     11  C   UNL     1      50.773   7.944  14.313  0.00  0.00    +0.000 A 
ATOM     12  C   UNL     1      49.575   7.978  13.590  0.00  0.00    +0.000 A 
BRANCH  10  13
ATOM     13  S   UNL     1      52.365   7.073  16.375  0.00  0.00    +0.000 S 
ATOM     14  O   UNL     1      52.648   8.329  17.030  0.00  0.00    +0.000 OA
ATOM     15  O   UNL     1      52.410   5.806  17.071  0.00  0.00    +0.000 OA
BRANCH  13  16
ATOM     16  N   UNL     1      53.457   6.949  15.108  0.00  0.00    +0.000 NA
ATOM     17  H   UNL     1      53.116   6.287  14.412  0.00  0.00    +0.000 HD
ATOM     18  H   UNL     1      53.675   7.874  14.741  0.00  0.00    +0.000 HD
ENDBRANCH  13  16
ENDBRANCH  10  13
ENDBRANCH   5   7
BRANCH   1  19
ATOM     19  C   UNL     1      44.705   4.520  12.111  0.00  0.00    +0.000 C 
BRANCH  19  20
ATOM     20  C   UNL     1      43.491   4.525  11.181  0.00  0.00    +0.000 C 
BRANCH  20  25
ATOM     21  C   UNL     1      46.447   2.359   7.727  0.00  0.00    +0.000 A 
ATOM     22  C   UNL     1      45.616   1.780   8.677  0.00  0.00    +0.000 A 
ATOM     23  C   UNL     1      44.748   2.595   9.399  0.00  0.00    +0.000 A 
ATOM     24  C   UNL     1      44.744   3.973   9.183  0.00  0.00    +0.000 A 
ATOM     25  N   UNL     1      43.846   4.832   9.807  0.00  0.00    +0.000 N 
ATOM     26  N   UNL     1      45.579   4.549   8.299  0.00  0.00    +0.000 NA
ATOM     27  C   UNL     1      46.412   3.738   7.593  0.00  0.00    +0.000 A 
ATOM     28  H   UNL     1      44.165   5.780   9.620  0.00  0.00    +0.000 HD
BRANCH  21  30
ATOM     29  N   UNL     1      48.516   2.146   6.477  0.00  0.00    +0.000 N 
ATOM     30  C   UNL     1      47.339   1.563   6.861  0.00  0.00    +0.000 C 
ATOM     31  O   UNL     1      47.060   0.418   6.537  0.00  0.00    +0.000 OA
ATOM     32  H   UNL     1      49.173   1.549   5.988  0.00  0.00    +0.000 HD
ATOM     33  H   UNL     1      48.887   2.970   6.927  0.00  0.00    +0.000 HD
ENDBRANCH  21  30
ENDBRANCH  20  25
ENDBRANCH  19  20
ENDBRANCH   1  19
TORSDOF 7
ENDMDL
MODEL 4
REMARK VINA RESULT:    -7.883      4.118      4.608
REMARK INTER + INTRA:         -11.762
REMARK INTER:                 -10.894
REMARK INTRA:                  -0.867
REMARK UNBOUND:                -0.883
REMARK  Name = 
REMARK  7 active torsions:
REMARK  status: ('A' for Active; 'I' for Inactive)
REMARK    1  A    between atoms: C_2  and  C_4
REMARK    2  A    between atoms: N_8  and  C_9
REMARK    3  A    between atoms: C_9  and  C_10
REMARK    4  A    between atoms: C_10  and  C_11
REMARK    5  A    between atoms: C_15  and  C_16
REMARK    6  A    between atoms: C_19  and  S_20
REMARK    7  A    between atoms: S_20  and  N_21
REMARK                            x       y       z     vdW  Elec       q    Type
REMARK                         _______ _______ _______ _____ _____    ______ ____
ROOT
ATOM      1  C   UNL     1      45.123   6.248  12.029  0.00  0.00    +0.000 A 
ATOM      2  C   UNL     1      44.315   7.383  11.868  0.00  0.00    +0.000 A 
ATOM      3  C   UNL     1      44.876   8.652  11.783  0.00  0.00    +0.000 A 
ATOM      4  C   UNL     1      46.255   8.809  11.877  0.00  0.00    +0.000 A 
ATOM      5  C   UNL     1      47.103   7.707  12.077  0.00  0.00    +0.000 A 
ATOM      6  C   UNL     1      46.515   6.427  12.114  0.00  0.00    +0.000 A 
ENDROOT
BRANCH   5   7
ATOM      7  C   UNL     1      48.543   7.902  12.345  0.00  0.00    +0.000 A 
ATOM      8  C   UNL     1      49.479   7.717  11.306  0.00  0.00    +0.000 A 
ATOM      9  C   UNL     1      50.836   7.978  11.488  0.00  0.00    +0.000 A 
ATOM     10  C   UNL     1      51.277   8.456  12.719  0.00  0.00    +0.000 A 
ATOM     11  C   UNL     1      50.386   8.614  13.783  0.00  0.00    +0.000 A 
ATOM     12  C   UNL     1      49.028   8.335  13.592  0.00  0.00    +0.000 A 
BRANCH  10  13
ATOM     13  S   UNL     1      52.976   8.892  12.912  0.00  0.00    +0.000 S 
ATOM     14  O   UNL     1      53.141   9.629  14.144  0.00  0.00    +0.000 OA
ATOM     15  O   UNL     1      53.805   7.758  12.568  0.00  0.00    +0.000 OA
BRANCH  13  16
ATOM     16  N   UNL     1      53.166  10.004  11.671  0.00  0.00    +0.000 NA
ATOM     17  H   UNL     1      52.323  10.042  11.100  0.00  0.00    +0.000 HD
ATOM     18  H   UNL     1      53.464  10.902  12.048  0.00  0.00    +0.000 HD
ENDBRANCH  13  16
ENDBRANCH  10  13
ENDBRANCH   5   7
BRANCH   1  19
ATOM     19  C   UNL     1      44.566   4.840  12.142  0.00  0.00    +0.000 C 
BRANCH  19  20
ATOM     20  C   UNL     1      43.474   4.518  11.121  0.00  0.00    +0.000 C 
BRANCH  20  25
ATOM     21  C   UNL     1      46.521   2.499   7.656  0.00  0.00    +0.000 A 
ATOM     22  C   UNL     1      45.673   1.880   8.565  0.00  0.00    +0.000 A 
ATOM     23  C   UNL     1      44.784   2.662   9.297  0.00  0.00    +0.000 A 
ATOM     24  C   UNL     1      44.774   4.048   9.132  0.00  0.00    +0.000 A 
ATOM     25  N   UNL     1      43.857   4.878   9.767  0.00  0.00    +0.000 N 
ATOM     26  N   UNL     1      45.626   4.661   8.290  0.00  0.00    +0.000 NA
ATOM     27  C   UNL     1      46.480   3.882   7.573  0.00  0.00    +0.000 A 
ATOM     28  H   UNL     1      44.174   5.834   9.623  0.00  0.00    +0.000 HD
BRANCH  21  30
ATOM     29  N   UNL     1      48.544   2.401   6.320  0.00  0.00    +0.000 N 
ATOM     30  C   UNL     1      47.438   1.741   6.781  0.00  0.00    +0.000 C 
ATOM     31  O   UNL     1      47.241   0.564   6.517  0.00  0.00    +0.000 OA
ATOM     32  H   UNL     1      49.226   1.838   5.825  0.00  0.00    +0.000 HD
ATOM     33  H   UNL     1      48.865   3.271   6.719  0.00  0.00    +0.000 HD
ENDBRANCH  21  30
ENDBRANCH  20  25
ENDBRANCH  19  20
ENDBRANCH   1  19
TORSDOF 7
ENDMDL
MODEL 5
REMARK VINA RESULT:    -7.833      3.569      8.278
REMARK INTER + INTRA:         -11.692
REMARK INTER:                 -10.349
REMARK INTRA:                  -1.344
REMARK UNBOUND:                -0.883
REMARK  Name = 
REMARK  7 active torsions:
REMARK  status: ('A' for Active; 'I' for Inactive)
REMARK    1  A    between atoms: C_2  and  C_4
REMARK    2  A    between atoms: N_8  and  C_9
REMARK    3  A    between atoms: C_9  and  C_10
REMARK    4  A    between atoms: C_10  and  C_11
REMARK    5  A    between atoms: C_15  and  C_16
REMARK    6  A    between atoms: C_19  and  S_20
REMARK    7  A    between atoms: S_20  and  N_21
REMARK                            x       y       z     vdW  Elec       q    Type
REMARK                         _______ _______ _______ _____ _____    ______ ____
ROOT
ATOM      1  C   UNL     1      48.666   8.568  15.334  0.00  0.00    +0.000 A 
ATOM      2  C   UNL     1      49.978   8.577  14.839  0.00  0.00    +0.000 A 
ATOM      3  C   UNL     1      50.297   7.933  13.649  0.00  0.00    +0.000 A 
ATOM      4  C   UNL     1      49.310   7.253  12.943  0.00  0.00    +0.000 A 
ATOM      5  C   UNL     1      47.989   7.182  13.417  0.00  0.00    +0.000 A 
ATOM      6  C   UNL     1      47.681   7.881  14.601  0.00  0.00    +0.000 A 
ENDROOT
BRANCH   5   7
ATOM      7  C   UNL     1      46.993   6.318  12.750  0.00  0.00    +0.000 A 
ATOM      8  C   UNL     1      46.542   6.642  11.454  0.00  0.00    +0.000 A 
ATOM      9  C   UNL     1      45.674   5.809  10.752  0.00  0.00    +0.000 A 
ATOM     10  C   UNL     1      45.258   4.614  11.334  0.00  0.00    +0.000 A 
ATOM     11  C   UNL     1      45.653   4.279  12.631  0.00  0.00    +0.000 A 
ATOM     12  C   UNL     1      46.514   5.131  13.332  0.00  0.00    +0.000 A 
BRANCH  10  13
ATOM     13  S   UNL     1      44.250   3.509  10.398  0.00  0.00    +0.000 S 
ATOM     14  O   UNL     1      45.082   2.475   9.827  0.00  0.00    +0.000 OA
ATOM     15  O   UNL     1      43.044   3.214  11.140  0.00  0.00    +0.000 OA
BRANCH  13  16
ATOM     16  N   UNL     1      43.787   4.495   9.124  0.00  0.00    +0.000 NA
ATOM     17  H   UNL     1      43.528   5.419   9.469  0.00  0.00    +0.000 HD
ATOM     18  H   UNL     1      44.507   4.499   8.403  0.00  0.00    +0.000 HD
ENDBRANCH  13  16
ENDBRANCH  10  13
ENDBRANCH   5   7
BRANCH   1  19
ATOM     19  C   UNL     1      48.263   9.241  16.634  0.00  0.00    +0.000 C 
BRANCH  19  20
ATOM     20  C   UNL     1      48.724   8.498  17.890  0.00  0.00    +0.000 C 
BRANCH  20  25
ATOM     21  C   UNL     1      49.571   3.584  17.184  0.00  0.00    +0.000 A 
ATOM     22  C   UNL     1      50.439   4.587  17.597  0.00  0.00    +0.000 A 
ATOM     23  C   UNL     1      49.920   5.842  17.902  0.00  0.00    +0.000 A 
ATOM     24  C   UNL     1      48.553   6.085  17.763  0.00  0.00    +0.000 A 
ATOM     25  N   UNL     1      47.959   7.288  18.130  0.00  0.00    +0.000 N 
ATOM     26  N   UNL     1      47.712   5.134  17.317  0.00  0.00    +0.000 NA
ATOM     27  C   UNL     1      48.232   3.909  17.036  0.00  0.00    +0.000 A 
ATOM     28  H   UNL     1      47.008   7.270  17.768  0.00  0.00    +0.000 HD
BRANCH  21  30
ATOM     29  N   UNL     1      50.884   1.645  17.823  0.00  0.00    +0.000 N 
ATOM     30  C   UNL     1      50.022   2.203  16.918  0.00  0.00    +0.000 C 
ATOM     31  O   UNL     1      49.609   1.571  15.957  0.00  0.00    +0.000 OA
ATOM     32  H   UNL     1      51.088   0.661  17.698  0.00  0.00    +0.000 HD
ATOM     33  H   UNL     1      51.036   2.037  18.742  0.00  0.00    +0.000 HD
ENDBRANCH  21  30
ENDBRANCH  20  25
ENDBRANCH  19  20
ENDBRANCH   1  19
TORSDOF 7
ENDMDL
MODEL 6
REMARK VINA RESULT:    -7.832      3.240      3.762
REMARK INTER + INTRA:         -11.691
REMARK INTER:                 -10.497
REMARK INTRA:                  -1.194
REMARK UNBOUND:                -0.883
REMARK  Name = 
REMARK  7 active torsions:
REMARK  status: ('A' for Active; 'I' for Inactive)
REMARK    1  A    between atoms: C_2  and  C_4
REMARK    2  A    between atoms: N_8  and  C_9
REMARK    3  A    between atoms: C_9  and  C_10
REMARK    4  A    between atoms: C_10  and  C_11
REMARK    5  A    between atoms: C_15  and  C_16
REMARK    6  A    between atoms: C_19  and  S_20
REMARK    7  A    between atoms: S_20  and  N_21
REMARK                            x       y       z     vdW  Elec       q    Type
REMARK                         _______ _______ _______ _____ _____    ______ ____
ROOT
ATOM      1  C   UNL     1      44.361   5.641  12.163  0.00  0.00    +0.000 A 
ATOM      2  C   UNL     1      43.687   6.731  11.594  0.00  0.00    +0.000 A 
ATOM      3  C   UNL     1      44.343   7.934  11.361  0.00  0.00    +0.000 A 
ATOM      4  C   UNL     1      45.682   8.073  11.711  0.00  0.00    +0.000 A 
ATOM      5  C   UNL     1      46.391   7.022  12.319  0.00  0.00    +0.000 A 
ATOM      6  C   UNL     1      45.717   5.799  12.503  0.00  0.00    +0.000 A 
ENDROOT
BRANCH   5   7
ATOM      7  C   UNL     1      47.757   7.236  12.839  0.00  0.00    +0.000 A 
ATOM      8  C   UNL     1      48.737   7.822  12.012  0.00  0.00    +0.000 A 
ATOM      9  C   UNL     1      50.011   8.126  12.488  0.00  0.00    +0.000 A 
ATOM     10  C   UNL     1      50.319   7.865  13.821  0.00  0.00    +0.000 A 
ATOM     11  C   UNL     1      49.387   7.250  14.659  0.00  0.00    +0.000 A 
ATOM     12  C   UNL     1      48.115   6.937  14.166  0.00  0.00    +0.000 A 
BRANCH  10  13
ATOM     13  S   UNL     1      51.894   8.354  14.449  0.00  0.00    +0.000 S 
ATOM     14  O   UNL     1      52.870   8.291  13.385  0.00  0.00    +0.000 OA
ATOM     15  O   UNL     1      51.735   9.519  15.290  0.00  0.00    +0.000 OA
BRANCH  13  16
ATOM     16  N   UNL     1      52.240   7.076  15.479  0.00  0.00    +0.000 NA
ATOM     17  H   UNL     1      52.904   7.371  16.194  0.00  0.00    +0.000 HD
ATOM     18  H   UNL     1      51.378   6.674  15.841  0.00  0.00    +0.000 HD
ENDBRANCH  13  16
ENDBRANCH  10  13
ENDBRANCH   5   7
BRANCH   1  19
ATOM     19  C   UNL     1      43.693   4.309  12.454  0.00  0.00    +0.000 C 
BRANCH  19  20
ATOM     20  C   UNL     1      43.409   3.469  11.208  0.00  0.00    +0.000 C 
BRANCH  20  25
ATOM     21  C   UNL     1      46.477   2.766   7.276  0.00  0.00    +0.000 A 
ATOM     22  C   UNL     1      45.994   3.945   7.829  0.00  0.00    +0.000 A 
ATOM     23  C   UNL     1      45.307   3.889   9.039  0.00  0.00    +0.000 A 
ATOM     24  C   UNL     1      45.088   2.660   9.661  0.00  0.00    +0.000 A 
ATOM     25  N   UNL     1      44.485   2.541  10.908  0.00  0.00    +0.000 N 
ATOM     26  N   UNL     1      45.508   1.507   9.108  0.00  0.00    +0.000 NA
ATOM     27  C   UNL     1      46.189   1.580   7.932  0.00  0.00    +0.000 A 
ATOM     28  H   UNL     1      44.286   1.553  11.048  0.00  0.00    +0.000 HD
BRANCH  21  30
ATOM     29  N   UNL     1      48.560   2.256   6.141  0.00  0.00    +0.000 N 
ATOM     30  C   UNL     1      47.284   2.741   6.040  0.00  0.00    +0.000 C 
ATOM     31  O   UNL     1      46.820   3.095   4.967  0.00  0.00    +0.000 OA
ATOM     32  H   UNL     1      49.060   2.128   5.269  0.00  0.00    +0.000 HD
ATOM     33  H   UNL     1      48.879   1.727   6.940  0.00  0.00    +0.000 HD
ENDBRANCH  21  30
ENDBRANCH  20  25
ENDBRANCH  19  20
ENDBRANCH   1  19
TORSDOF 7
ENDMDL
MODEL 7
REMARK VINA RESULT:    -7.765      3.347      8.692
REMARK INTER + INTRA:         -11.599
REMARK INTER:                 -11.136
REMARK INTRA:                  -0.463
REMARK UNBOUND:                -0.883
REMARK  Name = 
REMARK  7 active torsions:
REMARK  status: ('A' for Active; 'I' for Inactive)
REMARK    1  A    between atoms: C_2  and  C_4
REMARK    2  A    between atoms: N_8  and  C_9
REMARK    3  A    between atoms: C_9  and  C_10
REMARK    4  A    between atoms: C_10  and  C_11
REMARK    5  A    between atoms: C_15  and  C_16
REMARK    6  A    between atoms: C_19  and  S_20
REMARK    7  A    between atoms: S_20  and  N_21
REMARK                            x       y       z     vdW  Elec       q    Type
REMARK                         _______ _______ _______ _____ _____    ______ ____
ROOT
ATOM      1  C   UNL     1      44.789   6.556  12.441  0.00  0.00    +0.000 A 
ATOM      2  C   UNL     1      43.463   6.314  12.830  0.00  0.00    +0.000 A 
ATOM      3  C   UNL     1      42.720   5.298  12.239  0.00  0.00    +0.000 A 
ATOM      4  C   UNL     1      43.285   4.519  11.236  0.00  0.00    +0.000 A 
ATOM      5  C   UNL     1      44.597   4.746  10.785  0.00  0.00    +0.000 A 
ATOM      6  C   UNL     1      45.345   5.751  11.431  0.00  0.00    +0.000 A 
ENDROOT
BRANCH   5   7
ATOM      7  C   UNL     1      45.125   4.027   9.608  0.00  0.00    +0.000 A 
ATOM      8  C   UNL     1      45.776   4.744   8.583  0.00  0.00    +0.000 A 
ATOM      9  C   UNL     1      46.369   4.098   7.500  0.00  0.00    +0.000 A 
ATOM     10  C   UNL     1      46.339   2.708   7.438  0.00  0.00    +0.000 A 
ATOM     11  C   UNL     1      45.670   1.966   8.414  0.00  0.00    +0.000 A 
ATOM     12  C   UNL     1      45.066   2.627   9.490  0.00  0.00    +0.000 A 
BRANCH  10  13
ATOM     13  S   UNL     1      47.187   1.889   6.125  0.00  0.00    +0.000 S 
ATOM     14  O   UNL     1      47.166   0.463   6.363  0.00  0.00    +0.000 OA
ATOM     15  O   UNL     1      46.794   2.472   4.861  0.00  0.00    +0.000 OA
BRANCH  13  16
ATOM     16  N   UNL     1      48.764   2.387   6.400  0.00  0.00    +0.000 NA
ATOM     17  H   UNL     1      49.186   2.717   5.533  0.00  0.00    +0.000 HD
ATOM     18  H   UNL     1      48.792   3.057   7.167  0.00  0.00    +0.000 HD
ENDBRANCH  13  16
ENDBRANCH  10  13
ENDBRANCH   5   7
BRANCH   1  19
ATOM     19  C   UNL     1      45.643   7.659  13.039  0.00  0.00    +0.000 C 
BRANCH  19  20
ATOM     20  C   UNL     1      47.067   7.716  12.484  0.00  0.00    +0.000 C 
BRANCH  20  25
ATOM     21  C   UNL     1      47.703   4.219  16.053  0.00  0.00    +0.000 A 
ATOM     22  C   UNL     1      47.218   4.092  14.758  0.00  0.00    +0.000 A 
ATOM     23  C   UNL     1      47.315   5.178  13.892  0.00  0.00    +0.000 A 
ATOM     24  C   UNL     1      47.867   6.379  14.339  0.00  0.00    +0.000 A 
ATOM     25  N   UNL     1      48.070   7.473  13.506  0.00  0.00    +0.000 N 
ATOM     26  N   UNL     1      48.295   6.528  15.607  0.00  0.00    +0.000 NA
ATOM     27  C   UNL     1      48.204   5.453  16.436  0.00  0.00    +0.000 A 
ATOM     28  H   UNL     1      48.310   8.261  14.104  0.00  0.00    +0.000 HD
BRANCH  21  30
ATOM     29  N   UNL     1      48.932   2.548  17.312  0.00  0.00    +0.000 N 
ATOM     30  C   UNL     1      47.715   3.096  17.011  0.00  0.00    +0.000 C 
ATOM     31  O   UNL     1      46.689   2.703  17.546  0.00  0.00    +0.000 OA
ATOM     32  H   UNL     1      48.942   1.864  18.060  0.00  0.00    +0.000 HD
ATOM     33  H   UNL     1      49.805   3.007  17.093  0.00  0.00    +0.000 HD
ENDBRANCH  21  30
ENDBRANCH  20  25
ENDBRANCH  19  20
ENDBRANCH   1  19
TORSDOF 7
ENDMDL
MODEL 8
REMARK VINA RESULT:    -7.289      4.237      8.261
REMARK INTER + INTRA:         -10.942
REMARK INTER:                  -9.627
REMARK INTRA:                  -1.315
REMARK UNBOUND:                -0.883
REMARK  Name = 
REMARK  7 active torsions:
REMARK  status: ('A' for Active; 'I' for Inactive)
REMARK    1  A    between atoms: C_2  and  C_4
REMARK    2  A    between atoms: N_8  and  C_9
REMARK    3  A    between atoms: C_9  and  C_10
REMARK    4  A    between atoms: C_10  and  C_11
REMARK    5  A    between atoms: C_15  and  C_16
REMARK    6  A    between atoms: C_19  and  S_20
REMARK    7  A    between atoms: S_20  and  N_21
REMARK                            x       y       z     vdW  Elec       q    Type
REMARK                         _______ _______ _______ _____ _____    ______ ____
ROOT
ATOM      1  C   UNL     1      50.819   8.611  13.397  0.00  0.00    +0.000 A 
ATOM      2  C   UNL     1      51.533   8.485  12.196  0.00  0.00    +0.000 A 
ATOM      3  C   UNL     1      50.958   7.879  11.084  0.00  0.00    +0.000 A 
ATOM      4  C   UNL     1      49.665   7.373  11.161  0.00  0.00    +0.000 A 
ATOM      5  C   UNL     1      48.924   7.441  12.353  0.00  0.00    +0.000 A 
ATOM      6  C   UNL     1      49.510   8.100  13.452  0.00  0.00    +0.000 A 
ENDROOT
BRANCH   5   7
ATOM      7  C   UNL     1      47.622   6.751  12.472  0.00  0.00    +0.000 A 
ATOM      8  C   UNL     1      46.521   7.198  11.712  0.00  0.00    +0.000 A 
ATOM      9  C   UNL     1      45.302   6.524  11.724  0.00  0.00    +0.000 A 
ATOM     10  C   UNL     1      45.172   5.367  12.487  0.00  0.00    +0.000 A 
ATOM     11  C   UNL     1      46.228   4.916  13.282  0.00  0.00    +0.000 A 
ATOM     12  C   UNL     1      47.443   5.609  13.273  0.00  0.00    +0.000 A 
BRANCH  10  13
ATOM     13  S   UNL     1      43.664   4.454  12.411  0.00  0.00    +0.000 S 
ATOM     14  O   UNL     1      43.138   4.516  11.066  0.00  0.00    +0.000 OA
ATOM     15  O   UNL     1      43.820   3.207  13.127  0.00  0.00    +0.000 OA
BRANCH  13  16
ATOM     16  N   UNL     1      42.660   5.412  13.352  0.00  0.00    +0.000 NA
ATOM     17  H   UNL     1      42.381   6.245  12.835  0.00  0.00    +0.000 HD
ATOM     18  H   UNL     1      41.885   4.858  13.714  0.00  0.00    +0.000 HD
ENDBRANCH  13  16
ENDBRANCH  10  13
ENDBRANCH   5   7
BRANCH   1  19
ATOM     19  C   UNL     1      51.400   9.250  14.646  0.00  0.00    +0.000 C 
BRANCH  19  20
ATOM     20  C   UNL     1      51.029   8.531  15.944  0.00  0.00    +0.000 C 
BRANCH  20  25
ATOM     21  C   UNL     1      48.632   4.387  17.512  0.00  0.00    +0.000 A 
ATOM     22  C   UNL     1      48.122   5.557  16.962  0.00  0.00    +0.000 A 
ATOM     23  C   UNL     1      49.006   6.491  16.428  0.00  0.00    +0.000 A 
ATOM     24  C   UNL     1      50.381   6.258  16.477  0.00  0.00    +0.000 A 
ATOM     25  N   UNL     1      51.312   7.108  15.890  0.00  0.00    +0.000 N 
ATOM     26  N   UNL     1      50.887   5.151  17.051  0.00  0.00    +0.000 NA
ATOM     27  C   UNL     1      50.009   4.243  17.557  0.00  0.00    +0.000 A 
ATOM     28  H   UNL     1      52.229   6.813  16.217  0.00  0.00    +0.000 HD
BRANCH  21  30
ATOM     29  N   UNL     1      48.107   2.759  19.232  0.00  0.00    +0.000 N 
ATOM     30  C   UNL     1      47.766   3.308  18.026  0.00  0.00    +0.000 C 
ATOM     31  O   UNL     1      46.764   2.952  17.423  0.00  0.00    +0.000 OA
ATOM     32  H   UNL     1      47.440   2.109  19.632  0.00  0.00    +0.000 HD
ATOM     33  H   UNL     1      48.762   3.196  19.863  0.00  0.00    +0.000 HD
ENDBRANCH  21  30
ENDBRANCH  20  25
ENDBRANCH  19  20
ENDBRANCH   1  19
TORSDOF 7
ENDMDL
MODEL 9
REMARK VINA RESULT:    -7.210      4.143      8.379
REMARK INTER + INTRA:         -10.832
REMARK INTER:                  -9.071
REMARK INTRA:                  -1.761
REMARK UNBOUND:                -0.883
REMARK  Name = 
REMARK  7 active torsions:
REMARK  status: ('A' for Active; 'I' for Inactive)
REMARK    1  A    between atoms: C_2  and  C_4
REMARK    2  A    between atoms: N_8  and  C_9
REMARK    3  A    between atoms: C_9  and  C_10
REMARK    4  A    between atoms: C_10  and  C_11
REMARK    5  A    between atoms: C_15  and  C_16
REMARK    6  A    between atoms: C_19  and  S_20
REMARK    7  A    between atoms: S_20  and  N_21
REMARK                            x       y       z     vdW  Elec       q    Type
REMARK                         _______ _______ _______ _____ _____    ______ ____
ROOT
ATOM      1  C   UNL     1      49.996   9.061  14.128  0.00  0.00    +0.000 A 
ATOM      2  C   UNL     1      51.011   8.981  13.165  0.00  0.00    +0.000 A 
ATOM      3  C   UNL     1      50.836   8.238  12.003  0.00  0.00    +0.000 A 
ATOM      4  C   UNL     1      49.647   7.548  11.794  0.00  0.00    +0.000 A 
ATOM      5  C   UNL     1      48.614   7.566  12.747  0.00  0.00    +0.000 A 
ATOM      6  C   UNL     1      48.797   8.363  13.895  0.00  0.00    +0.000 A 
ENDROOT
BRANCH   5   7
ATOM      7  C   UNL     1      47.429   6.696  12.593  0.00  0.00    +0.000 A 
ATOM      8  C   UNL     1      47.068   5.816  13.633  0.00  0.00    +0.000 A 
ATOM      9  C   UNL     1      45.909   5.044  13.570  0.00  0.00    +0.000 A 
ATOM     10  C   UNL     1      45.075   5.161  12.462  0.00  0.00    +0.000 A 
ATOM     11  C   UNL     1      45.420   5.993  11.395  0.00  0.00    +0.000 A 
ATOM     12  C   UNL     1      46.593   6.753  11.464  0.00  0.00    +0.000 A 
BRANCH  10  13
ATOM     13  S   UNL     1      43.554   4.267  12.435  0.00  0.00    +0.000 S 
ATOM     14  O   UNL     1      43.000   4.311  11.101  0.00  0.00    +0.000 OA
ATOM     15  O   UNL     1      43.709   3.032  13.172  0.00  0.00    +0.000 OA
BRANCH  13  16
ATOM     16  N   UNL     1      42.582   5.256  13.379  0.00  0.00    +0.000 NA
ATOM     17  H   UNL     1      42.739   6.234  13.142  0.00  0.00    +0.000 HD
ATOM     18  H   UNL     1      41.611   4.956  13.318  0.00  0.00    +0.000 HD
ENDBRANCH  13  16
ENDBRANCH  10  13
ENDBRANCH   5   7
BRANCH   1  19
ATOM     19  C   UNL     1      50.136   9.844  15.421  0.00  0.00    +0.000 C 
BRANCH  19  20
ATOM     20  C   UNL     1      51.059   9.189  16.450  0.00  0.00    +0.000 C 
BRANCH  20  25
ATOM     21  C   UNL     1      48.299   5.121  17.547  0.00  0.00    +0.000 A 
ATOM     22  C   UNL     1      49.454   5.234  16.784  0.00  0.00    +0.000 A 
ATOM     23  C   UNL     1      50.144   6.443  16.783  0.00  0.00    +0.000 A 
ATOM     24  C   UNL     1      49.658   7.525  17.517  0.00  0.00    +0.000 A 
ATOM     25  N   UNL     1      50.341   8.732  17.627  0.00  0.00    +0.000 N 
ATOM     26  N   UNL     1      48.514   7.441  18.220  0.00  0.00    +0.000 NA
ATOM     27  C   UNL     1      47.858   6.249  18.221  0.00  0.00    +0.000 A 
ATOM     28  H   UNL     1      49.701   9.396  18.056  0.00  0.00    +0.000 HD
BRANCH  21  30
ATOM     29  N   UNL     1      47.917   3.012  18.684  0.00  0.00    +0.000 N 
ATOM     30  C   UNL     1      47.550   3.855  17.671  0.00  0.00    +0.000 C 
ATOM     31  O   UNL     1      46.614   3.592  16.930  0.00  0.00    +0.000 OA
ATOM     32  H   UNL     1      47.319   2.208  18.836  0.00  0.00    +0.000 HD
ATOM     33  H   UNL     1      48.499   3.308  19.455  0.00  0.00    +0.000 HD
ENDBRANCH  21  30
ENDBRANCH  20  25
ENDBRANCH  19  20
ENDBRANCH   1  19
TORSDOF 7
ENDMDL
