MODEL 1
REMARK VINA RESULT:    -9.215      0.000      0.000
REMARK INTER + INTRA:         -12.419
REMARK INTER:                 -11.909
REMARK INTRA:                  -0.510
REMARK UNBOUND:                -0.510
REMARK  Name = 
REMARK  5 active torsions:
REMARK  status: ('A' for Active; 'I' for Inactive)
REMARK    1  A    between atoms: C_2  and  C_4
REMARK    2  A    between atoms: N_8  and  C_9
REMARK    3  A    between atoms: C_9  and  C_10
REMARK    4  A    between atoms: C_14  and  C_15
REMARK    5  A    between atoms: C_19  and  C_20
REMARK                            x       y       z     vdW  Elec       q    Type
REMARK                         _______ _______ _______ _____ _____    ______ ____
ROOT
ATOM      1  C   UNL     1      44.011   4.869  11.745  0.00  0.00    +0.000 C 
ATOM      2  C   UNL     1      42.708   4.988  12.521  0.00  0.00    +0.000 C 
ATOM      3  C   UNL     1      42.827   5.661  11.197  0.00  0.00    +0.000 C 
ENDROOT
BRANCH   1   8
ATOM      4  C   UNL     1      46.359   2.799   7.586  0.00  0.00    +0.000 A 
ATOM      5  C   UNL     1      46.188   4.125   7.962  0.00  0.00    +0.000 A 
ATOM      6  C   UNL     1      45.491   4.414   9.138  0.00  0.00    +0.000 A 
ATOM      7  C   UNL     1      44.969   3.381   9.913  0.00  0.00    +0.000 A 
ATOM      8  N   UNL     1      44.345   3.582  11.144  0.00  0.00    +0.000 N 
ATOM      9  N   UNL     1      45.091   2.092   9.527  0.00  0.00    +0.000 NA
ATOM     10  C   UNL     1      45.769   1.828   8.377  0.00  0.00    +0.000 A 
ATOM     11  H   UNL     1      43.956   2.713  11.491  0.00  0.00    +0.000 HD
BRANCH   4  13
ATOM     12  N   UNL     1      47.074   3.209   5.302  0.00  0.00    +0.000 N 
ATOM     13  C   UNL     1      47.134   2.392   6.401  0.00  0.00    +0.000 C 
ATOM     14  O   UNL     1      47.844   1.394   6.405  0.00  0.00    +0.000 OA
ATOM     15  H   UNL     1      47.700   2.987   4.537  0.00  0.00    +0.000 HD
ATOM     16  H   UNL     1      46.716   4.153   5.347  0.00  0.00    +0.000 HD
ENDBRANCH   4  13
ENDBRANCH   1   8
BRANCH   1  17
ATOM     17  C   UNL     1      45.209   5.738  12.106  0.00  0.00    +0.000 A 
ATOM     18  C   UNL     1      45.406   6.992  11.508  0.00  0.00    +0.000 A 
ATOM     19  C   UNL     1      46.422   7.844  11.934  0.00  0.00    +0.000 A 
ATOM     20  C   UNL     1      47.264   7.456  12.978  0.00  0.00    +0.000 A 
ATOM     21  C   UNL     1      47.112   6.211  13.608  0.00  0.00    +0.000 A 
ATOM     22  C   UNL     1      46.100   5.362  13.125  0.00  0.00    +0.000 A 
BRANCH  21  23
ATOM     23  C   UNL     1      47.888   5.836  14.813  0.00  0.00    +0.000 A 
ATOM     24  C   UNL     1      48.768   6.748  15.417  0.00  0.00    +0.000 A 
ATOM     25  C   UNL     1      49.416   6.451  16.618  0.00  0.00    +0.000 A 
ATOM     26  C   UNL     1      49.176   5.241  17.261  0.00  0.00    +0.000 A 
ATOM     27  C   UNL     1      48.301   4.306  16.695  0.00  0.00    +0.000 A 
ATOM     28  C   UNL     1      47.692   4.601  15.462  0.00  0.00    +0.000 A 
BRANCH  27  29
ATOM     29  C   UNL     1      47.961   3.022  17.410  0.00  0.00    +0.000 C 
ATOM     30  F   UNL     1      46.623   2.780  17.493  0.00  0.00    +0.000 F 
ATOM     31  F   UNL     1      48.496   1.932  16.790  0.00  0.00    +0.000 F 
ATOM     32  F   UNL     1      48.430   2.989  18.687  0.00  0.00    +0.000 F 
ENDBRANCH  27  29
ENDBRANCH  21  23
ENDBRANCH   1  17
TORSDOF 5
ENDMDL
MODEL 2
REMARK VINA RESULT:    -8.834      3.546      4.466
REMARK INTER + INTRA:         -11.927
REMARK INTER:                 -10.699
REMARK INTRA:                  -1.227
REMARK UNBOUND:                -0.510
REMARK  Name = 
REMARK  5 active torsions:
REMARK  status: ('A' for Active; 'I' for Inactive)
REMARK    1  A    between atoms: C_2  and  C_4
REMARK    2  A    between atoms: N_8  and  C_9
REMARK    3  A    between atoms: C_9  and  C_10
REMARK    4  A    between atoms: C_14  and  C_15
REMARK    5  A    between atoms: C_19  and  C_20
REMARK                            x       y       z     vdW  Elec       q    Type
REMARK                         _______ _______ _______ _____ _____    ______ ____
ROOT
ATOM      1  C   UNL     1      44.248   5.292  11.125  0.00  0.00    +0.000 C 
ATOM      2  C   UNL     1      42.984   4.467  11.320  0.00  0.00    +0.000 C 
ATOM      3  C   UNL     1      42.902   5.951  11.418  0.00  0.00    +0.000 C 
ENDROOT
BRANCH   1   8
ATOM      4  C   UNL     1      46.640   2.442   7.485  0.00  0.00    +0.000 A 
ATOM      5  C   UNL     1      46.154   2.087   8.737  0.00  0.00    +0.000 A 
ATOM      6  C   UNL     1      45.560   3.066   9.538  0.00  0.00    +0.000 A 
ATOM      7  C   UNL     1      45.469   4.380   9.085  0.00  0.00    +0.000 A 
ATOM      8  N   UNL     1      44.810   5.392   9.782  0.00  0.00    +0.000 N 
ATOM      9  N   UNL     1      45.984   4.739   7.888  0.00  0.00    +0.000 NA
ATOM     10  C   UNL     1      46.562   3.775   7.121  0.00  0.00    +0.000 A 
ATOM     11  H   UNL     1      44.947   6.286   9.325  0.00  0.00    +0.000 HD
BRANCH   4  13
ATOM     12  N   UNL     1      48.179   1.931   5.678  0.00  0.00    +0.000 N 
ATOM     13  C   UNL     1      47.221   1.469   6.543  0.00  0.00    +0.000 C 
ATOM     14  O   UNL     1      46.902   0.286   6.557  0.00  0.00    +0.000 OA
ATOM     15  H   UNL     1      48.657   1.235   5.118  0.00  0.00    +0.000 HD
ATOM     16  H   UNL     1      48.644   2.818   5.808  0.00  0.00    +0.000 HD
ENDBRANCH   4  13
ENDBRANCH   1   8
BRANCH   1  17
ATOM     17  C   UNL     1      45.257   5.440  12.256  0.00  0.00    +0.000 A 
ATOM     18  C   UNL     1      45.368   4.470  13.264  0.00  0.00    +0.000 A 
ATOM     19  C   UNL     1      46.380   4.535  14.221  0.00  0.00    +0.000 A 
ATOM     20  C   UNL     1      47.308   5.576  14.182  0.00  0.00    +0.000 A 
ATOM     21  C   UNL     1      47.240   6.574  13.197  0.00  0.00    +0.000 A 
ATOM     22  C   UNL     1      46.182   6.496  12.272  0.00  0.00    +0.000 A 
BRANCH  21  23
ATOM     23  C   UNL     1      48.294   7.602  13.039  0.00  0.00    +0.000 A 
ATOM     24  C   UNL     1      48.403   8.668  13.946  0.00  0.00    +0.000 A 
ATOM     25  C   UNL     1      49.461   9.578  13.879  0.00  0.00    +0.000 A 
ATOM     26  C   UNL     1      50.455   9.425  12.917  0.00  0.00    +0.000 A 
ATOM     27  C   UNL     1      50.387   8.372  11.998  0.00  0.00    +0.000 A 
ATOM     28  C   UNL     1      49.291   7.491  12.050  0.00  0.00    +0.000 A 
BRANCH  27  29
ATOM     29  C   UNL     1      51.491   8.135  10.999  0.00  0.00    +0.000 C 
ATOM     30  F   UNL     1      51.280   7.056  10.195  0.00  0.00    +0.000 F 
ATOM     31  F   UNL     1      51.658   9.196  10.157  0.00  0.00    +0.000 F 
ATOM     32  F   UNL     1      52.701   7.935  11.587  0.00  0.00    +0.000 F 
ENDBRANCH  27  29
ENDBRANCH  21  23
ENDBRANCH   1  17
TORSDOF 5
ENDMDL
MODEL 3
REMARK VINA RESULT:    -8.794      3.515      4.681
REMARK INTER + INTRA:         -11.875
REMARK INTER:                 -11.323
REMARK INTRA:                  -0.552
REMARK UNBOUND:                -0.510
REMARK  Name = 
REMARK  5 active torsions:
REMARK  status: ('A' for Active; 'I' for Inactive)
REMARK    1  A    between atoms: C_2  and  C_4
REMARK    2  A    between atoms: N_8  and  C_9
REMARK    3  A    between atoms: C_9  and  C_10
REMARK    4  A    between atoms: C_14  and  C_15
REMARK    5  A    between atoms: C_19  and  C_20
REMARK                            x       y       z     vdW  Elec       q    Type
REMARK                         _______ _______ _______ _____ _____    ______ ____
ROOT
ATOM      1  C   UNL     1      44.059   4.758  11.649  0.00  0.00    +0.000 C 
ATOM      2  C   UNL     1      42.629   5.040  12.089  0.00  0.00    +0.000 C 
ATOM      3  C   UNL     1      43.238   5.881  11.021  0.00  0.00    +0.000 C 
ENDROOT
BRANCH   1   8
ATOM      4  C   UNL     1      46.462   3.129   7.329  0.00  0.00    +0.000 A 
ATOM      5  C   UNL     1      46.378   4.394   7.895  0.00  0.00    +0.000 A 
ATOM      6  C   UNL     1      45.642   4.566   9.070  0.00  0.00    +0.000 A 
ATOM      7  C   UNL     1      44.995   3.480   9.655  0.00  0.00    +0.000 A 
ATOM      8  N   UNL     1      44.321   3.550  10.873  0.00  0.00    +0.000 N 
ATOM      9  N   UNL     1      45.034   2.257   9.081  0.00  0.00    +0.000 NA
ATOM     10  C   UNL     1      45.753   2.107   7.935  0.00  0.00    +0.000 A 
ATOM     11  H   UNL     1      43.844   2.678  11.066  0.00  0.00    +0.000 HD
BRANCH   4  13
ATOM     12  N   UNL     1      48.572   2.461   6.328  0.00  0.00    +0.000 N 
ATOM     13  C   UNL     1      47.268   2.835   6.131  0.00  0.00    +0.000 C 
ATOM     14  O   UNL     1      46.788   2.874   5.004  0.00  0.00    +0.000 OA
ATOM     15  H   UNL     1      49.082   2.147   5.511  0.00  0.00    +0.000 HD
ATOM     16  H   UNL     1      48.921   2.172   7.231  0.00  0.00    +0.000 HD
ENDBRANCH   4  13
ENDBRANCH   1   8
BRANCH   1  17
ATOM     17  C   UNL     1      45.235   5.255  12.478  0.00  0.00    +0.000 A 
ATOM     18  C   UNL     1      45.693   4.539  13.596  0.00  0.00    +0.000 A 
ATOM     19  C   UNL     1      46.850   4.919  14.273  0.00  0.00    +0.000 A 
ATOM     20  C   UNL     1      47.578   6.027  13.839  0.00  0.00    +0.000 A 
ATOM     21  C   UNL     1      47.162   6.780  12.730  0.00  0.00    +0.000 A 
ATOM     22  C   UNL     1      45.969   6.390  12.095  0.00  0.00    +0.000 A 
BRANCH  21  23
ATOM     23  C   UNL     1      47.991   7.865  12.155  0.00  0.00    +0.000 A 
ATOM     24  C   UNL     1      47.537   9.194  12.150  0.00  0.00    +0.000 A 
ATOM     25  C   UNL     1      48.353  10.243  11.720  0.00  0.00    +0.000 A 
ATOM     26  C   UNL     1      49.659   9.990  11.310  0.00  0.00    +0.000 A 
ATOM     27  C   UNL     1      50.152   8.680  11.306  0.00  0.00    +0.000 A 
ATOM     28  C   UNL     1      49.302   7.629  11.698  0.00  0.00    +0.000 A 
BRANCH  27  29
ATOM     29  C   UNL     1      51.587   8.387  10.944  0.00  0.00    +0.000 C 
ATOM     30  F   UNL     1      52.156   9.335  10.150  0.00  0.00    +0.000 F 
ATOM     31  F   UNL     1      52.386   8.297  12.045  0.00  0.00    +0.000 F 
ATOM     32  F   UNL     1      51.733   7.206  10.284  0.00  0.00    +0.000 F 
ENDBRANCH  27  29
ENDBRANCH  21  23
ENDBRANCH   1  17
TORSDOF 5
ENDMDL
MODEL 4
REMARK VINA RESULT:    -8.591      2.931      3.846
REMARK INTER + INTRA:         -11.612
REMARK INTER:                 -10.423
REMARK INTRA:                  -1.189
REMARK UNBOUND:                -0.510
REMARK  Name = 
REMARK  5 active torsions:
REMARK  status: ('A' for Active; 'I' for Inactive)
REMARK    1  A    between atoms: C_2  and  C_4
REMARK    2  A    between atoms: N_8  and  C_9
REMARK    3  A    between atoms: C_9  and  C_10
REMARK    4  A    between atoms: C_14  and  C_15
REMARK    5  A    between atoms: C_19  and  C_20
REMARK                            x       y       z     vdW  Elec       q    Type
REMARK                         _______ _______ _______ _____ _____    ______ ____
ROOT
ATOM      1  C   UNL     1      44.241   5.330  11.064  0.00  0.00    +0.000 C 
ATOM      2  C   UNL     1      42.917   4.596  11.224  0.00  0.00    +0.000 C 
ATOM      3  C   UNL     1      42.943   6.080  11.352  0.00  0.00    +0.000 C 
ENDROOT
BRANCH   1   8
ATOM      4  C   UNL     1      46.643   2.422   7.478  0.00  0.00    +0.000 A 
ATOM      5  C   UNL     1      46.127   2.081   8.721  0.00  0.00    +0.000 A 
ATOM      6  C   UNL     1      45.539   3.074   9.508  0.00  0.00    +0.000 A 
ATOM      7  C   UNL     1      45.482   4.388   9.049  0.00  0.00    +0.000 A 
ATOM      8  N   UNL     1      44.830   5.415   9.732  0.00  0.00    +0.000 N 
ATOM      9  N   UNL     1      46.026   4.733   7.861  0.00  0.00    +0.000 NA
ATOM     10  C   UNL     1      46.599   3.755   7.108  0.00  0.00    +0.000 A 
ATOM     11  H   UNL     1      44.993   6.304   9.275  0.00  0.00    +0.000 HD
BRANCH   4  13
ATOM     12  N   UNL     1      48.166   1.887   5.662  0.00  0.00    +0.000 N 
ATOM     13  C   UNL     1      47.222   1.435   6.549  0.00  0.00    +0.000 C 
ATOM     14  O   UNL     1      46.916   0.250   6.591  0.00  0.00    +0.000 OA
ATOM     15  H   UNL     1      48.643   1.184   5.111  0.00  0.00    +0.000 HD
ATOM     16  H   UNL     1      48.623   2.782   5.768  0.00  0.00    +0.000 HD
ENDBRANCH   4  13
ENDBRANCH   1   8
BRANCH   1  17
ATOM     17  C   UNL     1      45.241   5.381  12.212  0.00  0.00    +0.000 A 
ATOM     18  C   UNL     1      45.162   4.483  13.288  0.00  0.00    +0.000 A 
ATOM     19  C   UNL     1      46.152   4.439  14.267  0.00  0.00    +0.000 A 
ATOM     20  C   UNL     1      47.250   5.296  14.185  0.00  0.00    +0.000 A 
ATOM     21  C   UNL     1      47.376   6.216  13.132  0.00  0.00    +0.000 A 
ATOM     22  C   UNL     1      46.338   6.258  12.183  0.00  0.00    +0.000 A 
BRANCH  21  23
ATOM     23  C   UNL     1      48.598   7.030  12.935  0.00  0.00    +0.000 A 
ATOM     24  C   UNL     1      48.860   7.651  11.704  0.00  0.00    +0.000 A 
ATOM     25  C   UNL     1      49.945   8.515  11.538  0.00  0.00    +0.000 A 
ATOM     26  C   UNL     1      50.781   8.801  12.613  0.00  0.00    +0.000 A 
ATOM     27  C   UNL     1      50.551   8.208  13.859  0.00  0.00    +0.000 A 
ATOM     28  C   UNL     1      49.482   7.303  13.998  0.00  0.00    +0.000 A 
BRANCH  27  29
ATOM     29  C   UNL     1      51.391   8.562  15.060  0.00  0.00    +0.000 C 
ATOM     30  F   UNL     1      50.933   9.643  15.750  0.00  0.00    +0.000 F 
ATOM     31  F   UNL     1      51.450   7.543  15.965  0.00  0.00    +0.000 F 
ATOM     32  F   UNL     1      52.683   8.843  14.735  0.00  0.00    +0.000 F 
ENDBRANCH  27  29
ENDBRANCH  21  23
ENDBRANCH   1  17
TORSDOF 5
ENDMDL
MODEL 5
REMARK VINA RESULT:    -8.532      1.473      1.979
REMARK INTER + INTRA:         -11.536
REMARK INTER:                 -11.091
REMARK INTRA:                  -0.445
REMARK UNBOUND:                -0.510
REMARK  Name = 
REMARK  5 active torsions:
REMARK  status: ('A' for Active; 'I' for Inactive)
REMARK    1  A    between atoms: C_2  and  C_4
REMARK    2  A    between atoms: N_8  and  C_9
REMARK    3  A    between atoms: C_9  and  C_10
REMARK    4  A    between atoms: C_14  and  C_15
REMARK    5  A    between atoms: C_19  and  C_20
REMARK                            x       y       z     vdW  Elec       q    Type
REMARK                         _______ _______ _______ _____ _____    ______ ____
ROOT
ATOM      1  C   UNL     1      44.077   4.828  11.689  0.00  0.00    +0.000 C 
ATOM      2  C   UNL     1      42.709   5.118  12.290  0.00  0.00    +0.000 C 
ATOM      3  C   UNL     1      43.134   5.855  11.067  0.00  0.00    +0.000 C 
ENDROOT
BRANCH   1   8
ATOM      4  C   UNL     1      46.370   2.750   7.504  0.00  0.00    +0.000 A 
ATOM      5  C   UNL     1      46.344   4.059   7.965  0.00  0.00    +0.000 A 
ATOM      6  C   UNL     1      45.627   4.358   9.126  0.00  0.00    +0.000 A 
ATOM      7  C   UNL     1      44.940   3.352   9.802  0.00  0.00    +0.000 A 
ATOM      8  N   UNL     1      44.281   3.550  11.014  0.00  0.00    +0.000 N 
ATOM      9  N   UNL     1      44.923   2.085   9.330  0.00  0.00    +0.000 NA
ATOM     10  C   UNL     1      45.624   1.812   8.197  0.00  0.00    +0.000 A 
ATOM     11  H   UNL     1      43.769   2.718  11.280  0.00  0.00    +0.000 HD
BRANCH   4  13
ATOM     12  N   UNL     1      47.044   3.088   5.196  0.00  0.00    +0.000 N 
ATOM     13  C   UNL     1      47.152   2.325   6.330  0.00  0.00    +0.000 C 
ATOM     14  O   UNL     1      47.906   1.360   6.369  0.00  0.00    +0.000 OA
ATOM     15  H   UNL     1      47.673   2.860   4.435  0.00  0.00    +0.000 HD
ATOM     16  H   UNL     1      46.645   4.017   5.204  0.00  0.00    +0.000 HD
ENDBRANCH   4  13
ENDBRANCH   1   8
BRANCH   1  17
ATOM     17  C   UNL     1      45.333   5.442  12.293  0.00  0.00    +0.000 A 
ATOM     18  C   UNL     1      45.810   6.692  11.867  0.00  0.00    +0.000 A 
ATOM     19  C   UNL     1      46.877   7.315  12.510  0.00  0.00    +0.000 A 
ATOM     20  C   UNL     1      47.488   6.697  13.602  0.00  0.00    +0.000 A 
ATOM     21  C   UNL     1      47.053   5.446  14.065  0.00  0.00    +0.000 A 
ATOM     22  C   UNL     1      45.998   4.830  13.367  0.00  0.00    +0.000 A 
BRANCH  21  23
ATOM     23  C   UNL     1      47.580   4.836  15.309  0.00  0.00    +0.000 A 
ATOM     24  C   UNL     1      47.421   3.465  15.563  0.00  0.00    +0.000 A 
ATOM     25  C   UNL     1      48.012   2.854  16.671  0.00  0.00    +0.000 A 
ATOM     26  C   UNL     1      48.802   3.599  17.541  0.00  0.00    +0.000 A 
ATOM     27  C   UNL     1      48.991   4.969  17.321  0.00  0.00    +0.000 A 
ATOM     28  C   UNL     1      48.350   5.578  16.225  0.00  0.00    +0.000 A 
BRANCH  27  29
ATOM     29  C   UNL     1      49.906   5.783  18.200  0.00  0.00    +0.000 C 
ATOM     30  F   UNL     1      49.773   5.513  19.528  0.00  0.00    +0.000 F 
ATOM     31  F   UNL     1      51.221   5.570  17.909  0.00  0.00    +0.000 F 
ATOM     32  F   UNL     1      49.710   7.123  18.066  0.00  0.00    +0.000 F 
ENDBRANCH  27  29
ENDBRANCH  21  23
ENDBRANCH   1  17
TORSDOF 5
ENDMDL
MODEL 6
REMARK VINA RESULT:    -7.827      5.216      8.536
REMARK INTER + INTRA:         -10.625
REMARK INTER:                  -9.546
REMARK INTRA:                  -1.079
REMARK UNBOUND:                -0.510
REMARK  Name = 
REMARK  5 active torsions:
REMARK  status: ('A' for Active; 'I' for Inactive)
REMARK    1  A    between atoms: C_2  and  C_4
REMARK    2  A    between atoms: N_8  and  C_9
REMARK    3  A    between atoms: C_9  and  C_10
REMARK    4  A    between atoms: C_14  and  C_15
REMARK    5  A    between atoms: C_19  and  C_20
REMARK                            x       y       z     vdW  Elec       q    Type
REMARK                         _______ _______ _______ _____ _____    ______ ____
ROOT
ATOM      1  C   UNL     1      48.574   8.613  12.865  0.00  0.00    +0.000 C 
ATOM      2  C   UNL     1      49.713   7.910  12.140  0.00  0.00    +0.000 C 
ATOM      3  C   UNL     1      49.424   9.337  11.824  0.00  0.00    +0.000 C 
ENDROOT
BRANCH   1   8
ATOM      4  C   UNL     1      48.725   6.397  17.573  0.00  0.00    +0.000 A 
ATOM      5  C   UNL     1      48.566   5.835  16.313  0.00  0.00    +0.000 A 
ATOM      6  C   UNL     1      48.542   6.670  15.193  0.00  0.00    +0.000 A 
ATOM      7  C   UNL     1      48.668   8.049  15.347  0.00  0.00    +0.000 A 
ATOM      8  N   UNL     1      48.748   8.940  14.277  0.00  0.00    +0.000 N 
ATOM      9  N   UNL     1      48.774   8.605  16.575  0.00  0.00    +0.000 NA
ATOM     10  C   UNL     1      48.792   7.777  17.655  0.00  0.00    +0.000 A 
ATOM     11  H   UNL     1      48.737   9.896  14.609  0.00  0.00    +0.000 HD
BRANCH   4  13
ATOM     12  N   UNL     1      47.767   4.787  19.117  0.00  0.00    +0.000 N 
ATOM     13  C   UNL     1      48.828   5.595  18.804  0.00  0.00    +0.000 C 
ATOM     14  O   UNL     1      49.836   5.608  19.501  0.00  0.00    +0.000 OA
ATOM     15  H   UNL     1      47.894   4.153  19.897  0.00  0.00    +0.000 HD
ATOM     16  H   UNL     1      47.045   4.558  18.448  0.00  0.00    +0.000 HD
ENDBRANCH   4  13
ENDBRANCH   1   8
BRANCH   1  17
ATOM     17  C   UNL     1      47.130   8.398  12.430  0.00  0.00    +0.000 A 
ATOM     18  C   UNL     1      46.247   9.478  12.277  0.00  0.00    +0.000 A 
ATOM     19  C   UNL     1      44.970   9.298  11.749  0.00  0.00    +0.000 A 
ATOM     20  C   UNL     1      44.552   8.026  11.358  0.00  0.00    +0.000 A 
ATOM     21  C   UNL     1      45.394   6.911  11.493  0.00  0.00    +0.000 A 
ATOM     22  C   UNL     1      46.662   7.125  12.065  0.00  0.00    +0.000 A 
BRANCH  21  23
ATOM     23  C   UNL     1      45.037   5.580  10.950  0.00  0.00    +0.000 A 
ATOM     24  C   UNL     1      43.986   4.833  11.504  0.00  0.00    +0.000 A 
ATOM     25  C   UNL     1      43.561   3.632  10.931  0.00  0.00    +0.000 A 
ATOM     26  C   UNL     1      44.163   3.163   9.767  0.00  0.00    +0.000 A 
ATOM     27  C   UNL     1      45.210   3.880   9.179  0.00  0.00    +0.000 A 
ATOM     28  C   UNL     1      45.657   5.064   9.795  0.00  0.00    +0.000 A 
BRANCH  27  29
ATOM     29  C   UNL     1      45.825   3.438   7.875  0.00  0.00    +0.000 C 
ATOM     30  F   UNL     1      44.935   3.359   6.848  0.00  0.00    +0.000 F 
ATOM     31  F   UNL     1      46.803   4.289   7.453  0.00  0.00    +0.000 F 
ATOM     32  F   UNL     1      46.412   2.213   7.958  0.00  0.00    +0.000 F 
ENDBRANCH  27  29
ENDBRANCH  21  23
ENDBRANCH   1  17
TORSDOF 5
ENDMDL
MODEL 7
REMARK VINA RESULT:    -7.664      5.054      8.350
REMARK INTER + INTRA:         -10.414
REMARK INTER:                  -9.439
REMARK INTRA:                  -0.975
REMARK UNBOUND:                -0.510
REMARK  Name = 
REMARK  5 active torsions:
REMARK  status: ('A' for Active; 'I' for Inactive)
REMARK    1  A    between atoms: C_2  and  C_4
REMARK    2  A    between atoms: N_8  and  C_9
REMARK    3  A    between atoms: C_9  and  C_10
REMARK    4  A    between atoms: C_14  and  C_15
REMARK    5  A    between atoms: C_19  and  C_20
REMARK                            x       y       z     vdW  Elec       q    Type
REMARK                         _______ _______ _______ _____ _____    ______ ____
ROOT
ATOM      1  C   UNL     1      48.560   4.939  17.502  0.00  0.00    +0.000 C 
ATOM      2  C   UNL     1      48.746   5.582  18.869  0.00  0.00    +0.000 C 
ATOM      3  C   UNL     1      47.368   5.269  18.398  0.00  0.00    +0.000 C 
ENDROOT
BRANCH   1   8
ATOM      4  C   UNL     1      52.701   1.807  17.857  0.00  0.00    +0.000 A 
ATOM      5  C   UNL     1      52.570   3.165  18.113  0.00  0.00    +0.000 A 
ATOM      6  C   UNL     1      51.329   3.778  17.918  0.00  0.00    +0.000 A 
ATOM      7  C   UNL     1      50.245   3.031  17.462  0.00  0.00    +0.000 A 
ATOM      8  N   UNL     1      48.956   3.545  17.331  0.00  0.00    +0.000 N 
ATOM      9  N   UNL     1      50.381   1.719  17.165  0.00  0.00    +0.000 NA
ATOM     10  C   UNL     1      51.596   1.139  17.357  0.00  0.00    +0.000 A 
ATOM     11  H   UNL     1      48.345   2.866  16.894  0.00  0.00    +0.000 HD
BRANCH   4  13
ATOM     12  N   UNL     1      54.755   0.822  17.013  0.00  0.00    +0.000 N 
ATOM     13  C   UNL     1      53.948   1.059  18.096  0.00  0.00    +0.000 C 
ATOM     14  O   UNL     1      54.283   0.703  19.219  0.00  0.00    +0.000 OA
ATOM     15  H   UNL     1      55.662   0.414  17.204  0.00  0.00    +0.000 HD
ATOM     16  H   UNL     1      54.643   1.313  16.137  0.00  0.00    +0.000 HD
ENDBRANCH   4  13
ENDBRANCH   1   8
BRANCH   1  17
ATOM     17  C   UNL     1      48.621   5.784  16.236  0.00  0.00    +0.000 A 
ATOM     18  C   UNL     1      49.732   6.595  15.955  0.00  0.00    +0.000 A 
ATOM     19  C   UNL     1      49.850   7.260  14.736  0.00  0.00    +0.000 A 
ATOM     20  C   UNL     1      48.854   7.123  13.769  0.00  0.00    +0.000 A 
ATOM     21  C   UNL     1      47.721   6.327  14.001  0.00  0.00    +0.000 A 
ATOM     22  C   UNL     1      47.618   5.701  15.257  0.00  0.00    +0.000 A 
BRANCH  21  23
ATOM     23  C   UNL     1      46.726   6.041  12.942  0.00  0.00    +0.000 A 
ATOM     24  C   UNL     1      46.915   6.504  11.630  0.00  0.00    +0.000 A 
ATOM     25  C   UNL     1      46.048   6.144  10.596  0.00  0.00    +0.000 A 
ATOM     26  C   UNL     1      44.982   5.285  10.845  0.00  0.00    +0.000 A 
ATOM     27  C   UNL     1      44.762   4.795  12.137  0.00  0.00    +0.000 A 
ATOM     28  C   UNL     1      45.617   5.205  13.177  0.00  0.00    +0.000 A 
BRANCH  27  29
ATOM     29  C   UNL     1      43.665   3.800  12.419  0.00  0.00    +0.000 C 
ATOM     30  F   UNL     1      44.103   2.514  12.517  0.00  0.00    +0.000 F 
ATOM     31  F   UNL     1      43.023   4.062  13.594  0.00  0.00    +0.000 F 
ATOM     32  F   UNL     1      42.698   3.797  11.462  0.00  0.00    +0.000 F 
ENDBRANCH  27  29
ENDBRANCH  21  23
ENDBRANCH   1  17
TORSDOF 5
ENDMDL
MODEL 8
REMARK VINA RESULT:    -7.539      5.464      8.676
REMARK INTER + INTRA:         -10.252
REMARK INTER:                  -9.610
REMARK INTRA:                  -0.642
REMARK UNBOUND:                -0.510
REMARK  Name = 
REMARK  5 active torsions:
REMARK  status: ('A' for Active; 'I' for Inactive)
REMARK    1  A    between atoms: C_2  and  C_4
REMARK    2  A    between atoms: N_8  and  C_9
REMARK    3  A    between atoms: C_9  and  C_10
REMARK    4  A    between atoms: C_14  and  C_15
REMARK    5  A    between atoms: C_19  and  C_20
REMARK                            x       y       z     vdW  Elec       q    Type
REMARK                         _______ _______ _______ _____ _____    ______ ____
ROOT
ATOM      1  C   UNL     1      48.142   4.612  17.127  0.00  0.00    +0.000 C 
ATOM      2  C   UNL     1      48.457   5.447  18.360  0.00  0.00    +0.000 C 
ATOM      3  C   UNL     1      47.082   4.898  18.187  0.00  0.00    +0.000 C 
ENDROOT
BRANCH   1   8
ATOM      4  C   UNL     1      52.588   2.009  17.874  0.00  0.00    +0.000 A 
ATOM      5  C   UNL     1      52.280   3.348  18.071  0.00  0.00    +0.000 A 
ATOM      6  C   UNL     1      50.993   3.802  17.770  0.00  0.00    +0.000 A 
ATOM      7  C   UNL     1      50.039   2.918  17.270  0.00  0.00    +0.000 A 
ATOM      8  N   UNL     1      48.711   3.271  17.034  0.00  0.00    +0.000 N 
ATOM      9  N   UNL     1      50.349   1.624  17.031  0.00  0.00    +0.000 NA
ATOM     10  C   UNL     1      51.607   1.199  17.326  0.00  0.00    +0.000 A 
ATOM     11  H   UNL     1      48.216   2.511  16.583  0.00  0.00    +0.000 HD
BRANCH   4  13
ATOM     12  N   UNL     1      54.765   1.174  17.195  0.00  0.00    +0.000 N 
ATOM     13  C   UNL     1      53.894   1.424  18.224  0.00  0.00    +0.000 C 
ATOM     14  O   UNL     1      54.216   1.210  19.386  0.00  0.00    +0.000 OA
ATOM     15  H   UNL     1      55.701   0.885  17.453  0.00  0.00    +0.000 HD
ATOM     16  H   UNL     1      54.640   1.568  16.272  0.00  0.00    +0.000 HD
ENDBRANCH   4  13
ENDBRANCH   1   8
BRANCH   1  17
ATOM     17  C   UNL     1      47.862   5.283  15.789  0.00  0.00    +0.000 A 
ATOM     18  C   UNL     1      48.695   6.298  15.294  0.00  0.00    +0.000 A 
ATOM     19  C   UNL     1      48.520   6.817  14.013  0.00  0.00    +0.000 A 
ATOM     20  C   UNL     1      47.501   6.324  13.197  0.00  0.00    +0.000 A 
ATOM     21  C   UNL     1      46.637   5.313  13.644  0.00  0.00    +0.000 A 
ATOM     22  C   UNL     1      46.821   4.840  14.956  0.00  0.00    +0.000 A 
BRANCH  21  23
ATOM     23  C   UNL     1      45.649   4.665  12.750  0.00  0.00    +0.000 A 
ATOM     24  C   UNL     1      44.401   4.247  13.240  0.00  0.00    +0.000 A 
ATOM     25  C   UNL     1      43.414   3.743  12.388  0.00  0.00    +0.000 A 
ATOM     26  C   UNL     1      43.644   3.672  11.018  0.00  0.00    +0.000 A 
ATOM     27  C   UNL     1      44.873   4.085  10.489  0.00  0.00    +0.000 A 
ATOM     28  C   UNL     1      45.872   4.546  11.365  0.00  0.00    +0.000 A 
BRANCH  27  29
ATOM     29  C   UNL     1      45.119   4.094   9.001  0.00  0.00    +0.000 C 
ATOM     30  F   UNL     1      45.648   2.933   8.526  0.00  0.00    +0.000 F 
ATOM     31  F   UNL     1      43.972   4.295   8.292  0.00  0.00    +0.000 F 
ATOM     32  F   UNL     1      45.971   5.082   8.615  0.00  0.00    +0.000 F 
ENDBRANCH  27  29
ENDBRANCH  21  23
ENDBRANCH   1  17
TORSDOF 5
ENDMDL
MODEL 9
REMARK VINA RESULT:    -7.343      3.507      5.147
REMARK INTER + INTRA:          -9.999
REMARK INTER:                  -9.035
REMARK INTRA:                  -0.965
REMARK UNBOUND:                -0.510
REMARK  Name = 
REMARK  5 active torsions:
REMARK  status: ('A' for Active; 'I' for Inactive)
REMARK    1  A    between atoms: C_2  and  C_4
REMARK    2  A    between atoms: N_8  and  C_9
REMARK    3  A    between atoms: C_9  and  C_10
REMARK    4  A    between atoms: C_14  and  C_15
REMARK    5  A    between atoms: C_19  and  C_20
REMARK                            x       y       z     vdW  Elec       q    Type
REMARK                         _______ _______ _______ _____ _____    ______ ____
ROOT
ATOM      1  C   UNL     1      48.716   8.628  12.517  0.00  0.00    +0.000 C 
ATOM      2  C   UNL     1      49.708   9.188  11.509  0.00  0.00    +0.000 C 
ATOM      3  C   UNL     1      49.781   7.745  11.872  0.00  0.00    +0.000 C 
ENDROOT
BRANCH   1   8
ATOM      4  C   UNL     1      44.755   5.257  12.717  0.00  0.00    +0.000 A 
ATOM      5  C   UNL     1      46.040   5.173  13.235  0.00  0.00    +0.000 A 
ATOM      6  C   UNL     1      46.930   6.229  13.019  0.00  0.00    +0.000 A 
ATOM      7  C   UNL     1      46.528   7.343  12.286  0.00  0.00    +0.000 A 
ATOM      8  N   UNL     1      47.323   8.475  12.107  0.00  0.00    +0.000 N 
ATOM      9  N   UNL     1      45.294   7.408  11.740  0.00  0.00    +0.000 NA
ATOM     10  C   UNL     1      44.441   6.370  11.956  0.00  0.00    +0.000 A 
ATOM     11  H   UNL     1      46.881   9.122  11.466  0.00  0.00    +0.000 HD
BRANCH   4  13
ATOM     12  N   UNL     1      44.075   2.925  12.693  0.00  0.00    +0.000 N 
ATOM     13  C   UNL     1      43.726   4.227  12.947  0.00  0.00    +0.000 C 
ATOM     14  O   UNL     1      42.620   4.507  13.392  0.00  0.00    +0.000 OA
ATOM     15  H   UNL     1      43.405   2.216  12.966  0.00  0.00    +0.000 HD
ATOM     16  H   UNL     1      45.036   2.635  12.577  0.00  0.00    +0.000 HD
ENDBRANCH   4  13
ENDBRANCH   1   8
BRANCH   1  17
ATOM     17  C   UNL     1      48.925   8.843  14.010  0.00  0.00    +0.000 A 
ATOM     18  C   UNL     1      48.922  10.131  14.568  0.00  0.00    +0.000 A 
ATOM     19  C   UNL     1      48.977  10.321  15.947  0.00  0.00    +0.000 A 
ATOM     20  C   UNL     1      49.033   9.218  16.800  0.00  0.00    +0.000 A 
ATOM     21  C   UNL     1      49.042   7.909  16.294  0.00  0.00    +0.000 A 
ATOM     22  C   UNL     1      49.024   7.757  14.895  0.00  0.00    +0.000 A 
BRANCH  21  23
ATOM     23  C   UNL     1      48.947   6.721  17.174  0.00  0.00    +0.000 A 
ATOM     24  C   UNL     1      49.035   6.848  18.569  0.00  0.00    +0.000 A 
ATOM     25  C   UNL     1      48.830   5.757  19.416  0.00  0.00    +0.000 A 
ATOM     26  C   UNL     1      48.504   4.512  18.886  0.00  0.00    +0.000 A 
ATOM     27  C   UNL     1      48.400   4.344  17.500  0.00  0.00    +0.000 A 
ATOM     28  C   UNL     1      48.654   5.443  16.659  0.00  0.00    +0.000 A 
BRANCH  27  29
ATOM     29  C   UNL     1      47.968   3.029  16.903  0.00  0.00    +0.000 C 
ATOM     30  F   UNL     1      48.961   2.098  16.853  0.00  0.00    +0.000 F 
ATOM     31  F   UNL     1      46.955   2.451  17.610  0.00  0.00    +0.000 F 
ATOM     32  F   UNL     1      47.505   3.155  15.630  0.00  0.00    +0.000 F 
ENDBRANCH  27  29
ENDBRANCH  21  23
ENDBRANCH   1  17
TORSDOF 5
ENDMDL
