MODEL 1
REMARK VINA RESULT:    -9.217      0.000      0.000
REMARK INTER + INTRA:         -13.171
REMARK INTER:                 -12.451
REMARK INTRA:                  -0.721
REMARK UNBOUND:                -0.721
REMARK  Name = 
REMARK  6 active torsions:
REMARK  status: ('A' for Active; 'I' for Inactive)
REMARK    1  A    between atoms: C_2  and  C_4
REMARK    2  A    between atoms: N_8  and  C_9
REMARK    3  A    between atoms: C_9  and  C_10
REMARK    4  A    between atoms: C_10  and  C_13
REMARK    5  A    between atoms: C_15  and  O_16
REMARK    6  A    between atoms: O_16  and  C_17
REMARK                            x       y       z     vdW  Elec       q    Type
REMARK                         _______ _______ _______ _____ _____    ______ ____
ROOT
ATOM      1  C   UNL     1      43.580   4.709  12.627  0.00  0.00    +0.000 C 
ATOM      2  F   UNL     1      42.591   5.506  13.143  0.00  0.00    +0.000 F 
ATOM      3  F   UNL     1      43.377   3.497  13.221  0.00  0.00    +0.000 F 
ENDROOT
BRANCH   1   4
ATOM      4  C   UNL     1      44.953   5.295  12.900  0.00  0.00    +0.000 A 
ATOM      5  C   UNL     1      45.826   4.584  13.749  0.00  0.00    +0.000 A 
ATOM      6  C   UNL     1      47.102   5.065  14.057  0.00  0.00    +0.000 A 
ATOM      7  C   UNL     1      47.524   6.279  13.535  0.00  0.00    +0.000 A 
ATOM      8  C   UNL     1      46.672   7.002  12.696  0.00  0.00    +0.000 A 
ATOM      9  C   UNL     1      45.395   6.519  12.381  0.00  0.00    +0.000 A 
ATOM     10 CL   UNL     1      44.409   7.512  11.371  0.00  0.00    +0.000 Cl
BRANCH   6  11
ATOM     11  O   UNL     1      47.833   4.281  14.910  0.00  0.00    +0.000 OA
BRANCH  11  12
ATOM     12  C   UNL     1      47.311   4.016  16.232  0.00  0.00    +0.000 C 
ATOM     13  C   UNL     1      47.811   4.884  17.396  0.00  0.00    +0.000 C 
ATOM     14  O   UNL     1      48.283   3.729  18.127  0.00  0.00    +0.000 OA
ATOM     15  C   UNL     1      48.004   2.876  16.993  0.00  0.00    +0.000 C 
ENDBRANCH  11  12
ENDBRANCH   6  11
ENDBRANCH   1   4
BRANCH   1  16
ATOM     16  C   UNL     1      43.330   4.572  11.101  0.00  0.00    +0.000 C 
BRANCH  16  21
ATOM     17  C   UNL     1      46.521   2.677   7.519  0.00  0.00    +0.000 A 
ATOM     18  C   UNL     1      46.111   3.980   7.777  0.00  0.00    +0.000 A 
ATOM     19  C   UNL     1      45.184   4.212   8.794  0.00  0.00    +0.000 A 
ATOM     20  C   UNL     1      44.686   3.147   9.539  0.00  0.00    +0.000 A 
ATOM     21  N   UNL     1      43.774   3.295  10.547  0.00  0.00    +0.000 N 
ATOM     22  N   UNL     1      45.069   1.881   9.284  0.00  0.00    +0.000 NA
ATOM     23  C   UNL     1      45.961   1.666   8.279  0.00  0.00    +0.000 A 
ATOM     24  H   UNL     1      43.562   2.434  11.043  0.00  0.00    +0.000 HD
BRANCH  17  26
ATOM     25  N   UNL     1      47.521   3.132   5.355  0.00  0.00    +0.000 N 
ATOM     26  C   UNL     1      47.504   2.340   6.469  0.00  0.00    +0.000 C 
ATOM     27  O   UNL     1      48.294   1.414   6.600  0.00  0.00    +0.000 OA
ATOM     28  H   UNL     1      48.269   2.962   4.693  0.00  0.00    +0.000 HD
ATOM     29  H   UNL     1      47.073   4.037   5.325  0.00  0.00    +0.000 HD
ENDBRANCH  17  26
ENDBRANCH  16  21
ENDBRANCH   1  16
TORSDOF 6
ENDMDL
MODEL 2
REMARK VINA RESULT:    -8.726      2.822      4.305
REMARK INTER + INTRA:         -12.507
REMARK INTER:                 -11.907
REMARK INTRA:                  -0.600
REMARK UNBOUND:                -0.721
REMARK  Name = 
REMARK  6 active torsions:
REMARK  status: ('A' for Active; 'I' for Inactive)
REMARK    1  A    between atoms: C_2  and  C_4
REMARK    2  A    between atoms: N_8  and  C_9
REMARK    3  A    between atoms: C_9  and  C_10
REMARK    4  A    between atoms: C_10  and  C_13
REMARK    5  A    between atoms: C_15  and  O_16
REMARK    6  A    between atoms: O_16  and  C_17
REMARK                            x       y       z     vdW  Elec       q    Type
REMARK                         _______ _______ _______ _____ _____    ______ ____
ROOT
ATOM      1  C   UNL     1      43.482   4.617  12.472  0.00  0.00    +0.000 C 
ATOM      2  F   UNL     1      42.426   5.095  13.203  0.00  0.00    +0.000 F 
ATOM      3  F   UNL     1      43.629   3.328  12.899  0.00  0.00    +0.000 F 
ENDROOT
BRANCH   1   4
ATOM      4  C   UNL     1      44.722   5.468  12.680  0.00  0.00    +0.000 A 
ATOM      5  C   UNL     1      44.572   6.870  12.716  0.00  0.00    +0.000 A 
ATOM      6  C   UNL     1      45.667   7.720  12.892  0.00  0.00    +0.000 A 
ATOM      7  C   UNL     1      46.940   7.185  13.018  0.00  0.00    +0.000 A 
ATOM      8  C   UNL     1      47.112   5.799  12.980  0.00  0.00    +0.000 A 
ATOM      9  C   UNL     1      46.014   4.944  12.809  0.00  0.00    +0.000 A 
ATOM     10 CL   UNL     1      46.345   3.252  12.733  0.00  0.00    +0.000 Cl
BRANCH   6  11
ATOM     11  O   UNL     1      45.376   9.059  12.886  0.00  0.00    +0.000 OA
BRANCH  11  12
ATOM     12  C   UNL     1      45.394   9.770  11.627  0.00  0.00    +0.000 C 
ATOM     13  C   UNL     1      45.301  11.302  11.658  0.00  0.00    +0.000 C 
ATOM     14  O   UNL     1      44.117  11.302  10.826  0.00  0.00    +0.000 OA
ATOM     15  C   UNL     1      44.041   9.860  10.906  0.00  0.00    +0.000 C 
ENDBRANCH  11  12
ENDBRANCH   6  11
ENDBRANCH   1   4
BRANCH   1  16
ATOM     16  C   UNL     1      43.061   4.610  10.978  0.00  0.00    +0.000 C 
BRANCH  16  21
ATOM     17  C   UNL     1      46.491   2.531   7.734  0.00  0.00    +0.000 A 
ATOM     18  C   UNL     1      45.642   1.942   8.664  0.00  0.00    +0.000 A 
ATOM     19  C   UNL     1      44.838   2.756   9.463  0.00  0.00    +0.000 A 
ATOM     20  C   UNL     1      44.887   4.140   9.319  0.00  0.00    +0.000 A 
ATOM     21  N   UNL     1      44.133   5.002  10.066  0.00  0.00    +0.000 N 
ATOM     22  N   UNL     1      45.718   4.717   8.429  0.00  0.00    +0.000 NA
ATOM     23  C   UNL     1      46.509   3.913   7.668  0.00  0.00    +0.000 A 
ATOM     24  H   UNL     1      44.228   5.977   9.794  0.00  0.00    +0.000 HD
BRANCH  17  26
ATOM     25  N   UNL     1      48.451   2.393   6.310  0.00  0.00    +0.000 N 
ATOM     26  C   UNL     1      47.370   1.747   6.842  0.00  0.00    +0.000 C 
ATOM     27  O   UNL     1      47.163   0.563   6.613  0.00  0.00    +0.000 OA
ATOM     28  H   UNL     1      49.106   1.821   5.790  0.00  0.00    +0.000 HD
ATOM     29  H   UNL     1      48.790   3.274   6.671  0.00  0.00    +0.000 HD
ENDBRANCH  17  26
ENDBRANCH  16  21
ENDBRANCH   1  16
TORSDOF 6
ENDMDL
MODEL 3
REMARK VINA RESULT:    -8.398      2.068      2.362
REMARK INTER + INTRA:         -12.065
REMARK INTER:                 -11.378
REMARK INTRA:                  -0.687
REMARK UNBOUND:                -0.721
REMARK  Name = 
REMARK  6 active torsions:
REMARK  status: ('A' for Active; 'I' for Inactive)
REMARK    1  A    between atoms: C_2  and  C_4
REMARK    2  A    between atoms: N_8  and  C_9
REMARK    3  A    between atoms: C_9  and  C_10
REMARK    4  A    between atoms: C_10  and  C_13
REMARK    5  A    between atoms: C_15  and  O_16
REMARK    6  A    between atoms: O_16  and  C_17
REMARK                            x       y       z     vdW  Elec       q    Type
REMARK                         _______ _______ _______ _____ _____    ______ ____
ROOT
ATOM      1  C   UNL     1      44.241   3.725  12.503  0.00  0.00    +0.000 C 
ATOM      2  F   UNL     1      43.375   3.788  13.564  0.00  0.00    +0.000 F 
ATOM      3  F   UNL     1      45.076   2.691  12.813  0.00  0.00    +0.000 F 
ENDROOT
BRANCH   1   4
ATOM      4  C   UNL     1      44.960   5.047  12.306  0.00  0.00    +0.000 A 
ATOM      5  C   UNL     1      46.304   5.145  12.722  0.00  0.00    +0.000 A 
ATOM      6  C   UNL     1      47.030   6.332  12.584  0.00  0.00    +0.000 A 
ATOM      7  C   UNL     1      46.418   7.453  12.043  0.00  0.00    +0.000 A 
ATOM      8  C   UNL     1      45.085   7.379  11.629  0.00  0.00    +0.000 A 
ATOM      9  C   UNL     1      44.358   6.188  11.761  0.00  0.00    +0.000 A 
ATOM     10 CL   UNL     1      42.707   6.220  11.259  0.00  0.00    +0.000 Cl
BRANCH   6  11
ATOM     11  O   UNL     1      48.318   6.289  13.050  0.00  0.00    +0.000 OA
BRANCH  11  12
ATOM     12  C   UNL     1      48.809   7.395  13.841  0.00  0.00    +0.000 C 
ATOM     13  C   UNL     1      50.325   7.633  13.890  0.00  0.00    +0.000 C 
ATOM     14  O   UNL     1      50.352   7.517  15.332  0.00  0.00    +0.000 OA
ATOM     15  C   UNL     1      48.965   7.107  15.342  0.00  0.00    +0.000 C 
ENDBRANCH  11  12
ENDBRANCH   6  11
ENDBRANCH   1   4
BRANCH   1  16
ATOM     16  C   UNL     1      43.418   3.349  11.241  0.00  0.00    +0.000 C 
BRANCH  16  21
ATOM     17  C   UNL     1      46.580   2.694   7.218  0.00  0.00    +0.000 A 
ATOM     18  C   UNL     1      45.979   3.840   7.730  0.00  0.00    +0.000 A 
ATOM     19  C   UNL     1      45.112   3.725   8.817  0.00  0.00    +0.000 A 
ATOM     20  C   UNL     1      44.862   2.477   9.381  0.00  0.00    +0.000 A 
ATOM     21  N   UNL     1      44.023   2.285  10.443  0.00  0.00    +0.000 N 
ATOM     22  N   UNL     1      45.430   1.362   8.881  0.00  0.00    +0.000 NA
ATOM     23  C   UNL     1      46.260   1.485   7.810  0.00  0.00    +0.000 A 
ATOM     24  H   UNL     1      44.001   1.328  10.785  0.00  0.00    +0.000 HD
BRANCH  17  26
ATOM     25  N   UNL     1      48.828   2.438   6.340  0.00  0.00    +0.000 N 
ATOM     26  C   UNL     1      47.516   2.722   6.076  0.00  0.00    +0.000 C 
ATOM     27  O   UNL     1      47.135   2.956   4.937  0.00  0.00    +0.000 OA
ATOM     28  H   UNL     1      49.439   2.352   5.538  0.00  0.00    +0.000 HD
ATOM     29  H   UNL     1      49.126   1.999   7.200  0.00  0.00    +0.000 HD
ENDBRANCH  17  26
ENDBRANCH  16  21
ENDBRANCH   1  16
TORSDOF 6
ENDMDL
MODEL 4
REMARK VINA RESULT:    -8.370      2.371      3.597
REMARK INTER + INTRA:         -12.026
REMARK INTER:                 -11.009
REMARK INTRA:                  -1.018
REMARK UNBOUND:                -0.721
REMARK  Name = 
REMARK  6 active torsions:
REMARK  status: ('A' for Active; 'I' for Inactive)
REMARK    1  A    between atoms: C_2  and  C_4
REMARK    2  A    between atoms: N_8  and  C_9
REMARK    3  A    between atoms: C_9  and  C_10
REMARK    4  A    between atoms: C_10  and  C_13
REMARK    5  A    between atoms: C_15  and  O_16
REMARK    6  A    between atoms: O_16  and  C_17
REMARK                            x       y       z     vdW  Elec       q    Type
REMARK                         _______ _______ _______ _____ _____    ______ ____
ROOT
ATOM      1  C   UNL     1      43.507   5.875  11.890  0.00  0.00    +0.000 C 
ATOM      2  F   UNL     1      43.425   7.204  11.566  0.00  0.00    +0.000 F 
ATOM      3  F   UNL     1      42.443   5.665  12.718  0.00  0.00    +0.000 F 
ENDROOT
BRANCH   1   4
ATOM      4  C   UNL     1      44.845   5.549  12.528  0.00  0.00    +0.000 A 
ATOM      5  C   UNL     1      45.804   6.578  12.631  0.00  0.00    +0.000 A 
ATOM      6  C   UNL     1      47.063   6.354  13.196  0.00  0.00    +0.000 A 
ATOM      7  C   UNL     1      47.395   5.087  13.653  0.00  0.00    +0.000 A 
ATOM      8  C   UNL     1      46.462   4.052  13.556  0.00  0.00    +0.000 A 
ATOM      9  C   UNL     1      45.197   4.277  12.995  0.00  0.00    +0.000 A 
ATOM     10 CL   UNL     1      44.138   2.919  12.884  0.00  0.00    +0.000 Cl
BRANCH   6  11
ATOM     11  O   UNL     1      47.900   7.438  13.212  0.00  0.00    +0.000 OA
BRANCH  11  12
ATOM     12  C   UNL     1      48.534   7.847  11.978  0.00  0.00    +0.000 C 
ATOM     13  C   UNL     1      50.068   7.894  11.932  0.00  0.00    +0.000 C 
ATOM     14  O   UNL     1      50.068   9.293  11.565  0.00  0.00    +0.000 OA
ATOM     15  C   UNL     1      48.638   9.364  11.768  0.00  0.00    +0.000 C 
ENDBRANCH  11  12
ENDBRANCH   6  11
ENDBRANCH   1   4
BRANCH   1  16
ATOM     16  C   UNL     1      43.303   5.056  10.586  0.00  0.00    +0.000 C 
BRANCH  16  21
ATOM     17  C   UNL     1      46.510   2.277   7.653  0.00  0.00    +0.000 A 
ATOM     18  C   UNL     1      45.645   1.896   8.674  0.00  0.00    +0.000 A 
ATOM     19  C   UNL     1      44.916   2.876   9.349  0.00  0.00    +0.000 A 
ATOM     20  C   UNL     1      45.054   4.215   8.995  0.00  0.00    +0.000 A 
ATOM     21  N   UNL     1      44.377   5.230   9.611  0.00  0.00    +0.000 N 
ATOM     22  N   UNL     1      45.901   4.592   8.017  0.00  0.00    +0.000 NA
ATOM     23  C   UNL     1      46.618   3.629   7.377  0.00  0.00    +0.000 A 
ATOM     24  H   UNL     1      44.530   6.144   9.193  0.00  0.00    +0.000 HD
BRANCH  17  26
ATOM     25  N   UNL     1      48.276   1.818   6.052  0.00  0.00    +0.000 N 
ATOM     26  C   UNL     1      47.314   1.309   6.880  0.00  0.00    +0.000 C 
ATOM     27  O   UNL     1      47.153   0.101   6.997  0.00  0.00    +0.000 OA
ATOM     28  H   UNL     1      48.892   1.146   5.612  0.00  0.00    +0.000 HD
ATOM     29  H   UNL     1      48.603   2.772   6.122  0.00  0.00    +0.000 HD
ENDBRANCH  17  26
ENDBRANCH  16  21
ENDBRANCH   1  16
TORSDOF 6
ENDMDL
MODEL 5
REMARK VINA RESULT:    -7.805      2.880      7.980
REMARK INTER + INTRA:         -11.264
REMARK INTER:                 -11.030
REMARK INTRA:                  -0.233
REMARK UNBOUND:                -0.721
REMARK  Name = 
REMARK  6 active torsions:
REMARK  status: ('A' for Active; 'I' for Inactive)
REMARK    1  A    between atoms: C_2  and  C_4
REMARK    2  A    between atoms: N_8  and  C_9
REMARK    3  A    between atoms: C_9  and  C_10
REMARK    4  A    between atoms: C_10  and  C_13
REMARK    5  A    between atoms: C_15  and  O_16
REMARK    6  A    between atoms: O_16  and  C_17
REMARK                            x       y       z     vdW  Elec       q    Type
REMARK                         _______ _______ _______ _____ _____    ______ ____
ROOT
ATOM      1  C   UNL     1      45.202   6.127  11.554  0.00  0.00    +0.000 C 
ATOM      2  F   UNL     1      44.158   6.292  12.427  0.00  0.00    +0.000 F 
ATOM      3  F   UNL     1      45.223   7.286  10.833  0.00  0.00    +0.000 F 
ENDROOT
BRANCH   1   4
ATOM      4  C   UNL     1      45.010   4.886  10.700  0.00  0.00    +0.000 A 
ATOM      5  C   UNL     1      45.641   4.838   9.440  0.00  0.00    +0.000 A 
ATOM      6  C   UNL     1      45.502   3.736   8.592  0.00  0.00    +0.000 A 
ATOM      7  C   UNL     1      44.711   2.664   8.981  0.00  0.00    +0.000 A 
ATOM      8  C   UNL     1      44.072   2.694  10.223  0.00  0.00    +0.000 A 
ATOM      9  C   UNL     1      44.216   3.796  11.077  0.00  0.00    +0.000 A 
ATOM     10 CL   UNL     1      43.348   3.749  12.568  0.00  0.00    +0.000 Cl
BRANCH   6  11
ATOM     11  O   UNL     1      46.154   3.834   7.391  0.00  0.00    +0.000 OA
BRANCH  11  12
ATOM     12  C   UNL     1      46.412   2.627   6.638  0.00  0.00    +0.000 C 
ATOM     13  C   UNL     1      47.460   1.645   7.180  0.00  0.00    +0.000 C 
ATOM     14  O   UNL     1      48.240   1.720   5.964  0.00  0.00    +0.000 OA
ATOM     15  C   UNL     1      47.394   2.783   5.468  0.00  0.00    +0.000 C 
ENDBRANCH  11  12
ENDBRANCH   6  11
ENDBRANCH   1   4
BRANCH   1  16
ATOM     16  C   UNL     1      46.507   6.027  12.389  0.00  0.00    +0.000 C 
BRANCH  16  21
ATOM     17  C   UNL     1      48.270   4.608  17.024  0.00  0.00    +0.000 A 
ATOM     18  C   UNL     1      48.493   5.759  16.276  0.00  0.00    +0.000 A 
ATOM     19  C   UNL     1      47.923   5.866  15.007  0.00  0.00    +0.000 A 
ATOM     20  C   UNL     1      47.137   4.833  14.507  0.00  0.00    +0.000 A 
ATOM     21  N   UNL     1      46.548   4.864  13.273  0.00  0.00    +0.000 N 
ATOM     22  N   UNL     1      46.928   3.709  15.221  0.00  0.00    +0.000 NA
ATOM     23  C   UNL     1      47.503   3.610  16.450  0.00  0.00    +0.000 A 
ATOM     24  H   UNL     1      45.948   4.067  13.080  0.00  0.00    +0.000 HD
BRANCH  17  26
ATOM     25  N   UNL     1      48.415   3.303  19.066  0.00  0.00    +0.000 N 
ATOM     26  C   UNL     1      48.826   4.412  18.379  0.00  0.00    +0.000 C 
ATOM     27  O   UNL     1      49.643   5.186  18.857  0.00  0.00    +0.000 OA
ATOM     28  H   UNL     1      48.883   3.119  19.945  0.00  0.00    +0.000 HD
ATOM     29  H   UNL     1      47.952   2.525  18.616  0.00  0.00    +0.000 HD
ENDBRANCH  17  26
ENDBRANCH  16  21
ENDBRANCH   1  16
TORSDOF 6
ENDMDL
MODEL 6
REMARK VINA RESULT:    -7.052      3.997      7.582
REMARK INTER + INTRA:         -10.246
REMARK INTER:                  -9.871
REMARK INTRA:                  -0.375
REMARK UNBOUND:                -0.721
REMARK  Name = 
REMARK  6 active torsions:
REMARK  status: ('A' for Active; 'I' for Inactive)
REMARK    1  A    between atoms: C_2  and  C_4
REMARK    2  A    between atoms: N_8  and  C_9
REMARK    3  A    between atoms: C_9  and  C_10
REMARK    4  A    between atoms: C_10  and  C_13
REMARK    5  A    between atoms: C_15  and  O_16
REMARK    6  A    between atoms: O_16  and  C_17
REMARK                            x       y       z     vdW  Elec       q    Type
REMARK                         _______ _______ _______ _____ _____    ______ ____
ROOT
ATOM      1  C   UNL     1      44.801   5.751  11.277  0.00  0.00    +0.000 C 
ATOM      2  F   UNL     1      43.544   6.133  11.669  0.00  0.00    +0.000 F 
ATOM      3  F   UNL     1      45.287   6.835  10.606  0.00  0.00    +0.000 F 
ENDROOT
BRANCH   1   4
ATOM      4  C   UNL     1      44.751   4.489  10.435  0.00  0.00    +0.000 A 
ATOM      5  C   UNL     1      45.279   4.536   9.129  0.00  0.00    +0.000 A 
ATOM      6  C   UNL     1      45.258   3.419   8.288  0.00  0.00    +0.000 A 
ATOM      7  C   UNL     1      44.691   2.234   8.734  0.00  0.00    +0.000 A 
ATOM      8  C   UNL     1      44.156   2.167  10.023  0.00  0.00    +0.000 A 
ATOM      9  C   UNL     1      44.182   3.285  10.869  0.00  0.00    +0.000 A 
ATOM     10 CL   UNL     1      43.455   3.105  12.424  0.00  0.00    +0.000 Cl
BRANCH   6  11
ATOM     11  O   UNL     1      45.788   3.614   7.040  0.00  0.00    +0.000 OA
BRANCH  11  12
ATOM     12  C   UNL     1      47.169   3.257   6.805  0.00  0.00    +0.000 C 
ATOM     13  C   UNL     1      47.567   2.791   5.398  0.00  0.00    +0.000 C 
ATOM     14  O   UNL     1      48.069   1.530   5.898  0.00  0.00    +0.000 OA
ATOM     15  C   UNL     1      47.554   1.829   7.216  0.00  0.00    +0.000 C 
ENDBRANCH  11  12
ENDBRANCH   6  11
ENDBRANCH   1   4
BRANCH   1  16
ATOM     16  C   UNL     1      45.649   5.527  12.558  0.00  0.00    +0.000 C 
BRANCH  16  21
ATOM     17  C   UNL     1      49.331   9.140  12.622  0.00  0.00    +0.000 A 
ATOM     18  C   UNL     1      49.272   7.909  11.977  0.00  0.00    +0.000 A 
ATOM     19  C   UNL     1      48.158   7.091  12.175  0.00  0.00    +0.000 A 
ATOM     20  C   UNL     1      47.123   7.512  13.004  0.00  0.00    +0.000 A 
ATOM     21  N   UNL     1      46.004   6.765  13.248  0.00  0.00    +0.000 N 
ATOM     22  N   UNL     1      47.182   8.697  13.643  0.00  0.00    +0.000 NA
ATOM     23  C   UNL     1      48.280   9.478  13.455  0.00  0.00    +0.000 A 
ATOM     24  H   UNL     1      45.307   7.239  13.817  0.00  0.00    +0.000 HD
BRANCH  17  26
ATOM     25  N   UNL     1      51.169  10.005  11.293  0.00  0.00    +0.000 N 
ATOM     26  C   UNL     1      50.466  10.073  12.464  0.00  0.00    +0.000 C 
ATOM     27  O   UNL     1      50.747  10.895  13.326  0.00  0.00    +0.000 OA
ATOM     28  H   UNL     1      51.872  10.719  11.149  0.00  0.00    +0.000 HD
ATOM     29  H   UNL     1      50.816   9.529  10.475  0.00  0.00    +0.000 HD
ENDBRANCH  17  26
ENDBRANCH  16  21
ENDBRANCH   1  16
TORSDOF 6
ENDMDL
MODEL 7
REMARK VINA RESULT:    -6.798      3.514      4.885
REMARK INTER + INTRA:          -9.903
REMARK INTER:                  -9.000
REMARK INTRA:                  -0.904
REMARK UNBOUND:                -0.721
REMARK  Name = 
REMARK  6 active torsions:
REMARK  status: ('A' for Active; 'I' for Inactive)
REMARK    1  A    between atoms: C_2  and  C_4
REMARK    2  A    between atoms: N_8  and  C_9
REMARK    3  A    between atoms: C_9  and  C_10
REMARK    4  A    between atoms: C_10  and  C_13
REMARK    5  A    between atoms: C_15  and  O_16
REMARK    6  A    between atoms: O_16  and  C_17
REMARK                            x       y       z     vdW  Elec       q    Type
REMARK                         _______ _______ _______ _____ _____    ______ ____
ROOT
ATOM      1  C   UNL     1      48.470   8.345  12.571  0.00  0.00    +0.000 C 
ATOM      2  F   UNL     1      48.805   7.225  11.855  0.00  0.00    +0.000 F 
ATOM      3  F   UNL     1      49.207   9.341  11.998  0.00  0.00    +0.000 F 
ENDROOT
BRANCH   1   4
ATOM      4  C   UNL     1      48.755   8.155  14.050  0.00  0.00    +0.000 A 
ATOM      5  C   UNL     1      48.773   6.842  14.563  0.00  0.00    +0.000 A 
ATOM      6  C   UNL     1      49.016   6.586  15.916  0.00  0.00    +0.000 A 
ATOM      7  C   UNL     1      49.228   7.644  16.788  0.00  0.00    +0.000 A 
ATOM      8  C   UNL     1      49.208   8.954  16.301  0.00  0.00    +0.000 A 
ATOM      9  C   UNL     1      48.970   9.211  14.944  0.00  0.00    +0.000 A 
ATOM     10 CL   UNL     1      48.924  10.866  14.458  0.00  0.00    +0.000 Cl
BRANCH   6  11
ATOM     11  O   UNL     1      48.984   5.266  16.278  0.00  0.00    +0.000 OA
BRANCH  11  12
ATOM     12  C   UNL     1      47.717   4.570  16.266  0.00  0.00    +0.000 C 
ATOM     13  C   UNL     1      46.993   4.358  17.603  0.00  0.00    +0.000 C 
ATOM     14  O   UNL     1      46.973   2.923  17.427  0.00  0.00    +0.000 OA
ATOM     15  C   UNL     1      47.810   3.038  16.254  0.00  0.00    +0.000 C 
ENDBRANCH  11  12
ENDBRANCH   6  11
ENDBRANCH   1   4
BRANCH   1  16
ATOM     16  C   UNL     1      46.963   8.628  12.330  0.00  0.00    +0.000 C 
BRANCH  16  21
ATOM     17  C   UNL     1      44.494   4.180  11.478  0.00  0.00    +0.000 A 
ATOM     18  C   UNL     1      45.179   5.024  10.610  0.00  0.00    +0.000 A 
ATOM     19  C   UNL     1      45.720   6.212  11.103  0.00  0.00    +0.000 A 
ATOM     20  C   UNL     1      45.576   6.538  12.449  0.00  0.00    +0.000 A 
ATOM     21  N   UNL     1      46.075   7.684  13.003  0.00  0.00    +0.000 N 
ATOM     22  N   UNL     1      44.901   5.731  13.291  0.00  0.00    +0.000 NA
ATOM     23  C   UNL     1      44.364   4.584  12.794  0.00  0.00    +0.000 A 
ATOM     24  H   UNL     1      45.950   7.744  14.010  0.00  0.00    +0.000 HD
BRANCH  17  26
ATOM     25  N   UNL     1      44.498   2.255   9.999  0.00  0.00    +0.000 N 
ATOM     26  C   UNL     1      43.897   2.900  11.045  0.00  0.00    +0.000 C 
ATOM     27  O   UNL     1      42.929   2.417  11.616  0.00  0.00    +0.000 OA
ATOM     28  H   UNL     1      44.149   1.329   9.783  0.00  0.00    +0.000 HD
ATOM     29  H   UNL     1      45.427   2.488   9.679  0.00  0.00    +0.000 HD
ENDBRANCH  17  26
ENDBRANCH  16  21
ENDBRANCH   1  16
TORSDOF 6
ENDMDL
MODEL 8
REMARK VINA RESULT:    -6.784      3.529      8.198
REMARK INTER + INTRA:          -9.884
REMARK INTER:                  -9.504
REMARK INTRA:                  -0.381
REMARK UNBOUND:                -0.721
REMARK  Name = 
REMARK  6 active torsions:
REMARK  status: ('A' for Active; 'I' for Inactive)
REMARK    1  A    between atoms: C_2  and  C_4
REMARK    2  A    between atoms: N_8  and  C_9
REMARK    3  A    between atoms: C_9  and  C_10
REMARK    4  A    between atoms: C_10  and  C_13
REMARK    5  A    between atoms: C_15  and  O_16
REMARK    6  A    between atoms: O_16  and  C_17
REMARK                            x       y       z     vdW  Elec       q    Type
REMARK                         _______ _______ _______ _____ _____    ______ ____
ROOT
ATOM      1  C   UNL     1      45.176   6.143  11.452  0.00  0.00    +0.000 C 
ATOM      2  F   UNL     1      44.879   5.883  12.765  0.00  0.00    +0.000 F 
ATOM      3  F   UNL     1      44.321   7.150  11.108  0.00  0.00    +0.000 F 
ENDROOT
BRANCH   1   4
ATOM      4  C   UNL     1      45.020   4.897  10.599  0.00  0.00    +0.000 A 
ATOM      5  C   UNL     1      45.658   4.864   9.342  0.00  0.00    +0.000 A 
ATOM      6  C   UNL     1      45.551   3.757   8.495  0.00  0.00    +0.000 A 
ATOM      7  C   UNL     1      44.786   2.666   8.881  0.00  0.00    +0.000 A 
ATOM      8  C   UNL     1      44.141   2.681  10.121  0.00  0.00    +0.000 A 
ATOM      9  C   UNL     1      44.252   3.788  10.974  0.00  0.00    +0.000 A 
ATOM     10 CL   UNL     1      43.378   3.720  12.461  0.00  0.00    +0.000 Cl
BRANCH   6  11
ATOM     11  O   UNL     1      46.207   3.871   7.297  0.00  0.00    +0.000 OA
BRANCH  11  12
ATOM     12  C   UNL     1      46.464   2.674   6.528  0.00  0.00    +0.000 C 
ATOM     13  C   UNL     1      47.536   1.701   7.039  0.00  0.00    +0.000 C 
ATOM     14  O   UNL     1      48.288   1.797   5.808  0.00  0.00    +0.000 OA
ATOM     15  C   UNL     1      47.418   2.852   5.339  0.00  0.00    +0.000 C 
ENDBRANCH  11  12
ENDBRANCH   6  11
ENDBRANCH   1   4
BRANCH   1  16
ATOM     16  C   UNL     1      46.634   6.675  11.392  0.00  0.00    +0.000 C 
BRANCH  16  21
ATOM     17  C   UNL     1      48.927   7.703  15.897  0.00  0.00    +0.000 A 
ATOM     18  C   UNL     1      48.648   6.493  15.270  0.00  0.00    +0.000 A 
ATOM     19  C   UNL     1      47.960   6.499  14.056  0.00  0.00    +0.000 A 
ATOM     20  C   UNL     1      47.567   7.705  13.484  0.00  0.00    +0.000 A 
ATOM     21  N   UNL     1      46.887   7.791  12.300  0.00  0.00    +0.000 N 
ATOM     22  N   UNL     1      47.822   8.880  14.093  0.00  0.00    +0.000 NA
ATOM     23  C   UNL     1      48.479   8.859  15.285  0.00  0.00    +0.000 A 
ATOM     24  H   UNL     1      46.735   8.743  11.979  0.00  0.00    +0.000 HD
BRANCH  17  26
ATOM     25  N   UNL     1      50.789   8.560  17.197  0.00  0.00    +0.000 N 
ATOM     26  C   UNL     1      49.658   7.792  17.178  0.00  0.00    +0.000 C 
ATOM     27  O   UNL     1      49.255   7.232  18.188  0.00  0.00    +0.000 OA
ATOM     28  H   UNL     1      51.220   8.703  18.102  0.00  0.00    +0.000 HD
ATOM     29  H   UNL     1      51.005   9.227  16.469  0.00  0.00    +0.000 HD
ENDBRANCH  17  26
ENDBRANCH  16  21
ENDBRANCH   1  16
TORSDOF 6
ENDMDL
MODEL 9
REMARK VINA RESULT:    -6.601      3.951      5.644
REMARK INTER + INTRA:          -9.637
REMARK INTER:                  -8.440
REMARK INTRA:                  -1.197
REMARK UNBOUND:                -0.721
REMARK  Name = 
REMARK  6 active torsions:
REMARK  status: ('A' for Active; 'I' for Inactive)
REMARK    1  A    between atoms: C_2  and  C_4
REMARK    2  A    between atoms: N_8  and  C_9
REMARK    3  A    between atoms: C_9  and  C_10
REMARK    4  A    between atoms: C_10  and  C_13
REMARK    5  A    between atoms: C_15  and  O_16
REMARK    6  A    between atoms: O_16  and  C_17
REMARK                            x       y       z     vdW  Elec       q    Type
REMARK                         _______ _______ _______ _____ _____    ______ ____
ROOT
ATOM      1  C   UNL     1      48.589   8.493  14.640  0.00  0.00    +0.000 C 
ATOM      2  F   UNL     1      49.227   9.703  14.560  0.00  0.00    +0.000 F 
ATOM      3  F   UNL     1      47.272   8.795  14.453  0.00  0.00    +0.000 F 
ENDROOT
BRANCH   1   4
ATOM      4  C   UNL     1      48.873   7.812  15.966  0.00  0.00    +0.000 A 
ATOM      5  C   UNL     1      49.492   6.545  15.949  0.00  0.00    +0.000 A 
ATOM      6  C   UNL     1      49.774   5.849  17.128  0.00  0.00    +0.000 A 
ATOM      7  C   UNL     1      49.425   6.402  18.352  0.00  0.00    +0.000 A 
ATOM      8  C   UNL     1      48.806   7.654  18.392  0.00  0.00    +0.000 A 
ATOM      9  C   UNL     1      48.528   8.355  17.211  0.00  0.00    +0.000 A 
ATOM     10 CL   UNL     1      47.722   9.872  17.372  0.00  0.00    +0.000 Cl
BRANCH   6  11
ATOM     11  O   UNL     1      50.357   4.622  16.959  0.00  0.00    +0.000 OA
BRANCH  11  12
ATOM     12  C   UNL     1      49.614   3.440  17.335  0.00  0.00    +0.000 C 
ATOM     13  C   UNL     1      50.232   2.068  17.029  0.00  0.00    +0.000 C 
ATOM     14  O   UNL     1      49.088   1.668  16.239  0.00  0.00    +0.000 OA
ATOM     15  C   UNL     1      48.535   3.000  16.335  0.00  0.00    +0.000 C 
ENDBRANCH  11  12
ENDBRANCH   6  11
ENDBRANCH   1   4
BRANCH   1  16
ATOM     16  C   UNL     1      49.080   7.619  13.454  0.00  0.00    +0.000 C 
BRANCH  16  21
ATOM     17  C   UNL     1      45.099   4.619  12.128  0.00  0.00    +0.000 A 
ATOM     18  C   UNL     1      46.047   4.484  13.137  0.00  0.00    +0.000 A 
ATOM     19  C   UNL     1      47.065   5.432  13.244  0.00  0.00    +0.000 A 
ATOM     20  C   UNL     1      47.120   6.499  12.352  0.00  0.00    +0.000 A 
ATOM     21  N   UNL     1      48.088   7.464  12.392  0.00  0.00    +0.000 N 
ATOM     22  N   UNL     1      46.213   6.627  11.364  0.00  0.00    +0.000 NA
ATOM     23  C   UNL     1      45.235   5.687  11.260  0.00  0.00    +0.000 A 
ATOM     24  H   UNL     1      47.952   8.215  11.720  0.00  0.00    +0.000 HD
BRANCH  17  26
ATOM     25  N   UNL     1      44.124   2.428  12.503  0.00  0.00    +0.000 N 
ATOM     26  C   UNL     1      43.983   3.668  11.945  0.00  0.00    +0.000 C 
ATOM     27  O   UNL     1      42.961   3.983  11.351  0.00  0.00    +0.000 OA
ATOM     28  H   UNL     1      43.312   1.824  12.467  0.00  0.00    +0.000 HD
ATOM     29  H   UNL     1      44.824   2.223  13.203  0.00  0.00    +0.000 HD
ENDBRANCH  17  26
ENDBRANCH  16  21
ENDBRANCH   1  16
TORSDOF 6
ENDMDL
