MODEL 1
REMARK VINA RESULT:    -9.292      0.000      0.000
REMARK INTER + INTRA:         -12.264
REMARK INTER:                 -11.465
REMARK INTRA:                  -0.799
REMARK UNBOUND:                -0.799
REMARK  Name = 
REMARK  4 active torsions:
REMARK  status: ('A' for Active; 'I' for Inactive)
REMARK    1  A    between atoms: C_2  and  C_4
REMARK    2  A    between atoms: N_8  and  C_9
REMARK    3  A    between atoms: C_9  and  C_10
REMARK    4  A    between atoms: C_14  and  C_15
REMARK                            x       y       z     vdW  Elec       q    Type
REMARK                         _______ _______ _______ _____ _____    ______ ____
ROOT
ATOM      1  C   UNL     1      43.506   4.783  11.085  0.00  0.00    +0.000 C 
ENDROOT
BRANCH   1   6
ATOM      2  C   UNL     1      46.364   2.281   7.667  0.00  0.00    +0.000 A 
ATOM      3  C   UNL     1      45.604   1.765   8.713  0.00  0.00    +0.000 A 
ATOM      4  C   UNL     1      44.752   2.616   9.416  0.00  0.00    +0.000 A 
ATOM      5  C   UNL     1      44.693   3.966   9.085  0.00  0.00    +0.000 A 
ATOM      6  N   UNL     1      43.808   4.848   9.667  0.00  0.00    +0.000 N 
ATOM      7  N   UNL     1      45.443   4.480   8.091  0.00  0.00    +0.000 NA
ATOM      8  C   UNL     1      46.262   3.637   7.408  0.00  0.00    +0.000 A 
ATOM      9  H   UNL     1      44.024   5.781   9.324  0.00  0.00    +0.000 HD
BRANCH   2  11
ATOM     10  N   UNL     1      48.331   2.061   6.262  0.00  0.00    +0.000 N 
ATOM     11  C   UNL     1      47.261   1.444   6.849  0.00  0.00    +0.000 C 
ATOM     12  O   UNL     1      47.077   0.242   6.729  0.00  0.00    +0.000 OA
ATOM     13  H   UNL     1      48.993   1.461   5.789  0.00  0.00    +0.000 HD
ATOM     14  H   UNL     1      48.653   2.975   6.544  0.00  0.00    +0.000 HD
ENDBRANCH   2  11
ENDBRANCH   1   6
BRANCH   1  15
ATOM     15  C   UNL     1      44.721   5.168  11.897  0.00  0.00    +0.000 A 
ATOM     16  C   UNL     1      45.086   4.424  13.019  0.00  0.00    +0.000 A 
ATOM     17  C   UNL     1      46.173   4.843  13.765  0.00  0.00    +0.000 A 
ATOM     18  N   UNL     1      46.908   5.940  13.480  0.00  0.00    +0.000 NA
ATOM     19  C   UNL     1      46.544   6.683  12.406  0.00  0.00    +0.000 A 
ATOM     20  C   UNL     1      45.459   6.326  11.609  0.00  0.00    +0.000 A 
BRANCH  19  21
ATOM     21  C   UNL     1      47.361   7.883  12.146  0.00  0.00    +0.000 A 
ATOM     22  C   UNL     1      46.796   9.169  12.228  0.00  0.00    +0.000 A 
ATOM     23  C   UNL     1      47.564  10.304  11.980  0.00  0.00    +0.000 A 
ATOM     24  F   UNL     1      46.996  11.515  12.070  0.00  0.00    +0.000 F 
ATOM     25  C   UNL     1      48.903  10.205  11.640  0.00  0.00    +0.000 A 
ATOM     26  C   UNL     1      49.471   8.946  11.555  0.00  0.00    +0.000 A 
ATOM     27  F   UNL     1      50.764   8.826  11.223  0.00  0.00    +0.000 F 
ATOM     28  C   UNL     1      48.723   7.796  11.802  0.00  0.00    +0.000 A 
ENDBRANCH  19  21
ENDBRANCH   1  15
TORSDOF 4
ENDMDL
MODEL 2
REMARK VINA RESULT:    -8.954      3.130      4.439
REMARK INTER + INTRA:         -11.846
REMARK INTER:                 -11.191
REMARK INTRA:                  -0.655
REMARK UNBOUND:                -0.799
REMARK  Name = 
REMARK  4 active torsions:
REMARK  status: ('A' for Active; 'I' for Inactive)
REMARK    1  A    between atoms: C_2  and  C_4
REMARK    2  A    between atoms: N_8  and  C_9
REMARK    3  A    between atoms: C_9  and  C_10
REMARK    4  A    between atoms: C_14  and  C_15
REMARK                            x       y       z     vdW  Elec       q    Type
REMARK                         _______ _______ _______ _____ _____    ______ ____
ROOT
ATOM      1  C   UNL     1      44.293   4.927  11.476  0.00  0.00    +0.000 C 
ENDROOT
BRANCH   1   6
ATOM      2  C   UNL     1      46.576   2.498   7.603  0.00  0.00    +0.000 A 
ATOM      3  C   UNL     1      45.884   1.959   8.683  0.00  0.00    +0.000 A 
ATOM      4  C   UNL     1      45.180   2.812   9.532  0.00  0.00    +0.000 A 
ATOM      5  C   UNL     1      45.201   4.186   9.308  0.00  0.00    +0.000 A 
ATOM      6  N   UNL     1      44.455   5.082  10.043  0.00  0.00    +0.000 N 
ATOM      7  N   UNL     1      45.888   4.719   8.279  0.00  0.00    +0.000 NA
ATOM      8  C   UNL     1      46.561   3.874   7.454  0.00  0.00    +0.000 A 
ATOM      9  H   UNL     1      44.712   6.021   9.746  0.00  0.00    +0.000 HD
BRANCH   2  11
ATOM     10  N   UNL     1      48.297   2.273   5.906  0.00  0.00    +0.000 N 
ATOM     11  C   UNL     1      47.313   1.664   6.636  0.00  0.00    +0.000 C 
ATOM     12  O   UNL     1      47.080   0.471   6.516  0.00  0.00    +0.000 OA
ATOM     13  H   UNL     1      48.862   1.671   5.323  0.00  0.00    +0.000 HD
ATOM     14  H   UNL     1      48.683   3.171   6.157  0.00  0.00    +0.000 HD
ENDBRANCH   2  11
ENDBRANCH   1   6
BRANCH   1  15
ATOM     15  C   UNL     1      45.500   5.474  12.202  0.00  0.00    +0.000 A 
ATOM     16  C   UNL     1      46.314   6.433  11.596  0.00  0.00    +0.000 A 
ATOM     17  C   UNL     1      47.440   6.867  12.274  0.00  0.00    +0.000 A 
ATOM     18  N   UNL     1      47.810   6.414  13.491  0.00  0.00    +0.000 NA
ATOM     19  C   UNL     1      47.040   5.463  14.074  0.00  0.00    +0.000 A 
ATOM     20  C   UNL     1      45.893   4.975  13.452  0.00  0.00    +0.000 A 
BRANCH  19  21
ATOM     21  C   UNL     1      47.496   4.983  15.392  0.00  0.00    +0.000 A 
ATOM     22  C   UNL     1      48.506   5.666  16.094  0.00  0.00    +0.000 A 
ATOM     23  C   UNL     1      48.943   5.214  17.337  0.00  0.00    +0.000 A 
ATOM     24  F   UNL     1      49.904   5.889  17.982  0.00  0.00    +0.000 F 
ATOM     25  C   UNL     1      48.403   4.078  17.918  0.00  0.00    +0.000 A 
ATOM     26  C   UNL     1      47.410   3.396  17.237  0.00  0.00    +0.000 A 
ATOM     27  F   UNL     1      46.877   2.292  17.778  0.00  0.00    +0.000 F 
ATOM     28  C   UNL     1      46.956   3.832  15.993  0.00  0.00    +0.000 A 
ENDBRANCH  19  21
ENDBRANCH   1  15
TORSDOF 4
ENDMDL
MODEL 3
REMARK VINA RESULT:    -8.888      3.098      4.366
REMARK INTER + INTRA:         -11.765
REMARK INTER:                 -11.105
REMARK INTRA:                  -0.660
REMARK UNBOUND:                -0.799
REMARK  Name = 
REMARK  4 active torsions:
REMARK  status: ('A' for Active; 'I' for Inactive)
REMARK    1  A    between atoms: C_2  and  C_4
REMARK    2  A    between atoms: N_8  and  C_9
REMARK    3  A    between atoms: C_9  and  C_10
REMARK    4  A    between atoms: C_14  and  C_15
REMARK                            x       y       z     vdW  Elec       q    Type
REMARK                         _______ _______ _______ _____ _____    ______ ____
ROOT
ATOM      1  C   UNL     1      44.278   4.954  11.457  0.00  0.00    +0.000 C 
ENDROOT
BRANCH   1   6
ATOM      2  C   UNL     1      46.483   2.526   7.538  0.00  0.00    +0.000 A 
ATOM      3  C   UNL     1      45.809   1.987   8.630  0.00  0.00    +0.000 A 
ATOM      4  C   UNL     1      45.123   2.841   9.493  0.00  0.00    +0.000 A 
ATOM      5  C   UNL     1      45.145   4.215   9.271  0.00  0.00    +0.000 A 
ATOM      6  N   UNL     1      44.415   5.112  10.021  0.00  0.00    +0.000 N 
ATOM      7  N   UNL     1      45.815   4.748   8.232  0.00  0.00    +0.000 NA
ATOM      8  C   UNL     1      46.471   3.903   7.393  0.00  0.00    +0.000 A 
ATOM      9  H   UNL     1      44.670   6.050   9.723  0.00  0.00    +0.000 HD
BRANCH   2  11
ATOM     10  N   UNL     1      48.171   2.299   5.809  0.00  0.00    +0.000 N 
ATOM     11  C   UNL     1      47.200   1.692   6.556  0.00  0.00    +0.000 C 
ATOM     12  O   UNL     1      46.963   0.500   6.439  0.00  0.00    +0.000 OA
ATOM     13  H   UNL     1      48.724   1.698   5.214  0.00  0.00    +0.000 HD
ATOM     14  H   UNL     1      48.564   3.197   6.055  0.00  0.00    +0.000 HD
ENDBRANCH   2  11
ENDBRANCH   1   6
BRANCH   1  15
ATOM     15  C   UNL     1      45.486   5.523  12.164  0.00  0.00    +0.000 A 
ATOM     16  C   UNL     1      46.278   6.489  11.543  0.00  0.00    +0.000 A 
ATOM     17  C   UNL     1      47.406   6.944  12.203  0.00  0.00    +0.000 A 
ATOM     18  N   UNL     1      47.798   6.504  13.419  0.00  0.00    +0.000 NA
ATOM     19  C   UNL     1      47.048   5.546  14.017  0.00  0.00    +0.000 A 
ATOM     20  C   UNL     1      45.901   5.038  13.413  0.00  0.00    +0.000 A 
BRANCH  19  21
ATOM     21  C   UNL     1      47.528   5.081  15.332  0.00  0.00    +0.000 A 
ATOM     22  C   UNL     1      46.999   3.918  15.919  0.00  0.00    +0.000 A 
ATOM     23  C   UNL     1      47.446   3.478  17.163  0.00  0.00    +0.000 A 
ATOM     24  F   UNL     1      46.925   2.363  17.693  0.00  0.00    +0.000 F 
ATOM     25  C   UNL     1      48.419   4.173  17.863  0.00  0.00    +0.000 A 
ATOM     26  C   UNL     1      48.946   5.321  17.297  0.00  0.00    +0.000 A 
ATOM     27  F   UNL     1      49.885   6.011  17.959  0.00  0.00    +0.000 F 
ATOM     28  C   UNL     1      48.516   5.778  16.053  0.00  0.00    +0.000 A 
ENDBRANCH  19  21
ENDBRANCH   1  15
TORSDOF 4
ENDMDL
MODEL 4
REMARK VINA RESULT:    -8.593      4.000      7.324
REMARK INTER + INTRA:         -11.401
REMARK INTER:                 -10.581
REMARK INTRA:                  -0.820
REMARK UNBOUND:                -0.799
REMARK  Name = 
REMARK  4 active torsions:
REMARK  status: ('A' for Active; 'I' for Inactive)
REMARK    1  A    between atoms: C_2  and  C_4
REMARK    2  A    between atoms: N_8  and  C_9
REMARK    3  A    between atoms: C_9  and  C_10
REMARK    4  A    between atoms: C_14  and  C_15
REMARK                            x       y       z     vdW  Elec       q    Type
REMARK                         _______ _______ _______ _____ _____    ______ ____
ROOT
ATOM      1  C   UNL     1      44.007   6.631  11.462  0.00  0.00    +0.000 C 
ENDROOT
BRANCH   1   6
ATOM      2  C   UNL     1      48.818   7.421  12.991  0.00  0.00    +0.000 A 
ATOM      3  C   UNL     1      48.136   7.998  11.923  0.00  0.00    +0.000 A 
ATOM      4  C   UNL     1      46.766   7.776  11.793  0.00  0.00    +0.000 A 
ATOM      5  C   UNL     1      46.106   6.962  12.710  0.00  0.00    +0.000 A 
ATOM      6  N   UNL     1      44.740   6.774  12.705  0.00  0.00    +0.000 N 
ATOM      7  N   UNL     1      46.761   6.380  13.732  0.00  0.00    +0.000 NA
ATOM      8  C   UNL     1      48.095   6.613  13.851  0.00  0.00    +0.000 A 
ATOM      9  H   UNL     1      44.518   6.074  13.409  0.00  0.00    +0.000 HD
BRANCH   2  11
ATOM     10  N   UNL     1      51.074   7.653  12.125  0.00  0.00    +0.000 N 
ATOM     11  C   UNL     1      50.258   7.635  13.223  0.00  0.00    +0.000 C 
ATOM     12  O   UNL     1      50.702   7.825  14.345  0.00  0.00    +0.000 OA
ATOM     13  H   UNL     1      52.040   7.902  12.286  0.00  0.00    +0.000 HD
ATOM     14  H   UNL     1      50.719   7.758  11.186  0.00  0.00    +0.000 HD
ENDBRANCH   2  11
ENDBRANCH   1   6
BRANCH   1  15
ATOM     15  C   UNL     1      43.954   5.178  11.049  0.00  0.00    +0.000 A 
ATOM     16  C   UNL     1      43.196   4.263  11.779  0.00  0.00    +0.000 A 
ATOM     17  C   UNL     1      43.219   2.932  11.400  0.00  0.00    +0.000 A 
ATOM     18  N   UNL     1      43.940   2.456  10.362  0.00  0.00    +0.000 NA
ATOM     19  C   UNL     1      44.702   3.334   9.664  0.00  0.00    +0.000 A 
ATOM     20  C   UNL     1      44.732   4.688   9.989  0.00  0.00    +0.000 A 
BRANCH  19  21
ATOM     21  C   UNL     1      45.489   2.764   8.555  0.00  0.00    +0.000 A 
ATOM     22  C   UNL     1      45.921   1.426   8.595  0.00  0.00    +0.000 A 
ATOM     23  C   UNL     1      46.669   0.885   7.552  0.00  0.00    +0.000 A 
ATOM     24  F   UNL     1      47.062  -0.395   7.619  0.00  0.00    +0.000 F 
ATOM     25  C   UNL     1      47.014   1.645   6.447  0.00  0.00    +0.000 A 
ATOM     26  C   UNL     1      46.596   2.964   6.395  0.00  0.00    +0.000 A 
ATOM     27  F   UNL     1      46.923   3.719   5.338  0.00  0.00    +0.000 F 
ATOM     28  C   UNL     1      45.846   3.525   7.427  0.00  0.00    +0.000 A 
ENDBRANCH  19  21
ENDBRANCH   1  15
TORSDOF 4
ENDMDL
MODEL 5
REMARK VINA RESULT:    -8.531      3.978      7.239
REMARK INTER + INTRA:         -11.325
REMARK INTER:                 -10.499
REMARK INTRA:                  -0.827
REMARK UNBOUND:                -0.799
REMARK  Name = 
REMARK  4 active torsions:
REMARK  status: ('A' for Active; 'I' for Inactive)
REMARK    1  A    between atoms: C_2  and  C_4
REMARK    2  A    between atoms: N_8  and  C_9
REMARK    3  A    between atoms: C_9  and  C_10
REMARK    4  A    between atoms: C_14  and  C_15
REMARK                            x       y       z     vdW  Elec       q    Type
REMARK                         _______ _______ _______ _____ _____    ______ ____
ROOT
ATOM      1  C   UNL     1      43.907   6.604  11.412  0.00  0.00    +0.000 C 
ENDROOT
BRANCH   1   6
ATOM      2  C   UNL     1      48.675   7.412  13.062  0.00  0.00    +0.000 A 
ATOM      3  C   UNL     1      48.027   7.966  11.962  0.00  0.00    +0.000 A 
ATOM      4  C   UNL     1      46.660   7.746  11.797  0.00  0.00    +0.000 A 
ATOM      5  C   UNL     1      45.970   6.957  12.713  0.00  0.00    +0.000 A 
ATOM      6  N   UNL     1      44.604   6.774  12.673  0.00  0.00    +0.000 N 
ATOM      7  N   UNL     1      46.593   6.397  13.768  0.00  0.00    +0.000 NA
ATOM      8  C   UNL     1      47.924   6.628  13.921  0.00  0.00    +0.000 A 
ATOM      9  H   UNL     1      44.359   6.092  13.386  0.00  0.00    +0.000 HD
BRANCH   2  11
ATOM     10  N   UNL     1      50.935   7.762  12.250  0.00  0.00    +0.000 N 
ATOM     11  C   UNL     1      50.109   7.627  13.331  0.00  0.00    +0.000 C 
ATOM     12  O   UNL     1      50.537   7.715  14.472  0.00  0.00    +0.000 OA
ATOM     13  H   UNL     1      51.896   8.010  12.446  0.00  0.00    +0.000 HD
ATOM     14  H   UNL     1      50.588   7.950  11.321  0.00  0.00    +0.000 HD
ENDBRANCH   2  11
ENDBRANCH   1   6
BRANCH   1  15
ATOM     15  C   UNL     1      43.895   5.146  11.013  0.00  0.00    +0.000 A 
ATOM     16  C   UNL     1      43.159   4.218  11.750  0.00  0.00    +0.000 A 
ATOM     17  C   UNL     1      43.219   2.885  11.383  0.00  0.00    +0.000 A 
ATOM     18  N   UNL     1      43.956   2.418  10.352  0.00  0.00    +0.000 NA
ATOM     19  C   UNL     1      44.695   3.311   9.648  0.00  0.00    +0.000 A 
ATOM     20  C   UNL     1      44.688   4.668   9.960  0.00  0.00    +0.000 A 
BRANCH  19  21
ATOM     21  C   UNL     1      45.501   2.752   8.546  0.00  0.00    +0.000 A 
ATOM     22  C   UNL     1      45.891   3.558   7.461  0.00  0.00    +0.000 A 
ATOM     23  C   UNL     1      46.649   3.032   6.417  0.00  0.00    +0.000 A 
ATOM     24  F   UNL     1      47.008   3.828   5.400  0.00  0.00    +0.000 F 
ATOM     25  C   UNL     1      47.036   1.702   6.409  0.00  0.00    +0.000 A 
ATOM     26  C   UNL     1      46.657   0.898   7.470  0.00  0.00    +0.000 A 
ATOM     27  F   UNL     1      47.016  -0.393   7.480  0.00  0.00    +0.000 F 
ATOM     28  C   UNL     1      45.901   1.403   8.526  0.00  0.00    +0.000 A 
ENDBRANCH  19  21
ENDBRANCH   1  15
TORSDOF 4
ENDMDL
MODEL 6
REMARK VINA RESULT:    -8.444      4.231      7.493
REMARK INTER + INTRA:         -11.218
REMARK INTER:                 -10.906
REMARK INTRA:                  -0.312
REMARK UNBOUND:                -0.799
REMARK  Name = 
REMARK  4 active torsions:
REMARK  status: ('A' for Active; 'I' for Inactive)
REMARK    1  A    between atoms: C_2  and  C_4
REMARK    2  A    between atoms: N_8  and  C_9
REMARK    3  A    between atoms: C_9  and  C_10
REMARK    4  A    between atoms: C_14  and  C_15
REMARK                            x       y       z     vdW  Elec       q    Type
REMARK                         _______ _______ _______ _____ _____    ______ ____
ROOT
ATOM      1  C   UNL     1      45.263   7.035  11.576  0.00  0.00    +0.000 C 
ENDROOT
BRANCH   1   6
ATOM      2  C   UNL     1      47.702   4.919  15.537  0.00  0.00    +0.000 A 
ATOM      3  C   UNL     1      46.611   4.432  14.823  0.00  0.00    +0.000 A 
ATOM      4  C   UNL     1      46.215   5.086  13.658  0.00  0.00    +0.000 A 
ATOM      5  C   UNL     1      46.893   6.228  13.240  0.00  0.00    +0.000 A 
ATOM      6  N   UNL     1      46.625   6.872  12.051  0.00  0.00    +0.000 N 
ATOM      7  N   UNL     1      47.935   6.721  13.936  0.00  0.00    +0.000 NA
ATOM      8  C   UNL     1      48.315   6.067  15.066  0.00  0.00    +0.000 A 
ATOM      9  H   UNL     1      47.186   7.720  12.020  0.00  0.00    +0.000 HD
BRANCH   2  11
ATOM     10  N   UNL     1      47.283   3.756  17.625  0.00  0.00    +0.000 N 
ATOM     11  C   UNL     1      48.208   4.266  16.758  0.00  0.00    +0.000 C 
ATOM     12  O   UNL     1      49.406   4.153  16.970  0.00  0.00    +0.000 OA
ATOM     13  H   UNL     1      47.642   3.222  18.405  0.00  0.00    +0.000 HD
ATOM     14  H   UNL     1      46.319   3.603  17.365  0.00  0.00    +0.000 HD
ENDBRANCH   2  11
ENDBRANCH   1   6
BRANCH   1  15
ATOM     15  C   UNL     1      44.746   5.730  11.015  0.00  0.00    +0.000 A 
ATOM     16  C   UNL     1      43.600   5.138  11.547  0.00  0.00    +0.000 A 
ATOM     17  C   UNL     1      43.191   3.917  11.040  0.00  0.00    +0.000 A 
ATOM     18  N   UNL     1      43.838   3.251  10.060  0.00  0.00    +0.000 NA
ATOM     19  C   UNL     1      44.968   3.807   9.556  0.00  0.00    +0.000 A 
ATOM     20  C   UNL     1      45.443   5.032  10.018  0.00  0.00    +0.000 A 
BRANCH  19  21
ATOM     21  C   UNL     1      45.652   3.033   8.504  0.00  0.00    +0.000 A 
ATOM     22  C   UNL     1      46.045   3.648   7.301  0.00  0.00    +0.000 A 
ATOM     23  C   UNL     1      46.688   2.920   6.303  0.00  0.00    +0.000 A 
ATOM     24  F   UNL     1      47.053   3.536   5.170  0.00  0.00    +0.000 F 
ATOM     25  C   UNL     1      46.956   1.570   6.459  0.00  0.00    +0.000 A 
ATOM     26  C   UNL     1      46.574   0.952   7.637  0.00  0.00    +0.000 A 
ATOM     27  F   UNL     1      46.819  -0.354   7.808  0.00  0.00    +0.000 F 
ATOM     28  C   UNL     1      45.932   1.662   8.650  0.00  0.00    +0.000 A 
ENDBRANCH  19  21
ENDBRANCH   1  15
TORSDOF 4
ENDMDL
MODEL 7
REMARK VINA RESULT:    -8.389      4.253      7.634
REMARK INTER + INTRA:         -11.150
REMARK INTER:                 -10.726
REMARK INTRA:                  -0.424
REMARK UNBOUND:                -0.799
REMARK  Name = 
REMARK  4 active torsions:
REMARK  status: ('A' for Active; 'I' for Inactive)
REMARK    1  A    between atoms: C_2  and  C_4
REMARK    2  A    between atoms: N_8  and  C_9
REMARK    3  A    between atoms: C_9  and  C_10
REMARK    4  A    between atoms: C_14  and  C_15
REMARK                            x       y       z     vdW  Elec       q    Type
REMARK                         _______ _______ _______ _____ _____    ______ ____
ROOT
ATOM      1  C   UNL     1      44.860   6.740  11.449  0.00  0.00    +0.000 C 
ENDROOT
BRANCH   1   6
ATOM      2  C   UNL     1      47.889   5.473  15.365  0.00  0.00    +0.000 A 
ATOM      3  C   UNL     1      46.835   4.754  14.809  0.00  0.00    +0.000 A 
ATOM      4  C   UNL     1      46.256   5.204  13.624  0.00  0.00    +0.000 A 
ATOM      5  C   UNL     1      46.716   6.375  13.030  0.00  0.00    +0.000 A 
ATOM      6  N   UNL     1      46.262   6.832  11.810  0.00  0.00    +0.000 N 
ATOM      7  N   UNL     1      47.719   7.091  13.572  0.00  0.00    +0.000 NA
ATOM      8  C   UNL     1      48.280   6.635  14.723  0.00  0.00    +0.000 A 
ATOM      9  H   UNL     1      46.683   7.742  11.641  0.00  0.00    +0.000 HD
BRANCH   2  11
ATOM     10  N   UNL     1      47.802   4.668  17.653  0.00  0.00    +0.000 N 
ATOM     11  C   UNL     1      48.581   5.046  16.595  0.00  0.00    +0.000 C 
ATOM     12  O   UNL     1      49.800   4.996  16.655  0.00  0.00    +0.000 OA
ATOM     13  H   UNL     1      48.285   4.282  18.453  0.00  0.00    +0.000 HD
ATOM     14  H   UNL     1      46.820   4.454  17.557  0.00  0.00    +0.000 HD
ENDBRANCH   2  11
ENDBRANCH   1   6
BRANCH   1  15
ATOM     15  C   UNL     1      44.536   5.348  10.958  0.00  0.00    +0.000 A 
ATOM     16  C   UNL     1      43.573   4.576  11.608  0.00  0.00    +0.000 A 
ATOM     17  C   UNL     1      43.346   3.286  11.160  0.00  0.00    +0.000 A 
ATOM     18  N   UNL     1      44.007   2.718  10.128  0.00  0.00    +0.000 NA
ATOM     19  C   UNL     1      44.964   3.453   9.509  0.00  0.00    +0.000 A 
ATOM     20  C   UNL     1      45.251   4.756   9.906  0.00  0.00    +0.000 A 
BRANCH  19  21
ATOM     21  C   UNL     1      45.675   2.783   8.404  0.00  0.00    +0.000 A 
ATOM     22  C   UNL     1      45.990   1.414   8.478  0.00  0.00    +0.000 A 
ATOM     23  C   UNL     1      46.665   0.778   7.439  0.00  0.00    +0.000 A 
ATOM     24  F   UNL     1      46.946  -0.528   7.538  0.00  0.00    +0.000 F 
ATOM     25  C   UNL     1      47.051   1.472   6.303  0.00  0.00    +0.000 A 
ATOM     26  C   UNL     1      46.748   2.820   6.218  0.00  0.00    +0.000 A 
ATOM     27  F   UNL     1      47.117   3.512   5.132  0.00  0.00    +0.000 F 
ATOM     28  C   UNL     1      46.072   3.475   7.245  0.00  0.00    +0.000 A 
ENDBRANCH  19  21
ENDBRANCH   1  15
TORSDOF 4
ENDMDL
MODEL 8
REMARK VINA RESULT:    -8.235      3.992      7.344
REMARK INTER + INTRA:         -10.959
REMARK INTER:                 -10.377
REMARK INTRA:                  -0.583
REMARK UNBOUND:                -0.799
REMARK  Name = 
REMARK  4 active torsions:
REMARK  status: ('A' for Active; 'I' for Inactive)
REMARK    1  A    between atoms: C_2  and  C_4
REMARK    2  A    between atoms: N_8  and  C_9
REMARK    3  A    between atoms: C_9  and  C_10
REMARK    4  A    between atoms: C_14  and  C_15
REMARK                            x       y       z     vdW  Elec       q    Type
REMARK                         _______ _______ _______ _____ _____    ______ ____
ROOT
ATOM      1  C   UNL     1      43.964   6.630  11.385  0.00  0.00    +0.000 C 
ENDROOT
BRANCH   1   6
ATOM      2  C   UNL     1      48.406   7.009  13.883  0.00  0.00    +0.000 A 
ATOM      3  C   UNL     1      47.557   5.912  13.775  0.00  0.00    +0.000 A 
ATOM      4  C   UNL     1      46.481   5.970  12.891  0.00  0.00    +0.000 A 
ATOM      5  C   UNL     1      46.253   7.127  12.152  0.00  0.00    +0.000 A 
ATOM      6  N   UNL     1      45.271   7.227  11.189  0.00  0.00    +0.000 N 
ATOM      7  N   UNL     1      47.055   8.203  12.267  0.00  0.00    +0.000 NA
ATOM      8  C   UNL     1      48.105   8.128  13.126  0.00  0.00    +0.000 A 
ATOM      9  H   UNL     1      45.251   8.190  10.862  0.00  0.00    +0.000 HD
BRANCH   2  11
ATOM     10  N   UNL     1      50.597   7.884  14.453  0.00  0.00    +0.000 N 
ATOM     11  C   UNL     1      49.587   7.016  14.765  0.00  0.00    +0.000 C 
ATOM     12  O   UNL     1      49.648   6.302  15.754  0.00  0.00    +0.000 OA
ATOM     13  H   UNL     1      51.354   7.953  15.119  0.00  0.00    +0.000 HD
ATOM     14  H   UNL     1      50.473   8.653  13.811  0.00  0.00    +0.000 HD
ENDBRANCH   2  11
ENDBRANCH   1   6
BRANCH   1  15
ATOM     15  C   UNL     1      43.990   5.171  10.990  0.00  0.00    +0.000 A 
ATOM     16  C   UNL     1      43.305   4.222  11.749  0.00  0.00    +0.000 A 
ATOM     17  C   UNL     1      43.400   2.890  11.384  0.00  0.00    +0.000 A 
ATOM     18  N   UNL     1      44.125   2.444  10.335  0.00  0.00    +0.000 NA
ATOM     19  C   UNL     1      44.816   3.358   9.609  0.00  0.00    +0.000 A 
ATOM     20  C   UNL     1      44.771   4.715   9.918  0.00  0.00    +0.000 A 
BRANCH  19  21
ATOM     21  C   UNL     1      45.611   2.822   8.489  0.00  0.00    +0.000 A 
ATOM     22  C   UNL     1      46.021   1.477   8.478  0.00  0.00    +0.000 A 
ATOM     23  C   UNL     1      46.775   0.967   7.424  0.00  0.00    +0.000 A 
ATOM     24  F   UNL     1      47.146  -0.320   7.441  0.00  0.00    +0.000 F 
ATOM     25  C   UNL     1      47.150   1.768   6.357  0.00  0.00    +0.000 A 
ATOM     26  C   UNL     1      46.755   3.095   6.356  0.00  0.00    +0.000 A 
ATOM     27  F   UNL     1      47.111   3.889   5.337  0.00  0.00    +0.000 F 
ATOM     28  C   UNL     1      45.997   3.625   7.400  0.00  0.00    +0.000 A 
ENDBRANCH  19  21
ENDBRANCH   1  15
TORSDOF 4
ENDMDL
MODEL 9
REMARK VINA RESULT:    -7.880      1.918      2.664
REMARK INTER + INTRA:         -10.521
REMARK INTER:                 -10.281
REMARK INTRA:                  -0.240
REMARK UNBOUND:                -0.799
REMARK  Name = 
REMARK  4 active torsions:
REMARK  status: ('A' for Active; 'I' for Inactive)
REMARK    1  A    between atoms: C_2  and  C_4
REMARK    2  A    between atoms: N_8  and  C_9
REMARK    3  A    between atoms: C_9  and  C_10
REMARK    4  A    between atoms: C_14  and  C_15
REMARK                            x       y       z     vdW  Elec       q    Type
REMARK                         _______ _______ _______ _____ _____    ______ ____
ROOT
ATOM      1  C   UNL     1      43.443   3.424  10.980  0.00  0.00    +0.000 C 
ENDROOT
BRANCH   1   6
ATOM      2  C   UNL     1      46.673   2.502   7.130  0.00  0.00    +0.000 A 
ATOM      3  C   UNL     1      46.159   3.720   7.564  0.00  0.00    +0.000 A 
ATOM      4  C   UNL     1      45.433   3.765   8.753  0.00  0.00    +0.000 A 
ATOM      5  C   UNL     1      45.208   2.595   9.472  0.00  0.00    +0.000 A 
ATOM      6  N   UNL     1      44.585   2.573  10.702  0.00  0.00    +0.000 N 
ATOM      7  N   UNL     1      45.681   1.407   9.048  0.00  0.00    +0.000 NA
ATOM      8  C   UNL     1      46.395   1.380   7.892  0.00  0.00    +0.000 A 
ATOM      9  H   UNL     1      44.462   1.601  10.973  0.00  0.00    +0.000 HD
BRANCH   2  11
ATOM     10  N   UNL     1      47.294   3.309   4.927  0.00  0.00    +0.000 N 
ATOM     11  C   UNL     1      47.484   2.372   5.905  0.00  0.00    +0.000 C 
ATOM     12  O   UNL     1      48.315   1.486   5.781  0.00  0.00    +0.000 OA
ATOM     13  H   UNL     1      47.925   3.271   4.138  0.00  0.00    +0.000 HD
ATOM     14  H   UNL     1      46.817   4.183   5.096  0.00  0.00    +0.000 HD
ENDBRANCH   2  11
ENDBRANCH   1   6
BRANCH   1  15
ATOM     15  C   UNL     1      43.903   4.823  11.318  0.00  0.00    +0.000 A 
ATOM     16  C   UNL     1      43.067   5.916  11.092  0.00  0.00    +0.000 A 
ATOM     17  C   UNL     1      43.548   7.185  11.364  0.00  0.00    +0.000 A 
ATOM     18  N   UNL     1      44.789   7.438  11.834  0.00  0.00    +0.000 NA
ATOM     19  C   UNL     1      45.617   6.382  12.031  0.00  0.00    +0.000 A 
ATOM     20  C   UNL     1      45.205   5.077  11.776  0.00  0.00    +0.000 A 
BRANCH  19  21
ATOM     21  C   UNL     1      46.969   6.709  12.522  0.00  0.00    +0.000 A 
ATOM     22  C   UNL     1      47.360   6.364  13.829  0.00  0.00    +0.000 A 
ATOM     23  C   UNL     1      48.635   6.674  14.299  0.00  0.00    +0.000 A 
ATOM     24  F   UNL     1      48.978   6.329  15.547  0.00  0.00    +0.000 F 
ATOM     25  C   UNL     1      49.553   7.335  13.499  0.00  0.00    +0.000 A 
ATOM     26  C   UNL     1      49.180   7.680  12.211  0.00  0.00    +0.000 A 
ATOM     27  F   UNL     1      50.051   8.324  11.422  0.00  0.00    +0.000 F 
ATOM     28  C   UNL     1      47.911   7.378  11.720  0.00  0.00    +0.000 A 
ENDBRANCH  19  21
ENDBRANCH   1  15
TORSDOF 4
ENDMDL
