MODEL 1
REMARK VINA RESULT:    -9.421      0.000      0.000
REMARK INTER + INTRA:         -14.015
REMARK INTER:                 -12.725
REMARK INTRA:                  -1.290
REMARK UNBOUND:                -1.290
REMARK  Name = 
REMARK  6 active torsions:
REMARK  status: ('A' for Active; 'I' for Inactive)
REMARK    1  A    between atoms: C_2  and  C_4
REMARK    2  A    between atoms: C_7  and  O_8
REMARK    3  A    between atoms: O_8  and  C_9
REMARK    4  A    between atoms: C_9  and  C_10
REMARK    5  A    between atoms: C_10  and  C_13
REMARK    6  A    between atoms: C_17  and  C_18
REMARK                            x       y       z     vdW  Elec       q    Type
REMARK                         _______ _______ _______ _____ _____    ______ ____
ROOT
ATOM      1  C   UNL     1      43.762   4.658  12.489  0.00  0.00    +0.000 C 
ATOM      2  F   UNL     1      42.848   5.374  13.209  0.00  0.00    +0.000 F 
ATOM      3  F   UNL     1      43.587   3.355  12.862  0.00  0.00    +0.000 F 
ENDROOT
BRANCH   1   4
ATOM      4  C   UNL     1      45.184   5.125  12.763  0.00  0.00    +0.000 A 
ATOM      5  C   UNL     1      45.837   5.987  11.874  0.00  0.00    +0.000 A 
ATOM      6  C   UNL     1      47.120   6.453  12.151  0.00  0.00    +0.000 A 
ATOM      7  C   UNL     1      47.753   6.095  13.340  0.00  0.00    +0.000 A 
ATOM      8  C   UNL     1      47.121   5.252  14.271  0.00  0.00    +0.000 A 
ATOM      9  C   UNL     1      45.853   4.739  13.934  0.00  0.00    +0.000 A 
BRANCH   8  10
ATOM     10  C   UNL     1      47.745   4.944  15.572  0.00  0.00    +0.000 A 
ATOM     11  C   UNL     1      47.493   3.723  16.225  0.00  0.00    +0.000 A 
ATOM     12  C   UNL     1      48.083   3.422  17.451  0.00  0.00    +0.000 A 
ATOM     13  C   UNL     1      48.950   4.333  18.036  0.00  0.00    +0.000 A 
ATOM     14  F   UNL     1      49.535   4.007  19.198  0.00  0.00    +0.000 F 
ATOM     15  C   UNL     1      49.218   5.550  17.420  0.00  0.00    +0.000 A 
ATOM     16 CL   UNL     1      50.333   6.664  18.114  0.00  0.00    +0.000 Cl
ATOM     17  C   UNL     1      48.605   5.861  16.207  0.00  0.00    +0.000 A 
ENDBRANCH   8  10
ENDBRANCH   1   4
BRANCH   1  18
ATOM     18  C   UNL     1      43.424   4.792  10.988  0.00  0.00    +0.000 C 
BRANCH  18  19
ATOM     19  O   UNL     1      43.456   3.514  10.332  0.00  0.00    +0.000 OA
BRANCH  19  23
ATOM     20  C   UNL     1      46.520   2.666   7.629  0.00  0.00    +0.000 A 
ATOM     21  C   UNL     1      46.103   3.994   7.763  0.00  0.00    +0.000 A 
ATOM     22  C   UNL     1      45.073   4.318   8.654  0.00  0.00    +0.000 A 
ATOM     23  C   UNL     1      44.456   3.320   9.414  0.00  0.00    +0.000 A 
ATOM     24  C   UNL     1      44.861   1.992   9.253  0.00  0.00    +0.000 A 
ATOM     25  C   UNL     1      45.886   1.662   8.364  0.00  0.00    +0.000 A 
BRANCH  20  27
ATOM     26  N   UNL     1      47.763   3.047   5.571  0.00  0.00    +0.000 N 
ATOM     27  C   UNL     1      47.616   2.289   6.692  0.00  0.00    +0.000 C 
ATOM     28  O   UNL     1      48.371   1.365   6.939  0.00  0.00    +0.000 OA
ATOM     29  H   UNL     1      48.581   2.850   5.006  0.00  0.00    +0.000 HD
ATOM     30  H   UNL     1      47.338   3.960   5.473  0.00  0.00    +0.000 HD
ENDBRANCH  20  27
ENDBRANCH  19  23
ENDBRANCH  18  19
ENDBRANCH   1  18
TORSDOF 6
ENDMDL
MODEL 2
REMARK VINA RESULT:    -8.889      2.982      4.370
REMARK INTER + INTRA:         -13.297
REMARK INTER:                 -12.028
REMARK INTRA:                  -1.268
REMARK UNBOUND:                -1.290
REMARK  Name = 
REMARK  6 active torsions:
REMARK  status: ('A' for Active; 'I' for Inactive)
REMARK    1  A    between atoms: C_2  and  C_4
REMARK    2  A    between atoms: C_7  and  O_8
REMARK    3  A    between atoms: O_8  and  C_9
REMARK    4  A    between atoms: C_9  and  C_10
REMARK    5  A    between atoms: C_10  and  C_13
REMARK    6  A    between atoms: C_17  and  C_18
REMARK                            x       y       z     vdW  Elec       q    Type
REMARK                         _______ _______ _______ _____ _____    ______ ____
ROOT
ATOM      1  C   UNL     1      43.675   5.308  12.085  0.00  0.00    +0.000 C 
ATOM      2  F   UNL     1      43.427   6.255  11.131  0.00  0.00    +0.000 F 
ATOM      3  F   UNL     1      42.705   5.478  13.033  0.00  0.00    +0.000 F 
ENDROOT
BRANCH   1   4
ATOM      4  C   UNL     1      45.065   5.463  12.683  0.00  0.00    +0.000 A 
ATOM      5  C   UNL     1      45.571   4.505  13.571  0.00  0.00    +0.000 A 
ATOM      6  C   UNL     1      46.863   4.622  14.079  0.00  0.00    +0.000 A 
ATOM      7  C   UNL     1      47.681   5.676  13.676  0.00  0.00    +0.000 A 
ATOM      8  C   UNL     1      47.219   6.643  12.767  0.00  0.00    +0.000 A 
ATOM      9  C   UNL     1      45.886   6.541  12.322  0.00  0.00    +0.000 A 
BRANCH   8  10
ATOM     10  C   UNL     1      48.109   7.708  12.263  0.00  0.00    +0.000 A 
ATOM     11  C   UNL     1      49.487   7.477  12.092  0.00  0.00    +0.000 A 
ATOM     12  C   UNL     1      50.334   8.473  11.611  0.00  0.00    +0.000 A 
ATOM     13  C   UNL     1      49.811   9.714  11.276  0.00  0.00    +0.000 A 
ATOM     14  F   UNL     1      50.637  10.646  10.781  0.00  0.00    +0.000 F 
ATOM     15  C   UNL     1      48.455   9.977  11.437  0.00  0.00    +0.000 A 
ATOM     16 CL   UNL     1      47.790  11.496  10.977  0.00  0.00    +0.000 Cl
ATOM     17  C   UNL     1      47.614   8.987  11.945  0.00  0.00    +0.000 A 
ENDBRANCH   8  10
ENDBRANCH   1   4
BRANCH   1  18
ATOM     18  C   UNL     1      43.505   3.911  11.450  0.00  0.00    +0.000 C 
BRANCH  18  19
ATOM     19  O   UNL     1      43.387   3.999  10.021  0.00  0.00    +0.000 OA
BRANCH  19  23
ATOM     20  C   UNL     1      46.500   2.533   7.661  0.00  0.00    +0.000 A 
ATOM     21  C   UNL     1      45.755   1.622   8.416  0.00  0.00    +0.000 A 
ATOM     22  C   UNL     1      44.708   2.076   9.227  0.00  0.00    +0.000 A 
ATOM     23  C   UNL     1      44.398   3.438   9.286  0.00  0.00    +0.000 A 
ATOM     24  C   UNL     1      45.165   4.343   8.548  0.00  0.00    +0.000 A 
ATOM     25  C   UNL     1      46.214   3.898   7.739  0.00  0.00    +0.000 A 
BRANCH  20  27
ATOM     26  N   UNL     1      48.006   2.927   5.790  0.00  0.00    +0.000 N 
ATOM     27  C   UNL     1      47.618   2.082   6.785  0.00  0.00    +0.000 C 
ATOM     28  O   UNL     1      48.186   1.021   6.976  0.00  0.00    +0.000 OA
ATOM     29  H   UNL     1      48.840   2.659   5.280  0.00  0.00    +0.000 HD
ATOM     30  H   UNL     1      47.745   3.904   5.775  0.00  0.00    +0.000 HD
ENDBRANCH  20  27
ENDBRANCH  19  23
ENDBRANCH  18  19
ENDBRANCH   1  18
TORSDOF 6
ENDMDL
MODEL 3
REMARK VINA RESULT:    -8.492      2.709      3.462
REMARK INTER + INTRA:         -12.761
REMARK INTER:                 -11.794
REMARK INTRA:                  -0.967
REMARK UNBOUND:                -1.290
REMARK  Name = 
REMARK  6 active torsions:
REMARK  status: ('A' for Active; 'I' for Inactive)
REMARK    1  A    between atoms: C_2  and  C_4
REMARK    2  A    between atoms: C_7  and  O_8
REMARK    3  A    between atoms: O_8  and  C_9
REMARK    4  A    between atoms: C_9  and  C_10
REMARK    5  A    between atoms: C_10  and  C_13
REMARK    6  A    between atoms: C_17  and  C_18
REMARK                            x       y       z     vdW  Elec       q    Type
REMARK                         _______ _______ _______ _____ _____    ______ ____
ROOT
ATOM      1  C   UNL     1      44.521   4.116  12.387  0.00  0.00    +0.000 C 
ATOM      2  F   UNL     1      43.953   4.012  13.625  0.00  0.00    +0.000 F 
ATOM      3  F   UNL     1      45.551   3.219  12.377  0.00  0.00    +0.000 F 
ENDROOT
BRANCH   1   4
ATOM      4  C   UNL     1      45.017   5.529  12.114  0.00  0.00    +0.000 A 
ATOM      5  C   UNL     1      44.120   6.544  11.760  0.00  0.00    +0.000 A 
ATOM      6  C   UNL     1      44.568   7.848  11.559  0.00  0.00    +0.000 A 
ATOM      7  C   UNL     1      45.912   8.162  11.747  0.00  0.00    +0.000 A 
ATOM      8  C   UNL     1      46.840   7.177  12.126  0.00  0.00    +0.000 A 
ATOM      9  C   UNL     1      46.373   5.854  12.256  0.00  0.00    +0.000 A 
BRANCH   8  10
ATOM     10  C   UNL     1      48.245   7.520  12.419  0.00  0.00    +0.000 A 
ATOM     11  C   UNL     1      49.077   8.072  11.427  0.00  0.00    +0.000 A 
ATOM     12  C   UNL     1      50.403   8.405  11.695  0.00  0.00    +0.000 A 
ATOM     13  C   UNL     1      50.914   8.208  12.970  0.00  0.00    +0.000 A 
ATOM     14  F   UNL     1      52.181   8.569  13.217  0.00  0.00    +0.000 F 
ATOM     15  C   UNL     1      50.120   7.662  13.973  0.00  0.00    +0.000 A 
ATOM     16 CL   UNL     1      50.731   7.461  15.570  0.00  0.00    +0.000 Cl
ATOM     17  C   UNL     1      48.802   7.303  13.694  0.00  0.00    +0.000 A 
ENDBRANCH   8  10
ENDBRANCH   1   4
BRANCH   1  18
ATOM     18  C   UNL     1      43.483   3.688  11.327  0.00  0.00    +0.000 C 
BRANCH  18  19
ATOM     19  O   UNL     1      43.754   4.299  10.056  0.00  0.00    +0.000 OA
BRANCH  19  23
ATOM     20  C   UNL     1      46.624   2.653   7.513  0.00  0.00    +0.000 A 
ATOM     21  C   UNL     1      45.875   1.788   8.316  0.00  0.00    +0.000 A 
ATOM     22  C   UNL     1      44.908   2.302   9.188  0.00  0.00    +0.000 A 
ATOM     23  C   UNL     1      44.683   3.680   9.261  0.00  0.00    +0.000 A 
ATOM     24  C   UNL     1      45.455   4.539   8.474  0.00  0.00    +0.000 A 
ATOM     25  C   UNL     1      46.423   4.033   7.604  0.00  0.00    +0.000 A 
BRANCH  20  27
ATOM     26  N   UNL     1      47.918   2.887   5.465  0.00  0.00    +0.000 N 
ATOM     27  C   UNL     1      47.658   2.138   6.572  0.00  0.00    +0.000 C 
ATOM     28  O   UNL     1      48.271   1.111   6.803  0.00  0.00    +0.000 OA
ATOM     29  H   UNL     1      48.701   2.584   4.898  0.00  0.00    +0.000 HD
ATOM     30  H   UNL     1      47.629   3.853   5.383  0.00  0.00    +0.000 HD
ENDBRANCH  20  27
ENDBRANCH  19  23
ENDBRANCH  18  19
ENDBRANCH   1  18
TORSDOF 6
ENDMDL
MODEL 4
REMARK VINA RESULT:    -8.485      1.623      2.174
REMARK INTER + INTRA:         -12.752
REMARK INTER:                 -11.520
REMARK INTRA:                  -1.232
REMARK UNBOUND:                -1.290
REMARK  Name = 
REMARK  6 active torsions:
REMARK  status: ('A' for Active; 'I' for Inactive)
REMARK    1  A    between atoms: C_2  and  C_4
REMARK    2  A    between atoms: C_7  and  O_8
REMARK    3  A    between atoms: O_8  and  C_9
REMARK    4  A    between atoms: C_9  and  C_10
REMARK    5  A    between atoms: C_10  and  C_13
REMARK    6  A    between atoms: C_17  and  C_18
REMARK                            x       y       z     vdW  Elec       q    Type
REMARK                         _______ _______ _______ _____ _____    ______ ____
ROOT
ATOM      1  C   UNL     1      44.307   4.216  12.404  0.00  0.00    +0.000 C 
ATOM      2  F   UNL     1      43.473   4.188  13.486  0.00  0.00    +0.000 F 
ATOM      3  F   UNL     1      45.066   3.083  12.495  0.00  0.00    +0.000 F 
ENDROOT
BRANCH   1   4
ATOM      4  C   UNL     1      45.176   5.464  12.396  0.00  0.00    +0.000 A 
ATOM      5  C   UNL     1      44.788   6.600  11.674  0.00  0.00    +0.000 A 
ATOM      6  C   UNL     1      45.559   7.759  11.707  0.00  0.00    +0.000 A 
ATOM      7  C   UNL     1      46.709   7.813  12.494  0.00  0.00    +0.000 A 
ATOM      8  C   UNL     1      47.118   6.703  13.253  0.00  0.00    +0.000 A 
ATOM      9  C   UNL     1      46.359   5.521  13.147  0.00  0.00    +0.000 A 
BRANCH   8  10
ATOM     10  C   UNL     1      48.280   6.782  14.160  0.00  0.00    +0.000 A 
ATOM     11  C   UNL     1      49.419   7.532  13.813  0.00  0.00    +0.000 A 
ATOM     12  C   UNL     1      50.517   7.618  14.666  0.00  0.00    +0.000 A 
ATOM     13  C   UNL     1      50.485   6.968  15.891  0.00  0.00    +0.000 A 
ATOM     14  F   UNL     1      51.538   7.095  16.712  0.00  0.00    +0.000 F 
ATOM     15  C   UNL     1      49.377   6.216  16.264  0.00  0.00    +0.000 A 
ATOM     16 CL   UNL     1      49.309   5.448  17.803  0.00  0.00    +0.000 Cl
ATOM     17  C   UNL     1      48.291   6.108  15.396  0.00  0.00    +0.000 A 
ENDBRANCH   8  10
ENDBRANCH   1   4
BRANCH   1  18
ATOM     18  C   UNL     1      43.454   4.136  11.119  0.00  0.00    +0.000 C 
BRANCH  18  19
ATOM     19  O   UNL     1      43.675   2.898  10.424  0.00  0.00    +0.000 OA
BRANCH  19  23
ATOM     20  C   UNL     1      46.430   2.747   7.293  0.00  0.00    +0.000 A 
ATOM     21  C   UNL     1      45.825   3.973   7.586  0.00  0.00    +0.000 A 
ATOM     22  C   UNL     1      44.889   4.063   8.623  0.00  0.00    +0.000 A 
ATOM     23  C   UNL     1      44.555   2.932   9.374  0.00  0.00    +0.000 A 
ATOM     24  C   UNL     1      45.145   1.706   9.057  0.00  0.00    +0.000 A 
ATOM     25  C   UNL     1      46.077   1.608   8.021  0.00  0.00    +0.000 A 
BRANCH  20  27
ATOM     26  N   UNL     1      48.639   2.078   6.522  0.00  0.00    +0.000 N 
ATOM     27  C   UNL     1      47.432   2.619   6.198  0.00  0.00    +0.000 C 
ATOM     28  O   UNL     1      47.168   2.947   5.055  0.00  0.00    +0.000 OA
ATOM     29  H   UNL     1      49.264   1.891   5.746  0.00  0.00    +0.000 HD
ATOM     30  H   UNL     1      48.790   1.561   7.377  0.00  0.00    +0.000 HD
ENDBRANCH  20  27
ENDBRANCH  19  23
ENDBRANCH  18  19
ENDBRANCH   1  18
TORSDOF 6
ENDMDL
MODEL 5
REMARK VINA RESULT:    -8.182      2.797      4.019
REMARK INTER + INTRA:         -12.342
REMARK INTER:                 -11.169
REMARK INTRA:                  -1.173
REMARK UNBOUND:                -1.290
REMARK  Name = 
REMARK  6 active torsions:
REMARK  status: ('A' for Active; 'I' for Inactive)
REMARK    1  A    between atoms: C_2  and  C_4
REMARK    2  A    between atoms: C_7  and  O_8
REMARK    3  A    between atoms: O_8  and  C_9
REMARK    4  A    between atoms: C_9  and  C_10
REMARK    5  A    between atoms: C_10  and  C_13
REMARK    6  A    between atoms: C_17  and  C_18
REMARK                            x       y       z     vdW  Elec       q    Type
REMARK                         _______ _______ _______ _____ _____    ______ ____
ROOT
ATOM      1  C   UNL     1      44.088   5.578  12.023  0.00  0.00    +0.000 C 
ATOM      2  F   UNL     1      44.076   6.414  10.942  0.00  0.00    +0.000 F 
ATOM      3  F   UNL     1      43.035   5.967  12.802  0.00  0.00    +0.000 F 
ENDROOT
BRANCH   1   4
ATOM      4  C   UNL     1      45.402   5.666  12.786  0.00  0.00    +0.000 A 
ATOM      5  C   UNL     1      45.757   4.678  13.712  0.00  0.00    +0.000 A 
ATOM      6  C   UNL     1      46.982   4.734  14.373  0.00  0.00    +0.000 A 
ATOM      7  C   UNL     1      47.885   5.756  14.089  0.00  0.00    +0.000 A 
ATOM      8  C   UNL     1      47.577   6.753  13.147  0.00  0.00    +0.000 A 
ATOM      9  C   UNL     1      46.304   6.712  12.543  0.00  0.00    +0.000 A 
BRANCH   8  10
ATOM     10  C   UNL     1      48.564   7.783  12.771  0.00  0.00    +0.000 A 
ATOM     11  C   UNL     1      48.235   8.802  11.858  0.00  0.00    +0.000 A 
ATOM     12  C   UNL     1      49.158   9.783  11.502  0.00  0.00    +0.000 A 
ATOM     13  C   UNL     1      50.424   9.770  12.070  0.00  0.00    +0.000 A 
ATOM     14  F   UNL     1      51.285  10.744  11.742  0.00  0.00    +0.000 F 
ATOM     15  C   UNL     1      50.784   8.775  12.973  0.00  0.00    +0.000 A 
ATOM     16 CL   UNL     1      52.334   8.781  13.720  0.00  0.00    +0.000 Cl
ATOM     17  C   UNL     1      49.867   7.779  13.306  0.00  0.00    +0.000 A 
ENDBRANCH   8  10
ENDBRANCH   1   4
BRANCH   1  18
ATOM     18  C   UNL     1      43.835   4.135  11.536  0.00  0.00    +0.000 C 
BRANCH  18  19
ATOM     19  O   UNL     1      43.594   4.098  10.120  0.00  0.00    +0.000 OA
BRANCH  19  23
ATOM     20  C   UNL     1      46.549   2.506   7.641  0.00  0.00    +0.000 A 
ATOM     21  C   UNL     1      45.836   1.633   8.468  0.00  0.00    +0.000 A 
ATOM     22  C   UNL     1      44.843   2.130   9.320  0.00  0.00    +0.000 A 
ATOM     23  C   UNL     1      44.555   3.497   9.349  0.00  0.00    +0.000 A 
ATOM     24  C   UNL     1      45.290   4.366   8.538  0.00  0.00    +0.000 A 
ATOM     25  C   UNL     1      46.285   3.877   7.688  0.00  0.00    +0.000 A 
BRANCH  20  27
ATOM     26  N   UNL     1      48.675   2.830   6.501  0.00  0.00    +0.000 N 
ATOM     27  C   UNL     1      47.610   2.010   6.720  0.00  0.00    +0.000 C 
ATOM     28  O   UNL     1      47.546   0.902   6.216  0.00  0.00    +0.000 OA
ATOM     29  H   UNL     1      49.439   2.432   5.967  0.00  0.00    +0.000 HD
ATOM     30  H   UNL     1      48.885   3.618   7.099  0.00  0.00    +0.000 HD
ENDBRANCH  20  27
ENDBRANCH  19  23
ENDBRANCH  18  19
ENDBRANCH   1  18
TORSDOF 6
ENDMDL
MODEL 6
REMARK VINA RESULT:    -8.104      3.101      3.690
REMARK INTER + INTRA:         -12.237
REMARK INTER:                 -11.188
REMARK INTRA:                  -1.049
REMARK UNBOUND:                -1.290
REMARK  Name = 
REMARK  6 active torsions:
REMARK  status: ('A' for Active; 'I' for Inactive)
REMARK    1  A    between atoms: C_2  and  C_4
REMARK    2  A    between atoms: C_7  and  O_8
REMARK    3  A    between atoms: O_8  and  C_9
REMARK    4  A    between atoms: C_9  and  C_10
REMARK    5  A    between atoms: C_10  and  C_13
REMARK    6  A    between atoms: C_17  and  C_18
REMARK                            x       y       z     vdW  Elec       q    Type
REMARK                         _______ _______ _______ _____ _____    ______ ____
ROOT
ATOM      1  C   UNL     1      44.375   5.067  11.999  0.00  0.00    +0.000 C 
ATOM      2  F   UNL     1      43.513   5.008  13.058  0.00  0.00    +0.000 F 
ATOM      3  F   UNL     1      45.286   4.071  12.210  0.00  0.00    +0.000 F 
ENDROOT
BRANCH   1   4
ATOM      4  C   UNL     1      45.053   6.425  11.901  0.00  0.00    +0.000 A 
ATOM      5  C   UNL     1      44.308   7.576  11.614  0.00  0.00    +0.000 A 
ATOM      6  C   UNL     1      44.922   8.826  11.574  0.00  0.00    +0.000 A 
ATOM      7  C   UNL     1      46.280   8.948  11.859  0.00  0.00    +0.000 A 
ATOM      8  C   UNL     1      47.057   7.820  12.176  0.00  0.00    +0.000 A 
ATOM      9  C   UNL     1      46.427   6.560  12.142  0.00  0.00    +0.000 A 
BRANCH   8  10
ATOM     10  C   UNL     1      48.473   7.952  12.571  0.00  0.00    +0.000 A 
ATOM     11  C   UNL     1      48.845   8.003  13.927  0.00  0.00    +0.000 A 
ATOM     12  C   UNL     1      50.179   8.122  14.310  0.00  0.00    +0.000 A 
ATOM     13  C   UNL     1      51.168   8.173  13.338  0.00  0.00    +0.000 A 
ATOM     14  F   UNL     1      52.448   8.249  13.728  0.00  0.00    +0.000 F 
ATOM     15  C   UNL     1      50.835   8.128  11.988  0.00  0.00    +0.000 A 
ATOM     16 CL   UNL     1      52.059   8.140  10.778  0.00  0.00    +0.000 Cl
ATOM     17  C   UNL     1      49.497   8.038  11.608  0.00  0.00    +0.000 A 
ENDBRANCH   8  10
ENDBRANCH   1   4
BRANCH   1  18
ATOM     18  C   UNL     1      43.591   4.753  10.706  0.00  0.00    +0.000 C 
BRANCH  18  19
ATOM     19  O   UNL     1      43.686   3.361  10.365  0.00  0.00    +0.000 OA
BRANCH  19  23
ATOM     20  C   UNL     1      46.495   2.582   7.379  0.00  0.00    +0.000 A 
ATOM     21  C   UNL     1      46.055   1.516   8.169  0.00  0.00    +0.000 A 
ATOM     22  C   UNL     1      45.120   1.738   9.187  0.00  0.00    +0.000 A 
ATOM     23  C   UNL     1      44.618   3.022   9.418  0.00  0.00    +0.000 A 
ATOM     24  C   UNL     1      45.083   4.086   8.640  0.00  0.00    +0.000 A 
ATOM     25  C   UNL     1      46.019   3.872   7.626  0.00  0.00    +0.000 A 
BRANCH  20  27
ATOM     26  N   UNL     1      47.421   3.227   5.222  0.00  0.00    +0.000 N 
ATOM     27  C   UNL     1      47.488   2.379   6.286  0.00  0.00    +0.000 C 
ATOM     28  O   UNL     1      48.345   1.517   6.359  0.00  0.00    +0.000 OA
ATOM     29  H   UNL     1      48.172   3.150   4.546  0.00  0.00    +0.000 HD
ATOM     30  H   UNL     1      46.910   4.099   5.254  0.00  0.00    +0.000 HD
ENDBRANCH  20  27
ENDBRANCH  19  23
ENDBRANCH  18  19
ENDBRANCH   1  18
TORSDOF 6
ENDMDL
MODEL 7
REMARK VINA RESULT:    -8.087      4.560      8.269
REMARK INTER + INTRA:         -12.214
REMARK INTER:                 -11.379
REMARK INTRA:                  -0.835
REMARK UNBOUND:                -1.290
REMARK  Name = 
REMARK  6 active torsions:
REMARK  status: ('A' for Active; 'I' for Inactive)
REMARK    1  A    between atoms: C_2  and  C_4
REMARK    2  A    between atoms: C_7  and  O_8
REMARK    3  A    between atoms: O_8  and  C_9
REMARK    4  A    between atoms: C_9  and  C_10
REMARK    5  A    between atoms: C_10  and  C_13
REMARK    6  A    between atoms: C_17  and  C_18
REMARK                            x       y       z     vdW  Elec       q    Type
REMARK                         _______ _______ _______ _____ _____    ______ ____
ROOT
ATOM      1  C   UNL     1      45.307   7.333  11.973  0.00  0.00    +0.000 C 
ATOM      2  F   UNL     1      44.827   7.621  13.219  0.00  0.00    +0.000 F 
ATOM      3  F   UNL     1      44.888   8.357  11.171  0.00  0.00    +0.000 F 
ENDROOT
BRANCH   1   4
ATOM      4  C   UNL     1      44.794   5.992  11.469  0.00  0.00    +0.000 A 
ATOM      5  C   UNL     1      43.593   5.460  11.954  0.00  0.00    +0.000 A 
ATOM      6  C   UNL     1      43.099   4.256  11.456  0.00  0.00    +0.000 A 
ATOM      7  C   UNL     1      43.779   3.588  10.439  0.00  0.00    +0.000 A 
ATOM      8  C   UNL     1      44.974   4.102   9.909  0.00  0.00    +0.000 A 
ATOM      9  C   UNL     1      45.488   5.285  10.477  0.00  0.00    +0.000 A 
BRANCH   8  10
ATOM     10  C   UNL     1      45.649   3.450   8.769  0.00  0.00    +0.000 A 
ATOM     11  C   UNL     1      46.170   4.210   7.706  0.00  0.00    +0.000 A 
ATOM     12  C   UNL     1      46.815   3.605   6.629  0.00  0.00    +0.000 A 
ATOM     13  C   UNL     1      46.963   2.226   6.609  0.00  0.00    +0.000 A 
ATOM     14  F   UNL     1      47.619   1.666   5.581  0.00  0.00    +0.000 F 
ATOM     15  C   UNL     1      46.457   1.444   7.641  0.00  0.00    +0.000 A 
ATOM     16 CL   UNL     1      46.682  -0.263   7.648  0.00  0.00    +0.000 Cl
ATOM     17  C   UNL     1      45.788   2.051   8.703  0.00  0.00    +0.000 A 
ENDBRANCH   8  10
ENDBRANCH   1   4
BRANCH   1  18
ATOM     18  C   UNL     1      46.850   7.344  12.022  0.00  0.00    +0.000 C 
BRANCH  18  19
ATOM     19  O   UNL     1      47.370   6.043  12.337  0.00  0.00    +0.000 OA
BRANCH  19  23
ATOM     20  C   UNL     1      47.853   5.029  16.356  0.00  0.00    +0.000 A 
ATOM     21  C   UNL     1      48.482   6.185  15.884  0.00  0.00    +0.000 A 
ATOM     22  C   UNL     1      48.350   6.554  14.540  0.00  0.00    +0.000 A 
ATOM     23  C   UNL     1      47.591   5.775  13.663  0.00  0.00    +0.000 A 
ATOM     24  C   UNL     1      46.988   4.606  14.138  0.00  0.00    +0.000 A 
ATOM     25  C   UNL     1      47.118   4.230  15.477  0.00  0.00    +0.000 A 
BRANCH  20  27
ATOM     26  N   UNL     1      47.014   5.057  18.640  0.00  0.00    +0.000 N 
ATOM     27  C   UNL     1      47.971   4.609  17.781  0.00  0.00    +0.000 C 
ATOM     28  O   UNL     1      48.862   3.867  18.153  0.00  0.00    +0.000 OA
ATOM     29  H   UNL     1      47.042   4.671  19.577  0.00  0.00    +0.000 HD
ATOM     30  H   UNL     1      46.135   5.441  18.321  0.00  0.00    +0.000 HD
ENDBRANCH  20  27
ENDBRANCH  19  23
ENDBRANCH  18  19
ENDBRANCH   1  18
TORSDOF 6
ENDMDL
MODEL 8
REMARK VINA RESULT:    -7.793      1.488      1.822
REMARK INTER + INTRA:         -11.817
REMARK INTER:                 -11.214
REMARK INTRA:                  -0.603
REMARK UNBOUND:                -1.290
REMARK  Name = 
REMARK  6 active torsions:
REMARK  status: ('A' for Active; 'I' for Inactive)
REMARK    1  A    between atoms: C_2  and  C_4
REMARK    2  A    between atoms: C_7  and  O_8
REMARK    3  A    between atoms: O_8  and  C_9
REMARK    4  A    between atoms: C_9  and  C_10
REMARK    5  A    between atoms: C_10  and  C_13
REMARK    6  A    between atoms: C_17  and  C_18
REMARK                            x       y       z     vdW  Elec       q    Type
REMARK                         _______ _______ _______ _____ _____    ______ ____
ROOT
ATOM      1  C   UNL     1      45.614   6.415  11.412  0.00  0.00    +0.000 C 
ATOM      2  F   UNL     1      45.969   6.652  10.114  0.00  0.00    +0.000 F 
ATOM      3  F   UNL     1      44.571   7.261  11.668  0.00  0.00    +0.000 F 
ENDROOT
BRANCH   1   4
ATOM      4  C   UNL     1      46.773   6.662  12.366  0.00  0.00    +0.000 A 
ATOM      5  C   UNL     1      47.625   7.759  12.185  0.00  0.00    +0.000 A 
ATOM      6  C   UNL     1      48.655   8.012  13.087  0.00  0.00    +0.000 A 
ATOM      7  C   UNL     1      48.824   7.196  14.204  0.00  0.00    +0.000 A 
ATOM      8  C   UNL     1      47.974   6.101  14.435  0.00  0.00    +0.000 A 
ATOM      9  C   UNL     1      46.983   5.826  13.471  0.00  0.00    +0.000 A 
BRANCH   8  10
ATOM     10  C   UNL     1      48.086   5.289  15.663  0.00  0.00    +0.000 A 
ATOM     11  C   UNL     1      47.223   4.202  15.893  0.00  0.00    +0.000 A 
ATOM     12  C   UNL     1      47.326   3.427  17.046  0.00  0.00    +0.000 A 
ATOM     13  C   UNL     1      48.309   3.717  17.981  0.00  0.00    +0.000 A 
ATOM     14  F   UNL     1      48.414   2.935  19.065  0.00  0.00    +0.000 F 
ATOM     15  C   UNL     1      49.176   4.786  17.786  0.00  0.00    +0.000 A 
ATOM     16 CL   UNL     1      50.431   5.121  18.916  0.00  0.00    +0.000 Cl
ATOM     17  C   UNL     1      49.053   5.578  16.645  0.00  0.00    +0.000 A 
ENDBRANCH   8  10
ENDBRANCH   1   4
BRANCH   1  18
ATOM     18  C   UNL     1      45.109   4.961  11.529  0.00  0.00    +0.000 C 
BRANCH  18  19
ATOM     19  O   UNL     1      44.387   4.563  10.353  0.00  0.00    +0.000 OA
BRANCH  19  23
ATOM     20  C   UNL     1      46.499   2.248   7.598  0.00  0.00    +0.000 A 
ATOM     21  C   UNL     1      46.539   3.639   7.464  0.00  0.00    +0.000 A 
ATOM     22  C   UNL     1      45.837   4.450   8.363  0.00  0.00    +0.000 A 
ATOM     23  C   UNL     1      45.095   3.878   9.400  0.00  0.00    +0.000 A 
ATOM     24  C   UNL     1      45.039   2.486   9.510  0.00  0.00    +0.000 A 
ATOM     25  C   UNL     1      45.735   1.670   8.614  0.00  0.00    +0.000 A 
BRANCH  20  27
ATOM     26  N   UNL     1      48.201   1.932   5.886  0.00  0.00    +0.000 N 
ATOM     27  C   UNL     1      47.238   1.357   6.659  0.00  0.00    +0.000 C 
ATOM     28  O   UNL     1      47.016   0.160   6.613  0.00  0.00    +0.000 OA
ATOM     29  H   UNL     1      48.770   1.295   5.340  0.00  0.00    +0.000 HD
ATOM     30  H   UNL     1      48.585   2.845   6.088  0.00  0.00    +0.000 HD
ENDBRANCH  20  27
ENDBRANCH  19  23
ENDBRANCH  18  19
ENDBRANCH   1  18
TORSDOF 6
ENDMDL
MODEL 9
REMARK VINA RESULT:    -7.723      4.902      8.245
REMARK INTER + INTRA:         -11.723
REMARK INTER:                 -10.350
REMARK INTRA:                  -1.373
REMARK UNBOUND:                -1.290
REMARK  Name = 
REMARK  6 active torsions:
REMARK  status: ('A' for Active; 'I' for Inactive)
REMARK    1  A    between atoms: C_2  and  C_4
REMARK    2  A    between atoms: C_7  and  O_8
REMARK    3  A    between atoms: O_8  and  C_9
REMARK    4  A    between atoms: C_9  and  C_10
REMARK    5  A    between atoms: C_10  and  C_13
REMARK    6  A    between atoms: C_17  and  C_18
REMARK                            x       y       z     vdW  Elec       q    Type
REMARK                         _______ _______ _______ _____ _____    ______ ____
ROOT
ATOM      1  C   UNL     1      48.836   8.338  12.208  0.00  0.00    +0.000 C 
ATOM      2  F   UNL     1      48.985   9.626  12.640  0.00  0.00    +0.000 F 
ATOM      3  F   UNL     1      49.517   8.266  11.025  0.00  0.00    +0.000 F 
ENDROOT
BRANCH   1   4
ATOM      4  C   UNL     1      47.371   7.973  12.025  0.00  0.00    +0.000 A 
ATOM      5  C   UNL     1      46.363   8.902  12.308  0.00  0.00    +0.000 A 
ATOM      6  C   UNL     1      45.024   8.584  12.094  0.00  0.00    +0.000 A 
ATOM      7  C   UNL     1      44.677   7.346  11.556  0.00  0.00    +0.000 A 
ATOM      8  C   UNL     1      45.660   6.395  11.235  0.00  0.00    +0.000 A 
ATOM      9  C   UNL     1      47.001   6.716  11.526  0.00  0.00    +0.000 A 
BRANCH   8  10
ATOM     10  C   UNL     1      45.308   5.120  10.578  0.00  0.00    +0.000 A 
ATOM     11  C   UNL     1      44.583   4.129  11.265  0.00  0.00    +0.000 A 
ATOM     12  C   UNL     1      44.240   2.926  10.652  0.00  0.00    +0.000 A 
ATOM     13  C   UNL     1      44.604   2.703   9.332  0.00  0.00    +0.000 A 
ATOM     14  F   UNL     1      44.233   1.554   8.749  0.00  0.00    +0.000 F 
ATOM     15  C   UNL     1      45.325   3.659   8.625  0.00  0.00    +0.000 A 
ATOM     16 CL   UNL     1      45.736   3.411   6.972  0.00  0.00    +0.000 Cl
ATOM     17  C   UNL     1      45.690   4.851   9.250  0.00  0.00    +0.000 A 
ENDBRANCH   8  10
ENDBRANCH   1   4
BRANCH   1  18
ATOM     18  C   UNL     1      49.513   7.393  13.224  0.00  0.00    +0.000 C 
BRANCH  18  19
ATOM     19  O   UNL     1      49.054   7.652  14.561  0.00  0.00    +0.000 OA
BRANCH  19  23
ATOM     20  C   UNL     1      47.923   4.419  16.943  0.00  0.00    +0.000 A 
ATOM     21  C   UNL     1      47.374   4.522  15.661  0.00  0.00    +0.000 A 
ATOM     22  C   UNL     1      47.722   5.597  14.835  0.00  0.00    +0.000 A 
ATOM     23  C   UNL     1      48.620   6.571  15.282  0.00  0.00    +0.000 A 
ATOM     24  C   UNL     1      49.143   6.474  16.574  0.00  0.00    +0.000 A 
ATOM     25  C   UNL     1      48.797   5.406  17.405  0.00  0.00    +0.000 A 
BRANCH  20  27
ATOM     26  N   UNL     1      48.283   3.177  19.005  0.00  0.00    +0.000 N 
ATOM     27  C   UNL     1      47.575   3.286  17.846  0.00  0.00    +0.000 C 
ATOM     28  O   UNL     1      46.672   2.514  17.578  0.00  0.00    +0.000 OA
ATOM     29  H   UNL     1      47.958   2.474  19.659  0.00  0.00    +0.000 HD
ATOM     30  H   UNL     1      48.838   3.936  19.375  0.00  0.00    +0.000 HD
ENDBRANCH  20  27
ENDBRANCH  19  23
ENDBRANCH  18  19
ENDBRANCH   1  18
TORSDOF 6
ENDMDL
