MODEL 1
REMARK VINA RESULT:    -9.133      0.000      0.000
REMARK INTER + INTRA:         -14.157
REMARK INTER:                 -13.137
REMARK INTRA:                  -1.020
REMARK UNBOUND:                -1.020
REMARK  Name = 
REMARK  8 active torsions:
REMARK  status: ('A' for Active; 'I' for Inactive)
REMARK    1  A    between atoms: C_2  and  C_21
REMARK    2  A    between atoms: N_3  and  C_4
REMARK    3  A    between atoms: C_4  and  C_5
REMARK    4  A    between atoms: C_8  and  C_9
REMARK    5  A    between atoms: C_9  and  N_10
REMARK    6  A    between atoms: N_10  and  C_11
REMARK    7  A    between atoms: C_11  and  C_12
REMARK    8  A    between atoms: C_15  and  O_16
REMARK                            x       y       z     vdW  Elec       q    Type
REMARK                         _______ _______ _______ _____ _____    ______ ____
ROOT
ATOM      1  C   UNL     1      47.045   6.224  12.739  0.00  0.00    +0.000 A 
ATOM      2  C   UNL     1      46.774   6.684  11.444  0.00  0.00    +0.000 A 
ATOM      3  C   UNL     1      45.620   6.272  10.771  0.00  0.00    +0.000 A 
ATOM      4  C   UNL     1      44.708   5.401  11.382  0.00  0.00    +0.000 A 
ATOM      5  C   UNL     1      44.964   4.969  12.690  0.00  0.00    +0.000 A 
ATOM      6  C   UNL     1      46.115   5.384  13.365  0.00  0.00    +0.000 A 
ENDROOT
BRANCH   1   7
ATOM      7  C   UNL     1      48.312   6.630  13.444  0.00  0.00    +0.000 C 
BRANCH   7  10
ATOM      8  O   UNL     1      50.368   6.709  15.361  0.00  0.00    +0.000 OA
ATOM      9  C   UNL     1      49.201   6.753  15.739  0.00  0.00    +0.000 C 
ATOM     10  N   UNL     1      48.142   6.673  14.874  0.00  0.00    +0.000 N 
ATOM     11  H   UNL     1      47.206   6.865  15.210  0.00  0.00    +0.000 HD
BRANCH   9  12
ATOM     12  C   UNL     1      48.867   6.844  17.166  0.00  0.00    +0.000 A 
ATOM     13  C   UNL     1      48.352   8.027  17.679  0.00  0.00    +0.000 A 
ATOM     14  S   UNL     1      47.981   7.946  19.342  0.00  0.00    +0.000 S 
ATOM     15  C   UNL     1      48.462   6.318  19.424  0.00  0.00    +0.000 A 
ATOM     16  N   UNL     1      48.345   5.610  20.582  0.00  0.00    +0.000 NA
ATOM     17  C   UNL     1      48.704   4.375  20.491  0.00  0.00    +0.000 A 
ATOM     18  N   UNL     1      49.194   3.786  19.354  0.00  0.00    +0.000 N 
ATOM     19  C   UNL     1      49.417   4.481  18.191  0.00  0.00    +0.000 A 
ATOM     20  O   UNL     1      50.013   3.969  17.252  0.00  0.00    +0.000 OA
ATOM     21  C   UNL     1      48.949   5.854  18.215  0.00  0.00    +0.000 A 
ATOM     22  H   UNL     1      49.506   2.825  19.363  0.00  0.00    +0.000 HD
ENDBRANCH   9  12
ENDBRANCH   7  10
ENDBRANCH   1   7
BRANCH   4  23
ATOM     23  C   UNL     1      43.452   4.962  10.665  0.00  0.00    +0.000 C 
BRANCH  23  24
ATOM     24  N   UNL     1      43.751   4.366   9.362  0.00  0.00    +0.000 NA
ATOM     25  H   UNL     1      44.316   5.017   8.818  0.00  0.00    +0.000 HD
BRANCH  24  26
ATOM     26  C   UNL     1      44.453   3.091   9.514  0.00  0.00    +0.000 C 
BRANCH  26  27
ATOM     27  C   UNL     1      45.170   2.679   8.212  0.00  0.00    +0.000 C 
ATOM     28  C   UNL     1      46.052   3.843   7.717  0.00  0.00    +0.000 C 
ATOM     29  C   UNL     1      46.909   3.461   6.513  0.00  0.00    +0.000 C 
ATOM     30  C   UNL     1      47.743   2.217   6.802  0.00  0.00    +0.000 C 
ATOM     31  C   UNL     1      46.848   1.048   7.197  0.00  0.00    +0.000 C 
ATOM     32  C   UNL     1      45.995   1.393   8.412  0.00  0.00    +0.000 C 
BRANCH  30  33
ATOM     33  O   UNL     1      48.509   1.874   5.653  0.00  0.00    +0.000 OA
ATOM     34  H   UNL     1      47.914   1.457   5.007  0.00  0.00    +0.000 HD
ENDBRANCH  30  33
ENDBRANCH  26  27
ENDBRANCH  24  26
ENDBRANCH  23  24
ENDBRANCH   4  23
TORSDOF 8
ENDMDL
MODEL 2
REMARK VINA RESULT:    -8.970      1.377      1.647
REMARK INTER + INTRA:         -13.923
REMARK INTER:                 -13.037
REMARK INTRA:                  -0.886
REMARK UNBOUND:                -1.020
REMARK  Name = 
REMARK  8 active torsions:
REMARK  status: ('A' for Active; 'I' for Inactive)
REMARK    1  A    between atoms: C_2  and  C_21
REMARK    2  A    between atoms: N_3  and  C_4
REMARK    3  A    between atoms: C_4  and  C_5
REMARK    4  A    between atoms: C_8  and  C_9
REMARK    5  A    between atoms: C_9  and  N_10
REMARK    6  A    between atoms: N_10  and  C_11
REMARK    7  A    between atoms: C_11  and  C_12
REMARK    8  A    between atoms: C_15  and  O_16
REMARK                            x       y       z     vdW  Elec       q    Type
REMARK                         _______ _______ _______ _____ _____    ______ ____
ROOT
ATOM      1  C   UNL     1      46.322   7.384  12.729  0.00  0.00    +0.000 A 
ATOM      2  C   UNL     1      46.496   5.996  12.658  0.00  0.00    +0.000 A 
ATOM      3  C   UNL     1      45.571   5.197  11.979  0.00  0.00    +0.000 A 
ATOM      4  C   UNL     1      44.458   5.771  11.348  0.00  0.00    +0.000 A 
ATOM      5  C   UNL     1      44.303   7.163  11.393  0.00  0.00    +0.000 A 
ATOM      6  C   UNL     1      45.230   7.962  12.068  0.00  0.00    +0.000 A 
ENDROOT
BRANCH   1   7
ATOM      7  C   UNL     1      47.292   8.237  13.502  0.00  0.00    +0.000 C 
BRANCH   7  10
ATOM      8  O   UNL     1      49.735   6.935  13.998  0.00  0.00    +0.000 OA
ATOM      9  C   UNL     1      48.920   7.035  14.909  0.00  0.00    +0.000 C 
ATOM     10  N   UNL     1      47.690   7.614  14.738  0.00  0.00    +0.000 N 
ATOM     11  H   UNL     1      47.112   7.812  15.547  0.00  0.00    +0.000 HD
BRANCH   9  12
ATOM     12  C   UNL     1      49.199   6.489  16.243  0.00  0.00    +0.000 A 
ATOM     13  C   UNL     1      49.969   7.219  17.139  0.00  0.00    +0.000 A 
ATOM     14  S   UNL     1      50.159   6.457  18.653  0.00  0.00    +0.000 S 
ATOM     15  C   UNL     1      49.191   5.145  18.176  0.00  0.00    +0.000 A 
ATOM     16  N   UNL     1      48.898   4.137  19.043  0.00  0.00    +0.000 NA
ATOM     17  C   UNL     1      48.117   3.230  18.564  0.00  0.00    +0.000 A 
ATOM     18  N   UNL     1      47.621   3.224  17.286  0.00  0.00    +0.000 N 
ATOM     19  C   UNL     1      47.962   4.167  16.348  0.00  0.00    +0.000 A 
ATOM     20  O   UNL     1      47.639   4.038  15.174  0.00  0.00    +0.000 OA
ATOM     21  C   UNL     1      48.770   5.257  16.862  0.00  0.00    +0.000 A 
ATOM     22  H   UNL     1      47.053   2.455  16.956  0.00  0.00    +0.000 HD
ENDBRANCH   9  12
ENDBRANCH   7  10
ENDBRANCH   1   7
BRANCH   4  23
ATOM     23  C   UNL     1      43.460   4.915  10.602  0.00  0.00    +0.000 C 
BRANCH  23  24
ATOM     24  N   UNL     1      43.996   4.448   9.323  0.00  0.00    +0.000 NA
ATOM     25  H   UNL     1      44.746   5.071   9.026  0.00  0.00    +0.000 HD
BRANCH  24  26
ATOM     26  C   UNL     1      44.490   3.075   9.430  0.00  0.00    +0.000 C 
BRANCH  26  27
ATOM     27  C   UNL     1      45.229   2.636   8.147  0.00  0.00    +0.000 C 
ATOM     28  C   UNL     1      46.074   3.809   7.612  0.00  0.00    +0.000 C 
ATOM     29  C   UNL     1      46.951   3.411   6.428  0.00  0.00    +0.000 C 
ATOM     30  C   UNL     1      47.825   2.207   6.770  0.00  0.00    +0.000 C 
ATOM     31  C   UNL     1      46.967   1.025   7.205  0.00  0.00    +0.000 C 
ATOM     32  C   UNL     1      46.096   1.388   8.401  0.00  0.00    +0.000 C 
BRANCH  30  33
ATOM     33  O   UNL     1      48.609   1.847   5.639  0.00  0.00    +0.000 OA
ATOM     34  H   UNL     1      49.179   1.101   5.893  0.00  0.00    +0.000 HD
ENDBRANCH  30  33
ENDBRANCH  26  27
ENDBRANCH  24  26
ENDBRANCH  23  24
ENDBRANCH   4  23
TORSDOF 8
ENDMDL
MODEL 3
REMARK VINA RESULT:    -8.902      1.326      2.186
REMARK INTER + INTRA:         -13.825
REMARK INTER:                 -12.741
REMARK INTRA:                  -1.084
REMARK UNBOUND:                -1.020
REMARK  Name = 
REMARK  8 active torsions:
REMARK  status: ('A' for Active; 'I' for Inactive)
REMARK    1  A    between atoms: C_2  and  C_21
REMARK    2  A    between atoms: N_3  and  C_4
REMARK    3  A    between atoms: C_4  and  C_5
REMARK    4  A    between atoms: C_8  and  C_9
REMARK    5  A    between atoms: C_9  and  N_10
REMARK    6  A    between atoms: N_10  and  C_11
REMARK    7  A    between atoms: C_11  and  C_12
REMARK    8  A    between atoms: C_15  and  O_16
REMARK                            x       y       z     vdW  Elec       q    Type
REMARK                         _______ _______ _______ _____ _____    ______ ____
ROOT
ATOM      1  C   UNL     1      46.982   6.170  13.017  0.00  0.00    +0.000 A 
ATOM      2  C   UNL     1      46.089   5.219  13.527  0.00  0.00    +0.000 A 
ATOM      3  C   UNL     1      44.976   4.818  12.782  0.00  0.00    +0.000 A 
ATOM      4  C   UNL     1      44.738   5.352  11.508  0.00  0.00    +0.000 A 
ATOM      5  C   UNL     1      45.651   6.278  10.987  0.00  0.00    +0.000 A 
ATOM      6  C   UNL     1      46.766   6.676  11.729  0.00  0.00    +0.000 A 
ENDROOT
BRANCH   1   7
ATOM      7  C   UNL     1      48.153   6.636  13.841  0.00  0.00    +0.000 C 
BRANCH   7  10
ATOM      8  O   UNL     1      50.202   6.295  15.737  0.00  0.00    +0.000 OA
ATOM      9  C   UNL     1      49.033   6.232  16.107  0.00  0.00    +0.000 C 
ATOM     10  N   UNL     1      47.978   6.342  15.240  0.00  0.00    +0.000 N 
ATOM     11  H   UNL     1      47.038   6.436  15.605  0.00  0.00    +0.000 HD
BRANCH   9  12
ATOM     12  C   UNL     1      48.693   5.982  17.513  0.00  0.00    +0.000 A 
ATOM     13  C   UNL     1      48.870   4.713  18.050  0.00  0.00    +0.000 A 
ATOM     14  S   UNL     1      48.466   4.610  19.704  0.00  0.00    +0.000 S 
ATOM     15  C   UNL     1      48.075   6.262  19.767  0.00  0.00    +0.000 A 
ATOM     16  N   UNL     1      47.697   6.849  20.937  0.00  0.00    +0.000 NA
ATOM     17  C   UNL     1      47.475   8.117  20.850  0.00  0.00    +0.000 A 
ATOM     18  N   UNL     1      47.570   8.849  19.695  0.00  0.00    +0.000 N 
ATOM     19  C   UNL     1      47.856   8.285  18.476  0.00  0.00    +0.000 A 
ATOM     20  O   UNL     1      47.765   8.934  17.442  0.00  0.00    +0.000 OA
ATOM     21  C   UNL     1      48.199   6.877  18.534  0.00  0.00    +0.000 A 
ATOM     22  H   UNL     1      47.332   9.831  19.685  0.00  0.00    +0.000 HD
ENDBRANCH   9  12
ENDBRANCH   7  10
ENDBRANCH   1   7
BRANCH   4  23
ATOM     23  C   UNL     1      43.544   4.914  10.692  0.00  0.00    +0.000 C 
BRANCH  23  24
ATOM     24  N   UNL     1      43.941   4.404   9.379  0.00  0.00    +0.000 NA
ATOM     25  H   UNL     1      44.639   5.027   8.975  0.00  0.00    +0.000 HD
BRANCH  24  26
ATOM     26  C   UNL     1      44.474   3.045   9.482  0.00  0.00    +0.000 C 
BRANCH  26  27
ATOM     27  C   UNL     1      45.203   2.621   8.189  0.00  0.00    +0.000 C 
ATOM     28  C   UNL     1      46.064   3.792   7.675  0.00  0.00    +0.000 C 
ATOM     29  C   UNL     1      46.932   3.404   6.481  0.00  0.00    +0.000 C 
ATOM     30  C   UNL     1      47.788   2.182   6.795  0.00  0.00    +0.000 C 
ATOM     31  C   UNL     1      46.914   1.004   7.209  0.00  0.00    +0.000 C 
ATOM     32  C   UNL     1      46.051   1.356   8.415  0.00  0.00    +0.000 C 
BRANCH  30  33
ATOM     33  O   UNL     1      48.564   1.832   5.655  0.00  0.00    +0.000 OA
ATOM     34  H   UNL     1      48.830   0.901   5.745  0.00  0.00    +0.000 HD
ENDBRANCH  30  33
ENDBRANCH  26  27
ENDBRANCH  24  26
ENDBRANCH  23  24
ENDBRANCH   4  23
TORSDOF 8
ENDMDL
MODEL 4
REMARK VINA RESULT:    -8.165      1.749      2.132
REMARK INTER + INTRA:         -12.766
REMARK INTER:                 -11.832
REMARK INTRA:                  -0.934
REMARK UNBOUND:                -1.020
REMARK  Name = 
REMARK  8 active torsions:
REMARK  status: ('A' for Active; 'I' for Inactive)
REMARK    1  A    between atoms: C_2  and  C_21
REMARK    2  A    between atoms: N_3  and  C_4
REMARK    3  A    between atoms: C_4  and  C_5
REMARK    4  A    between atoms: C_8  and  C_9
REMARK    5  A    between atoms: C_9  and  N_10
REMARK    6  A    between atoms: N_10  and  C_11
REMARK    7  A    between atoms: C_11  and  C_12
REMARK    8  A    between atoms: C_15  and  O_16
REMARK                            x       y       z     vdW  Elec       q    Type
REMARK                         _______ _______ _______ _____ _____    ______ ____
ROOT
ATOM      1  C   UNL     1      46.809   6.590  12.770  0.00  0.00    +0.000 A 
ATOM      2  C   UNL     1      46.310   7.208  11.616  0.00  0.00    +0.000 A 
ATOM      3  C   UNL     1      45.207   6.673  10.944  0.00  0.00    +0.000 A 
ATOM      4  C   UNL     1      44.573   5.516  11.417  0.00  0.00    +0.000 A 
ATOM      5  C   UNL     1      45.053   4.919  12.590  0.00  0.00    +0.000 A 
ATOM      6  C   UNL     1      46.153   5.456  13.265  0.00  0.00    +0.000 A 
ENDROOT
BRANCH   1   7
ATOM      7  C   UNL     1      48.026   7.140  13.465  0.00  0.00    +0.000 C 
BRANCH   7  10
ATOM      8  O   UNL     1      48.834   7.890  16.052  0.00  0.00    +0.000 OA
ATOM      9  C   UNL     1      48.836   6.700  15.750  0.00  0.00    +0.000 C 
ATOM     10  N   UNL     1      48.501   6.256  14.498  0.00  0.00    +0.000 N 
ATOM     11  H   UNL     1      48.369   5.264  14.337  0.00  0.00    +0.000 HD
BRANCH   9  12
ATOM     12  C   UNL     1      49.252   5.672  16.713  0.00  0.00    +0.000 A 
ATOM     13  C   UNL     1      48.296   4.858  17.307  0.00  0.00    +0.000 A 
ATOM     14  S   UNL     1      48.955   3.694  18.365  0.00  0.00    +0.000 S 
ATOM     15  C   UNL     1      50.539   4.213  18.037  0.00  0.00    +0.000 A 
ATOM     16  N   UNL     1      51.613   3.584  18.592  0.00  0.00    +0.000 NA
ATOM     17  C   UNL     1      52.756   4.052  18.221  0.00  0.00    +0.000 A 
ATOM     18  N   UNL     1      52.926   5.111  17.367  0.00  0.00    +0.000 N 
ATOM     19  C   UNL     1      51.876   5.834  16.857  0.00  0.00    +0.000 A 
ATOM     20  O   UNL     1      52.065   6.873  16.238  0.00  0.00    +0.000 OA
ATOM     21  C   UNL     1      50.568   5.294  17.174  0.00  0.00    +0.000 A 
ATOM     22  H   UNL     1      53.850   5.462  17.157  0.00  0.00    +0.000 HD
ENDBRANCH   9  12
ENDBRANCH   7  10
ENDBRANCH   1   7
BRANCH   4  23
ATOM     23  C   UNL     1      43.373   4.939  10.703  0.00  0.00    +0.000 C 
BRANCH  23  24
ATOM     24  N   UNL     1      43.738   4.357   9.411  0.00  0.00    +0.000 NA
ATOM     25  H   UNL     1      44.226   5.058   8.854  0.00  0.00    +0.000 HD
BRANCH  24  26
ATOM     26  C   UNL     1      44.578   3.173   9.586  0.00  0.00    +0.000 C 
BRANCH  26  27
ATOM     27  C   UNL     1      45.249   2.751   8.261  0.00  0.00    +0.000 C 
ATOM     28  C   UNL     1      46.125   3.906   7.736  0.00  0.00    +0.000 C 
ATOM     29  C   UNL     1      46.939   3.515   6.505  0.00  0.00    +0.000 C 
ATOM     30  C   UNL     1      47.770   2.263   6.769  0.00  0.00    +0.000 C 
ATOM     31  C   UNL     1      46.877   1.104   7.194  0.00  0.00    +0.000 C 
ATOM     32  C   UNL     1      46.068   1.459   8.436  0.00  0.00    +0.000 C 
BRANCH  30  33
ATOM     33  O   UNL     1      48.495   1.912   5.596  0.00  0.00    +0.000 OA
ATOM     34  H   UNL     1      48.029   2.288   4.830  0.00  0.00    +0.000 HD
ENDBRANCH  30  33
ENDBRANCH  26  27
ENDBRANCH  24  26
ENDBRANCH  23  24
ENDBRANCH   4  23
TORSDOF 8
ENDMDL
MODEL 5
REMARK VINA RESULT:    -8.082      1.985      2.492
REMARK INTER + INTRA:         -12.646
REMARK INTER:                 -11.507
REMARK INTRA:                  -1.139
REMARK UNBOUND:                -1.020
REMARK  Name = 
REMARK  8 active torsions:
REMARK  status: ('A' for Active; 'I' for Inactive)
REMARK    1  A    between atoms: C_2  and  C_21
REMARK    2  A    between atoms: N_3  and  C_4
REMARK    3  A    between atoms: C_4  and  C_5
REMARK    4  A    between atoms: C_8  and  C_9
REMARK    5  A    between atoms: C_9  and  N_10
REMARK    6  A    between atoms: N_10  and  C_11
REMARK    7  A    between atoms: C_11  and  C_12
REMARK    8  A    between atoms: C_15  and  O_16
REMARK                            x       y       z     vdW  Elec       q    Type
REMARK                         _______ _______ _______ _____ _____    ______ ____
ROOT
ATOM      1  C   UNL     1      46.263   6.856  12.458  0.00  0.00    +0.000 A 
ATOM      2  C   UNL     1      46.669   5.530  12.658  0.00  0.00    +0.000 A 
ATOM      3  C   UNL     1      45.800   4.470  12.380  0.00  0.00    +0.000 A 
ATOM      4  C   UNL     1      44.511   4.714  11.886  0.00  0.00    +0.000 A 
ATOM      5  C   UNL     1      44.119   6.039  11.655  0.00  0.00    +0.000 A 
ATOM      6  C   UNL     1      44.989   7.098  11.928  0.00  0.00    +0.000 A 
ENDROOT
BRANCH   1   7
ATOM      7  C   UNL     1      47.182   7.997  12.803  0.00  0.00    +0.000 C 
BRANCH   7  10
ATOM      8  O   UNL     1      47.923   8.747  15.410  0.00  0.00    +0.000 OA
ATOM      9  C   UNL     1      48.616   7.932  14.807  0.00  0.00    +0.000 C 
ATOM     10  N   UNL     1      48.349   7.549  13.519  0.00  0.00    +0.000 N 
ATOM     11  H   UNL     1      48.852   6.768  13.114  0.00  0.00    +0.000 HD
BRANCH   9  12
ATOM     12  C   UNL     1      49.815   7.350  15.421  0.00  0.00    +0.000 A 
ATOM     13  C   UNL     1      51.053   7.947  15.217  0.00  0.00    +0.000 A 
ATOM     14  S   UNL     1      52.329   7.167  16.036  0.00  0.00    +0.000 S 
ATOM     15  C   UNL     1      51.268   6.029  16.718  0.00  0.00    +0.000 A 
ATOM     16  N   UNL     1      51.719   5.082  17.588  0.00  0.00    +0.000 NA
ATOM     17  C   UNL     1      50.800   4.313  18.064  0.00  0.00    +0.000 A 
ATOM     18  N   UNL     1      49.472   4.385  17.731  0.00  0.00    +0.000 N 
ATOM     19  C   UNL     1      48.986   5.259  16.790  0.00  0.00    +0.000 A 
ATOM     20  O   UNL     1      47.830   5.183  16.393  0.00  0.00    +0.000 OA
ATOM     21  C   UNL     1      49.965   6.205  16.288  0.00  0.00    +0.000 A 
ATOM     22  H   UNL     1      48.810   3.718  18.102  0.00  0.00    +0.000 HD
ENDBRANCH   9  12
ENDBRANCH   7  10
ENDBRANCH   1   7
BRANCH   4  23
ATOM     23  C   UNL     1      43.571   3.573  11.572  0.00  0.00    +0.000 C 
BRANCH  23  24
ATOM     24  N   UNL     1      44.227   2.532  10.779  0.00  0.00    +0.000 NA
ATOM     25  H   UNL     1      43.731   1.651  10.907  0.00  0.00    +0.000 HD
BRANCH  24  26
ATOM     26  C   UNL     1      44.261   2.894   9.361  0.00  0.00    +0.000 C 
BRANCH  26  27
ATOM     27  C   UNL     1      45.659   2.661   8.749  0.00  0.00    +0.000 C 
ATOM     28  C   UNL     1      45.789   1.192   8.302  0.00  0.00    +0.000 C 
ATOM     29  C   UNL     1      47.089   0.918   7.552  0.00  0.00    +0.000 C 
ATOM     30  C   UNL     1      47.259   1.874   6.375  0.00  0.00    +0.000 C 
ATOM     31  C   UNL     1      47.225   3.323   6.848  0.00  0.00    +0.000 C 
ATOM     32  C   UNL     1      45.926   3.631   7.583  0.00  0.00    +0.000 C 
BRANCH  30  33
ATOM     33  O   UNL     1      48.491   1.609   5.715  0.00  0.00    +0.000 OA
ATOM     34  H   UNL     1      48.549   0.651   5.557  0.00  0.00    +0.000 HD
ENDBRANCH  30  33
ENDBRANCH  26  27
ENDBRANCH  24  26
ENDBRANCH  23  24
ENDBRANCH   4  23
TORSDOF 8
ENDMDL
MODEL 6
REMARK VINA RESULT:    -7.978      2.256      3.103
REMARK INTER + INTRA:         -12.496
REMARK INTER:                 -11.534
REMARK INTRA:                  -0.962
REMARK UNBOUND:                -1.020
REMARK  Name = 
REMARK  8 active torsions:
REMARK  status: ('A' for Active; 'I' for Inactive)
REMARK    1  A    between atoms: C_2  and  C_21
REMARK    2  A    between atoms: N_3  and  C_4
REMARK    3  A    between atoms: C_4  and  C_5
REMARK    4  A    between atoms: C_8  and  C_9
REMARK    5  A    between atoms: C_9  and  N_10
REMARK    6  A    between atoms: N_10  and  C_11
REMARK    7  A    between atoms: C_11  and  C_12
REMARK    8  A    between atoms: C_15  and  O_16
REMARK                            x       y       z     vdW  Elec       q    Type
REMARK                         _______ _______ _______ _____ _____    ______ ____
ROOT
ATOM      1  C   UNL     1      47.516   5.898  14.273  0.00  0.00    +0.000 A 
ATOM      2  C   UNL     1      47.247   4.576  14.651  0.00  0.00    +0.000 A 
ATOM      3  C   UNL     1      46.491   3.740  13.823  0.00  0.00    +0.000 A 
ATOM      4  C   UNL     1      45.998   4.205  12.596  0.00  0.00    +0.000 A 
ATOM      5  C   UNL     1      46.297   5.517  12.206  0.00  0.00    +0.000 A 
ATOM      6  C   UNL     1      47.056   6.351  13.030  0.00  0.00    +0.000 A 
ENDROOT
BRANCH   1   7
ATOM      7  C   UNL     1      48.289   6.811  15.188  0.00  0.00    +0.000 C 
BRANCH   7  10
ATOM      8  O   UNL     1      48.499   5.721  17.772  0.00  0.00    +0.000 OA
ATOM      9  C   UNL     1      49.451   5.617  17.004  0.00  0.00    +0.000 C 
ATOM     10  N   UNL     1      49.446   6.160  15.746  0.00  0.00    +0.000 N 
ATOM     11  H   UNL     1      50.186   5.922  15.095  0.00  0.00    +0.000 HD
BRANCH   9  12
ATOM     12  C   UNL     1      50.687   4.940  17.413  0.00  0.00    +0.000 A 
ATOM     13  C   UNL     1      51.748   5.683  17.914  0.00  0.00    +0.000 A 
ATOM     14  S   UNL     1      53.087   4.734  18.378  0.00  0.00    +0.000 S 
ATOM     15  C   UNL     1      52.283   3.297  17.959  0.00  0.00    +0.000 A 
ATOM     16  N   UNL     1      52.865   2.083  18.162  0.00  0.00    +0.000 NA
ATOM     17  C   UNL     1      52.125   1.076  17.842  0.00  0.00    +0.000 A 
ATOM     18  N   UNL     1      50.865   1.171  17.310  0.00  0.00    +0.000 N 
ATOM     19  C   UNL     1      50.275   2.371  17.001  0.00  0.00    +0.000 A 
ATOM     20  O   UNL     1      49.225   2.417  16.372  0.00  0.00    +0.000 OA
ATOM     21  C   UNL     1      51.030   3.536  17.422  0.00  0.00    +0.000 A 
ATOM     22  H   UNL     1      50.358   0.342  17.033  0.00  0.00    +0.000 HD
ENDBRANCH   9  12
ENDBRANCH   7  10
ENDBRANCH   1   7
BRANCH   4  23
ATOM     23  C   UNL     1      45.191   3.303  11.691  0.00  0.00    +0.000 C 
BRANCH  23  24
ATOM     24  N   UNL     1      44.427   4.068  10.705  0.00  0.00    +0.000 NA
ATOM     25  H   UNL     1      44.900   4.953  10.527  0.00  0.00    +0.000 HD
BRANCH  24  26
ATOM     26  C   UNL     1      44.273   3.315   9.460  0.00  0.00    +0.000 C 
BRANCH  26  27
ATOM     27  C   UNL     1      45.640   2.935   8.853  0.00  0.00    +0.000 C 
ATOM     28  C   UNL     1      45.620   1.455   8.422  0.00  0.00    +0.000 C 
ATOM     29  C   UNL     1      46.886   1.041   7.678  0.00  0.00    +0.000 C 
ATOM     30  C   UNL     1      47.154   1.962   6.491  0.00  0.00    +0.000 C 
ATOM     31  C   UNL     1      47.267   3.411   6.948  0.00  0.00    +0.000 C 
ATOM     32  C   UNL     1      46.006   3.859   7.676  0.00  0.00    +0.000 C 
BRANCH  30  33
ATOM     33  O   UNL     1      48.353   1.565   5.836  0.00  0.00    +0.000 OA
ATOM     34  H   UNL     1      49.030   2.241   6.011  0.00  0.00    +0.000 HD
ENDBRANCH  30  33
ENDBRANCH  26  27
ENDBRANCH  24  26
ENDBRANCH  23  24
ENDBRANCH   4  23
TORSDOF 8
ENDMDL
MODEL 7
REMARK VINA RESULT:    -7.624      3.614      8.546
REMARK INTER + INTRA:         -11.986
REMARK INTER:                 -10.359
REMARK INTRA:                  -1.627
REMARK UNBOUND:                -1.020
REMARK  Name = 
REMARK  8 active torsions:
REMARK  status: ('A' for Active; 'I' for Inactive)
REMARK    1  A    between atoms: C_2  and  C_21
REMARK    2  A    between atoms: N_3  and  C_4
REMARK    3  A    between atoms: C_4  and  C_5
REMARK    4  A    between atoms: C_8  and  C_9
REMARK    5  A    between atoms: C_9  and  N_10
REMARK    6  A    between atoms: N_10  and  C_11
REMARK    7  A    between atoms: C_11  and  C_12
REMARK    8  A    between atoms: C_15  and  O_16
REMARK                            x       y       z     vdW  Elec       q    Type
REMARK                         _______ _______ _______ _____ _____    ______ ____
ROOT
ATOM      1  C   UNL     1      48.461   8.014  13.602  0.00  0.00    +0.000 A 
ATOM      2  C   UNL     1      48.207   9.132  14.407  0.00  0.00    +0.000 A 
ATOM      3  C   UNL     1      48.294   9.040  15.800  0.00  0.00    +0.000 A 
ATOM      4  C   UNL     1      48.649   7.831  16.415  0.00  0.00    +0.000 A 
ATOM      5  C   UNL     1      48.935   6.724  15.606  0.00  0.00    +0.000 A 
ATOM      6  C   UNL     1      48.851   6.817  14.214  0.00  0.00    +0.000 A 
ENDROOT
BRANCH   1   7
ATOM      7  C   UNL     1      48.318   8.103  12.106  0.00  0.00    +0.000 C 
BRANCH   7  10
ATOM      8  O   UNL     1      45.530   7.978  11.761  0.00  0.00    +0.000 OA
ATOM      9  C   UNL     1      46.217   7.028  11.396  0.00  0.00    +0.000 C 
ATOM     10  N   UNL     1      47.576   6.991  11.570  0.00  0.00    +0.000 N 
ATOM     11  H   UNL     1      48.118   6.263  11.121  0.00  0.00    +0.000 HD
BRANCH   9  12
ATOM     12  C   UNL     1      45.609   5.839  10.788  0.00  0.00    +0.000 A 
ATOM     13  C   UNL     1      45.850   5.548   9.451  0.00  0.00    +0.000 A 
ATOM     14  S   UNL     1      45.101   4.110   8.920  0.00  0.00    +0.000 S 
ATOM     15  C   UNL     1      44.461   3.809  10.465  0.00  0.00    +0.000 A 
ATOM     16  N   UNL     1      43.742   2.680  10.719  0.00  0.00    +0.000 NA
ATOM     17  C   UNL     1      43.356   2.557  11.943  0.00  0.00    +0.000 A 
ATOM     18  N   UNL     1      43.598   3.473  12.934  0.00  0.00    +0.000 N 
ATOM     19  C   UNL     1      44.235   4.668  12.706  0.00  0.00    +0.000 A 
ATOM     20  O   UNL     1      44.284   5.534  13.570  0.00  0.00    +0.000 OA
ATOM     21  C   UNL     1      44.766   4.816  11.364  0.00  0.00    +0.000 A 
ATOM     22  H   UNL     1      43.222   3.341  13.863  0.00  0.00    +0.000 HD
ENDBRANCH   9  12
ENDBRANCH   7  10
ENDBRANCH   1   7
BRANCH   4  23
ATOM     23  C   UNL     1      48.758   7.727  17.919  0.00  0.00    +0.000 C 
BRANCH  23  24
ATOM     24  N   UNL     1      47.623   7.007  18.497  0.00  0.00    +0.000 NA
ATOM     25  H   UNL     1      47.133   6.504  17.758  0.00  0.00    +0.000 HD
BRANCH  24  26
ATOM     26  C   UNL     1      48.064   6.077  19.537  0.00  0.00    +0.000 C 
BRANCH  26  27
ATOM     27  C   UNL     1      48.282   4.656  18.973  0.00  0.00    +0.000 C 
ATOM     28  C   UNL     1      47.277   4.394  17.834  0.00  0.00    +0.000 C 
ATOM     29  C   UNL     1      47.524   3.065  17.125  0.00  0.00    +0.000 C 
ATOM     30  C   UNL     1      48.964   2.964  16.630  0.00  0.00    +0.000 C 
ATOM     31  C   UNL     1      49.944   3.129  17.785  0.00  0.00    +0.000 C 
ATOM     32  C   UNL     1      49.734   4.459  18.499  0.00  0.00    +0.000 C 
BRANCH  30  33
ATOM     33  O   UNL     1      49.167   1.706  15.998  0.00  0.00    +0.000 OA
ATOM     34  H   UNL     1      48.505   1.083  16.346  0.00  0.00    +0.000 HD
ENDBRANCH  30  33
ENDBRANCH  26  27
ENDBRANCH  24  26
ENDBRANCH  23  24
ENDBRANCH   4  23
TORSDOF 8
ENDMDL
MODEL 8
REMARK VINA RESULT:    -7.617      1.996      3.245
REMARK INTER + INTRA:         -11.977
REMARK INTER:                 -10.861
REMARK INTRA:                  -1.116
REMARK UNBOUND:                -1.020
REMARK  Name = 
REMARK  8 active torsions:
REMARK  status: ('A' for Active; 'I' for Inactive)
REMARK    1  A    between atoms: C_2  and  C_21
REMARK    2  A    between atoms: N_3  and  C_4
REMARK    3  A    between atoms: C_4  and  C_5
REMARK    4  A    between atoms: C_8  and  C_9
REMARK    5  A    between atoms: C_9  and  N_10
REMARK    6  A    between atoms: N_10  and  C_11
REMARK    7  A    between atoms: C_11  and  C_12
REMARK    8  A    between atoms: C_15  and  O_16
REMARK                            x       y       z     vdW  Elec       q    Type
REMARK                         _______ _______ _______ _____ _____    ______ ____
ROOT
ATOM      1  C   UNL     1      47.290   4.690  14.578  0.00  0.00    +0.000 A 
ATOM      2  C   UNL     1      46.876   5.879  13.963  0.00  0.00    +0.000 A 
ATOM      3  C   UNL     1      46.080   5.845  12.814  0.00  0.00    +0.000 A 
ATOM      4  C   UNL     1      45.673   4.622  12.262  0.00  0.00    +0.000 A 
ATOM      5  C   UNL     1      46.060   3.436  12.899  0.00  0.00    +0.000 A 
ATOM      6  C   UNL     1      46.852   3.469  14.050  0.00  0.00    +0.000 A 
ENDROOT
BRANCH   1   7
ATOM      7  C   UNL     1      48.187   4.728  15.787  0.00  0.00    +0.000 C 
BRANCH   7  10
ATOM      8  O   UNL     1      49.690   5.625  17.988  0.00  0.00    +0.000 OA
ATOM      9  C   UNL     1      48.630   6.185  17.725  0.00  0.00    +0.000 C 
ATOM     10  N   UNL     1      47.817   5.780  16.699  0.00  0.00    +0.000 N 
ATOM     11  H   UNL     1      47.033   6.359  16.423  0.00  0.00    +0.000 HD
BRANCH   9  12
ATOM     12  C   UNL     1      48.139   7.305  18.537  0.00  0.00    +0.000 A 
ATOM     13  C   UNL     1      47.846   7.106  19.880  0.00  0.00    +0.000 A 
ATOM     14  S   UNL     1      47.328   8.520  20.681  0.00  0.00    +0.000 S 
ATOM     15  C   UNL     1      47.512   9.451  19.272  0.00  0.00    +0.000 A 
ATOM     16  N   UNL     1      47.281  10.794  19.283  0.00  0.00    +0.000 NA
ATOM     17  C   UNL     1      47.503  11.383  18.158  0.00  0.00    +0.000 A 
ATOM     18  N   UNL     1      47.910  10.749  17.012  0.00  0.00    +0.000 N 
ATOM     19  C   UNL     1      48.065   9.388  16.927  0.00  0.00    +0.000 A 
ATOM     20  O   UNL     1      48.262   8.839  15.850  0.00  0.00    +0.000 OA
ATOM     21  C   UNL     1      47.912   8.689  18.189  0.00  0.00    +0.000 A 
ATOM     22  H   UNL     1      48.017  11.263  16.148  0.00  0.00    +0.000 HD
ENDBRANCH   9  12
ENDBRANCH   7  10
ENDBRANCH   1   7
BRANCH   4  23
ATOM     23  C   UNL     1      44.802   4.578  11.028  0.00  0.00    +0.000 C 
BRANCH  23  24
ATOM     24  N   UNL     1      44.316   3.225  10.755  0.00  0.00    +0.000 NA
ATOM     25  H   UNL     1      43.394   3.110  11.174  0.00  0.00    +0.000 HD
BRANCH  24  26
ATOM     26  C   UNL     1      44.255   2.968   9.316  0.00  0.00    +0.000 C 
BRANCH  26  27
ATOM     27  C   UNL     1      45.659   2.729   8.722  0.00  0.00    +0.000 C 
ATOM     28  C   UNL     1      45.795   1.254   8.297  0.00  0.00    +0.000 C 
ATOM     29  C   UNL     1      47.104   0.971   7.564  0.00  0.00    +0.000 C 
ATOM     30  C   UNL     1      47.285   1.910   6.375  0.00  0.00    +0.000 C 
ATOM     31  C   UNL     1      47.244   3.365   6.827  0.00  0.00    +0.000 C 
ATOM     32  C   UNL     1      45.937   3.682   7.544  0.00  0.00    +0.000 C 
BRANCH  30  33
ATOM     33  O   UNL     1      48.523   1.637   5.731  0.00  0.00    +0.000 OA
ATOM     34  H   UNL     1      49.240   1.951   6.310  0.00  0.00    +0.000 HD
ENDBRANCH  30  33
ENDBRANCH  26  27
ENDBRANCH  24  26
ENDBRANCH  23  24
ENDBRANCH   4  23
TORSDOF 8
ENDMDL
MODEL 9
REMARK VINA RESULT:    -7.482      3.177      5.014
REMARK INTER + INTRA:         -11.782
REMARK INTER:                 -10.605
REMARK INTRA:                  -1.177
REMARK UNBOUND:                -1.020
REMARK  Name = 
REMARK  8 active torsions:
REMARK  status: ('A' for Active; 'I' for Inactive)
REMARK    1  A    between atoms: C_2  and  C_21
REMARK    2  A    between atoms: N_3  and  C_4
REMARK    3  A    between atoms: C_4  and  C_5
REMARK    4  A    between atoms: C_8  and  C_9
REMARK    5  A    between atoms: C_9  and  N_10
REMARK    6  A    between atoms: N_10  and  C_11
REMARK    7  A    between atoms: C_11  and  C_12
REMARK    8  A    between atoms: C_15  and  O_16
REMARK                            x       y       z     vdW  Elec       q    Type
REMARK                         _______ _______ _______ _____ _____    ______ ____
ROOT
ATOM      1  C   UNL     1      47.213   5.707  13.954  0.00  0.00    +0.000 A 
ATOM      2  C   UNL     1      46.702   6.546  12.955  0.00  0.00    +0.000 A 
ATOM      3  C   UNL     1      45.872   6.033  11.953  0.00  0.00    +0.000 A 
ATOM      4  C   UNL     1      45.528   4.674  11.935  0.00  0.00    +0.000 A 
ATOM      5  C   UNL     1      46.014   3.845  12.954  0.00  0.00    +0.000 A 
ATOM      6  C   UNL     1      46.840   4.357  13.958  0.00  0.00    +0.000 A 
ENDROOT
BRANCH   1   7
ATOM      7  C   UNL     1      48.146   6.251  15.003  0.00  0.00    +0.000 C 
BRANCH   7  10
ATOM      8  O   UNL     1      48.693   9.009  14.937  0.00  0.00    +0.000 OA
ATOM      9  C   UNL     1      49.516   8.229  14.469  0.00  0.00    +0.000 C 
ATOM     10  N   UNL     1      49.306   6.875  14.421  0.00  0.00    +0.000 N 
ATOM     11  H   UNL     1      50.068   6.259  14.168  0.00  0.00    +0.000 HD
BRANCH   9  12
ATOM     12  C   UNL     1      50.771   8.711  13.879  0.00  0.00    +0.000 A 
ATOM     13  C   UNL     1      51.665   9.434  14.658  0.00  0.00    +0.000 A 
ATOM     14  S   UNL     1      53.088   9.878  13.827  0.00  0.00    +0.000 S 
ATOM     15  C   UNL     1      52.573   9.091  12.412  0.00  0.00    +0.000 A 
ATOM     16  N   UNL     1      53.368   9.042  11.308  0.00  0.00    +0.000 NA
ATOM     17  C   UNL     1      52.872   8.374  10.323  0.00  0.00    +0.000 A 
ATOM     18  N   UNL     1      51.641   7.771  10.329  0.00  0.00    +0.000 N 
ATOM     19  C   UNL     1      50.767   7.872  11.383  0.00  0.00    +0.000 A 
ATOM     20  O   UNL     1      49.614   7.469  11.290  0.00  0.00    +0.000 OA
ATOM     21  C   UNL     1      51.311   8.540  12.550  0.00  0.00    +0.000 A 
ATOM     22  H   UNL     1      51.289   7.305   9.504  0.00  0.00    +0.000 HD
ENDBRANCH   9  12
ENDBRANCH   7  10
ENDBRANCH   1   7
BRANCH   4  23
ATOM     23  C   UNL     1      44.622   4.116  10.862  0.00  0.00    +0.000 C 
BRANCH  23  24
ATOM     24  N   UNL     1      44.735   2.660  10.760  0.00  0.00    +0.000 NA
ATOM     25  H   UNL     1      44.024   2.227  11.348  0.00  0.00    +0.000 HD
BRANCH  24  26
ATOM     26  C   UNL     1      44.584   2.217   9.374  0.00  0.00    +0.000 C 
BRANCH  26  27
ATOM     27  C   UNL     1      45.866   2.473   8.553  0.00  0.00    +0.000 C 
ATOM     28  C   UNL     1      46.392   1.139   7.987  0.00  0.00    +0.000 C 
ATOM     29  C   UNL     1      47.575   1.327   7.041  0.00  0.00    +0.000 C 
ATOM     30  C   UNL     1      47.237   2.310   5.924  0.00  0.00    +0.000 C 
ATOM     31  C   UNL     1      46.812   3.655   6.500  0.00  0.00    +0.000 C 
ATOM     32  C   UNL     1      45.616   3.501   7.433  0.00  0.00    +0.000 C 
BRANCH  30  33
ATOM     33  O   UNL     1      48.367   2.481   5.077  0.00  0.00    +0.000 OA
ATOM     34  H   UNL     1      48.102   2.251   4.170  0.00  0.00    +0.000 HD
ENDBRANCH  30  33
ENDBRANCH  26  27
ENDBRANCH  24  26
ENDBRANCH  23  24
ENDBRANCH   4  23
TORSDOF 8
ENDMDL
