MODEL 1
REMARK VINA RESULT:    -9.272      0.000      0.000
REMARK INTER + INTRA:         -12.686
REMARK INTER:                 -11.440
REMARK INTRA:                  -1.247
REMARK UNBOUND:                -1.247
REMARK  Name = 
REMARK  4 active torsions:
REMARK  status: ('A' for Active; 'I' for Inactive)
REMARK    1  A    between atoms: C_2  and  C_4
REMARK    2  A    between atoms: N_8  and  C_9
REMARK    3  A    between atoms: C_9  and  C_10
REMARK    4  A    between atoms: C_14  and  C_15
REMARK                            x       y       z     vdW  Elec       q    Type
REMARK                         _______ _______ _______ _____ _____    ______ ____
ROOT
ATOM      1  C   UNL     1      43.799   4.877  11.370  0.00  0.00    +0.000 C 
ATOM      2  C   UNL     1      42.451   5.176  12.012  0.00  0.00    +0.000 C 
ATOM      3  C   UNL     1      43.029   6.137  11.031  0.00  0.00    +0.000 C 
ENDROOT
BRANCH   1   8
ATOM      4  C   UNL     1      46.577   2.762   7.508  0.00  0.00    +0.000 A 
ATOM      5  C   UNL     1      46.215   4.097   7.676  0.00  0.00    +0.000 A 
ATOM      6  C   UNL     1      45.324   4.440   8.699  0.00  0.00    +0.000 A 
ATOM      7  C   UNL     1      44.806   3.450   9.523  0.00  0.00    +0.000 A 
ATOM      8  N   UNL     1      43.821   3.690  10.488  0.00  0.00    +0.000 N 
ATOM      9  N   UNL     1      45.153   2.152   9.371  0.00  0.00    +0.000 NA
ATOM     10  C   UNL     1      46.021   1.835   8.374  0.00  0.00    +0.000 A 
ATOM     11  H   UNL     1      43.705   2.799  10.967  0.00  0.00    +0.000 HD
BRANCH   4  13
ATOM     12  N   UNL     1      47.398   2.946   5.231  0.00  0.00    +0.000 N 
ATOM     13  C   UNL     1      47.470   2.297   6.430  0.00  0.00    +0.000 C 
ATOM     14  O   UNL     1      48.260   1.376   6.606  0.00  0.00    +0.000 OA
ATOM     15  H   UNL     1      48.073   2.676   4.530  0.00  0.00    +0.000 HD
ATOM     16  H   UNL     1      46.947   3.842   5.118  0.00  0.00    +0.000 HD
ENDBRANCH   4  13
ENDBRANCH   1   8
BRANCH   1  17
ATOM     17  C   UNL     1      45.061   4.997  12.219  0.00  0.00    +0.000 A 
ATOM     18  C   UNL     1      45.551   3.932  12.991  0.00  0.00    +0.000 A 
ATOM     19  C   UNL     1      46.788   4.010  13.629  0.00  0.00    +0.000 A 
ATOM     20  C   UNL     1      47.580   5.149  13.482  0.00  0.00    +0.000 A 
ATOM     21  C   UNL     1      47.145   6.239  12.712  0.00  0.00    +0.000 A 
ATOM     22  C   UNL     1      45.863   6.152  12.135  0.00  0.00    +0.000 A 
BRANCH  21  23
ATOM     23  C   UNL     1      48.030   7.379  12.389  0.00  0.00    +0.000 A 
ATOM     24  C   UNL     1      49.408   7.184  12.193  0.00  0.00    +0.000 A 
ATOM     25  C   UNL     1      50.226   8.224  11.755  0.00  0.00    +0.000 A 
ATOM     26  F   UNL     1      51.529   7.993  11.553  0.00  0.00    +0.000 F 
ATOM     27  C   UNL     1      49.709   9.482  11.497  0.00  0.00    +0.000 A 
ATOM     28  C   UNL     1      48.356   9.694  11.706  0.00  0.00    +0.000 A 
ATOM     29  F   UNL     1      47.831  10.898  11.445  0.00  0.00    +0.000 F 
ATOM     30  C   UNL     1      47.524   8.670  12.156  0.00  0.00    +0.000 A 
ENDBRANCH  21  23
ENDBRANCH   1  17
TORSDOF 4
ENDMDL
MODEL 2
REMARK VINA RESULT:    -9.217      2.725      3.947
REMARK INTER + INTRA:         -12.619
REMARK INTER:                 -11.993
REMARK INTRA:                  -0.625
REMARK UNBOUND:                -1.247
REMARK  Name = 
REMARK  4 active torsions:
REMARK  status: ('A' for Active; 'I' for Inactive)
REMARK    1  A    between atoms: C_2  and  C_4
REMARK    2  A    between atoms: N_8  and  C_9
REMARK    3  A    between atoms: C_9  and  C_10
REMARK    4  A    between atoms: C_14  and  C_15
REMARK                            x       y       z     vdW  Elec       q    Type
REMARK                         _______ _______ _______ _____ _____    ______ ____
ROOT
ATOM      1  C   UNL     1      43.960   4.954  11.533  0.00  0.00    +0.000 C 
ATOM      2  C   UNL     1      42.831   5.069  12.549  0.00  0.00    +0.000 C 
ATOM      3  C   UNL     1      42.886   6.015  11.399  0.00  0.00    +0.000 C 
ENDROOT
BRANCH   1   8
ATOM      4  C   UNL     1      46.412   2.719   7.521  0.00  0.00    +0.000 A 
ATOM      5  C   UNL     1      45.987   4.041   7.641  0.00  0.00    +0.000 A 
ATOM      6  C   UNL     1      45.197   4.408   8.736  0.00  0.00    +0.000 A 
ATOM      7  C   UNL     1      44.841   3.454   9.679  0.00  0.00    +0.000 A 
ATOM      8  N   UNL     1      43.957   3.709  10.735  0.00  0.00    +0.000 N 
ATOM      9  N   UNL     1      45.250   2.170   9.575  0.00  0.00    +0.000 NA
ATOM     10  C   UNL     1      46.018   1.829   8.506  0.00  0.00    +0.000 A 
ATOM     11  H   UNL     1      43.953   2.850  11.283  0.00  0.00    +0.000 HD
BRANCH   4  13
ATOM     12  N   UNL     1      47.176   2.963   5.230  0.00  0.00    +0.000 N 
ATOM     13  C   UNL     1      47.206   2.226   6.379  0.00  0.00    +0.000 C 
ATOM     14  O   UNL     1      47.882   1.206   6.462  0.00  0.00    +0.000 OA
ATOM     15  H   UNL     1      47.789   2.663   4.486  0.00  0.00    +0.000 HD
ATOM     16  H   UNL     1      46.836   3.913   5.195  0.00  0.00    +0.000 HD
ENDBRANCH   4  13
ENDBRANCH   1   8
BRANCH   1  17
ATOM     17  C   UNL     1      45.365   5.383  11.943  0.00  0.00    +0.000 A 
ATOM     18  C   UNL     1      46.082   6.368  11.246  0.00  0.00    +0.000 A 
ATOM     19  C   UNL     1      47.295   6.857  11.731  0.00  0.00    +0.000 A 
ATOM     20  C   UNL     1      47.802   6.392  12.945  0.00  0.00    +0.000 A 
ATOM     21  C   UNL     1      47.120   5.417  13.688  0.00  0.00    +0.000 A 
ATOM     22  C   UNL     1      45.932   4.898  13.137  0.00  0.00    +0.000 A 
BRANCH  21  23
ATOM     23  C   UNL     1      47.534   5.037  15.056  0.00  0.00    +0.000 A 
ATOM     24  C   UNL     1      48.358   5.883  15.818  0.00  0.00    +0.000 A 
ATOM     25  C   UNL     1      48.640   5.600  17.153  0.00  0.00    +0.000 A 
ATOM     26  F   UNL     1      49.407   6.444  17.854  0.00  0.00    +0.000 F 
ATOM     27  C   UNL     1      48.119   4.478  17.774  0.00  0.00    +0.000 A 
ATOM     28  C   UNL     1      47.322   3.623  17.029  0.00  0.00    +0.000 A 
ATOM     29  F   UNL     1      46.791   2.542  17.614  0.00  0.00    +0.000 F 
ATOM     30  C   UNL     1      47.038   3.882  15.689  0.00  0.00    +0.000 A 
ENDBRANCH  21  23
ENDBRANCH   1  17
TORSDOF 4
ENDMDL
MODEL 3
REMARK VINA RESULT:    -7.668      4.087      7.118
REMARK INTER + INTRA:         -10.707
REMARK INTER:                  -9.641
REMARK INTRA:                  -1.066
REMARK UNBOUND:                -1.247
REMARK  Name = 
REMARK  4 active torsions:
REMARK  status: ('A' for Active; 'I' for Inactive)
REMARK    1  A    between atoms: C_2  and  C_4
REMARK    2  A    between atoms: N_8  and  C_9
REMARK    3  A    between atoms: C_9  and  C_10
REMARK    4  A    between atoms: C_14  and  C_15
REMARK                            x       y       z     vdW  Elec       q    Type
REMARK                         _______ _______ _______ _____ _____    ______ ____
ROOT
ATOM      1  C   UNL     1      46.200   5.089  13.372  0.00  0.00    +0.000 C 
ATOM      2  C   UNL     1      46.156   4.180  14.592  0.00  0.00    +0.000 C 
ATOM      3  C   UNL     1      47.305   4.090  13.647  0.00  0.00    +0.000 C 
ENDROOT
BRANCH   1   8
ATOM      4  C   UNL     1      48.552   9.386  11.606  0.00  0.00    +0.000 A 
ATOM      5  C   UNL     1      49.083   8.104  11.731  0.00  0.00    +0.000 A 
ATOM      6  C   UNL     1      48.338   7.115  12.383  0.00  0.00    +0.000 A 
ATOM      7  C   UNL     1      47.089   7.425  12.903  0.00  0.00    +0.000 A 
ATOM      8  N   UNL     1      46.333   6.531  13.671  0.00  0.00    +0.000 N 
ATOM      9  N   UNL     1      46.562   8.664  12.785  0.00  0.00    +0.000 NA
ATOM     10  C   UNL     1      47.297   9.613  12.148  0.00  0.00    +0.000 A 
ATOM     11  H   UNL     1      45.453   7.015  13.841  0.00  0.00    +0.000 HD
BRANCH   4  13
ATOM     12  N   UNL     1      48.537  11.471  10.364  0.00  0.00    +0.000 N 
ATOM     13  C   UNL     1      49.280  10.506  10.980  0.00  0.00    +0.000 C 
ATOM     14  O   UNL     1      50.504  10.579  11.025  0.00  0.00    +0.000 OA
ATOM     15  H   UNL     1      49.041  12.274  10.015  0.00  0.00    +0.000 HD
ATOM     16  H   UNL     1      47.543  11.574  10.508  0.00  0.00    +0.000 HD
ENDBRANCH   4  13
ENDBRANCH   1   8
BRANCH   1  17
ATOM     17  C   UNL     1      45.239   4.819  12.218  0.00  0.00    +0.000 A 
ATOM     18  C   UNL     1      44.020   5.500  12.081  0.00  0.00    +0.000 A 
ATOM     19  C   UNL     1      43.235   5.354  10.938  0.00  0.00    +0.000 A 
ATOM     20  C   UNL     1      43.671   4.545   9.888  0.00  0.00    +0.000 A 
ATOM     21  C   UNL     1      44.888   3.851   9.967  0.00  0.00    +0.000 A 
ATOM     22  C   UNL     1      45.624   3.969  11.162  0.00  0.00    +0.000 A 
BRANCH  21  23
ATOM     23  C   UNL     1      45.462   3.134   8.807  0.00  0.00    +0.000 A 
ATOM     24  C   UNL     1      45.864   3.836   7.657  0.00  0.00    +0.000 A 
ATOM     25  C   UNL     1      46.530   3.189   6.618  0.00  0.00    +0.000 A 
ATOM     26  F   UNL     1      46.921   3.897   5.550  0.00  0.00    +0.000 F 
ATOM     27  C   UNL     1      46.820   1.837   6.682  0.00  0.00    +0.000 A 
ATOM     28  C   UNL     1      46.412   1.129   7.801  0.00  0.00    +0.000 A 
ATOM     29  F   UNL     1      46.697  -0.176   7.894  0.00  0.00    +0.000 F 
ATOM     30  C   UNL     1      45.732   1.755   8.846  0.00  0.00    +0.000 A 
ENDBRANCH  21  23
ENDBRANCH   1  17
TORSDOF 4
ENDMDL
MODEL 4
REMARK VINA RESULT:    -7.462      5.119      8.276
REMARK INTER + INTRA:         -10.454
REMARK INTER:                  -9.371
REMARK INTRA:                  -1.083
REMARK UNBOUND:                -1.247
REMARK  Name = 
REMARK  4 active torsions:
REMARK  status: ('A' for Active; 'I' for Inactive)
REMARK    1  A    between atoms: C_2  and  C_4
REMARK    2  A    between atoms: N_8  and  C_9
REMARK    3  A    between atoms: C_9  and  C_10
REMARK    4  A    between atoms: C_14  and  C_15
REMARK                            x       y       z     vdW  Elec       q    Type
REMARK                         _______ _______ _______ _____ _____    ______ ____
ROOT
ATOM      1  C   UNL     1      49.037   7.936  12.582  0.00  0.00    +0.000 C 
ATOM      2  C   UNL     1      49.968   8.105  11.389  0.00  0.00    +0.000 C 
ATOM      3  C   UNL     1      49.730   9.255  12.307  0.00  0.00    +0.000 C 
ENDROOT
BRANCH   1   8
ATOM      4  C   UNL     1      48.424   6.812  17.628  0.00  0.00    +0.000 A 
ATOM      5  C   UNL     1      48.557   8.066  17.036  0.00  0.00    +0.000 A 
ATOM      6  C   UNL     1      48.878   8.151  15.677  0.00  0.00    +0.000 A 
ATOM      7  C   UNL     1      49.068   6.989  14.941  0.00  0.00    +0.000 A 
ATOM      8  N   UNL     1      49.506   6.984  13.611  0.00  0.00    +0.000 N 
ATOM      9  N   UNL     1      48.937   5.767  15.503  0.00  0.00    +0.000 NA
ATOM     10  C   UNL     1      48.624   5.701  16.825  0.00  0.00    +0.000 A 
ATOM     11  H   UNL     1      49.479   6.005  13.332  0.00  0.00    +0.000 HD
BRANCH   4  13
ATOM     12  N   UNL     1      47.239   5.650  19.398  0.00  0.00    +0.000 N 
ATOM     13  C   UNL     1      48.136   6.622  19.062  0.00  0.00    +0.000 C 
ATOM     14  O   UNL     1      48.693   7.296  19.922  0.00  0.00    +0.000 OA
ATOM     15  H   UNL     1      47.115   5.471  20.385  0.00  0.00    +0.000 HD
ATOM     16  H   UNL     1      46.945   4.928  18.757  0.00  0.00    +0.000 HD
ENDBRANCH   4  13
ENDBRANCH   1   8
BRANCH   1  17
ATOM     17  C   UNL     1      47.535   7.833  12.333  0.00  0.00    +0.000 A 
ATOM     18  C   UNL     1      46.672   8.930  12.483  0.00  0.00    +0.000 A 
ATOM     19  C   UNL     1      45.335   8.856  12.097  0.00  0.00    +0.000 A 
ATOM     20  C   UNL     1      44.837   7.687  11.520  0.00  0.00    +0.000 A 
ATOM     21  C   UNL     1      45.658   6.564  11.336  0.00  0.00    +0.000 A 
ATOM     22  C   UNL     1      46.986   6.652  11.796  0.00  0.00    +0.000 A 
BRANCH  21  23
ATOM     23  C   UNL     1      45.214   5.381  10.567  0.00  0.00    +0.000 A 
ATOM     24  C   UNL     1      45.655   5.175   9.248  0.00  0.00    +0.000 A 
ATOM     25  C   UNL     1      45.353   3.997   8.566  0.00  0.00    +0.000 A 
ATOM     26  F   UNL     1      45.813   3.825   7.321  0.00  0.00    +0.000 F 
ATOM     27  C   UNL     1      44.611   2.992   9.163  0.00  0.00    +0.000 A 
ATOM     28  C   UNL     1      44.153   3.191  10.455  0.00  0.00    +0.000 A 
ATOM     29  F   UNL     1      43.450   2.225  11.059  0.00  0.00    +0.000 F 
ATOM     30  C   UNL     1      44.433   4.367  11.151  0.00  0.00    +0.000 A 
ENDBRANCH  21  23
ENDBRANCH   1  17
TORSDOF 4
ENDMDL
MODEL 5
REMARK VINA RESULT:    -7.143      4.580      7.565
REMARK INTER + INTRA:         -10.060
REMARK INTER:                  -9.917
REMARK INTRA:                  -0.143
REMARK UNBOUND:                -1.247
REMARK  Name = 
REMARK  4 active torsions:
REMARK  status: ('A' for Active; 'I' for Inactive)
REMARK    1  A    between atoms: C_2  and  C_4
REMARK    2  A    between atoms: N_8  and  C_9
REMARK    3  A    between atoms: C_9  and  C_10
REMARK    4  A    between atoms: C_14  and  C_15
REMARK                            x       y       z     vdW  Elec       q    Type
REMARK                         _______ _______ _______ _____ _____    ______ ____
ROOT
ATOM      1  C   UNL     1      48.246   7.717  12.704  0.00  0.00    +0.000 C 
ATOM      2  C   UNL     1      49.447   7.209  11.918  0.00  0.00    +0.000 C 
ATOM      3  C   UNL     1      49.088   8.654  11.863  0.00  0.00    +0.000 C 
ENDROOT
BRANCH   1   8
ATOM      4  C   UNL     1      47.965   4.252  16.580  0.00  0.00    +0.000 A 
ATOM      5  C   UNL     1      47.120   4.382  15.479  0.00  0.00    +0.000 A 
ATOM      6  C   UNL     1      47.268   5.485  14.631  0.00  0.00    +0.000 A 
ATOM      7  C   UNL     1      48.243   6.436  14.900  0.00  0.00    +0.000 A 
ATOM      8  N   UNL     1      48.377   7.626  14.174  0.00  0.00    +0.000 N 
ATOM      9  N   UNL     1      49.070   6.318  15.963  0.00  0.00    +0.000 NA
ATOM     10  C   UNL     1      48.915   5.240  16.777  0.00  0.00    +0.000 A 
ATOM     11  H   UNL     1      49.210   8.070  14.558  0.00  0.00    +0.000 HD
BRANCH   4  13
ATOM     12  N   UNL     1      48.967   2.853  18.291  0.00  0.00    +0.000 N 
ATOM     13  C   UNL     1      47.856   3.152  17.557  0.00  0.00    +0.000 C 
ATOM     14  O   UNL     1      46.804   2.541  17.718  0.00  0.00    +0.000 OA
ATOM     15  H   UNL     1      48.855   2.157  19.015  0.00  0.00    +0.000 HD
ATOM     16  H   UNL     1      49.762   3.471  18.361  0.00  0.00    +0.000 HD
ENDBRANCH   4  13
ENDBRANCH   1   8
BRANCH   1  17
ATOM     17  C   UNL     1      46.845   7.358  12.220  0.00  0.00    +0.000 A 
ATOM     18  C   UNL     1      45.749   8.219  12.387  0.00  0.00    +0.000 A 
ATOM     19  C   UNL     1      44.517   7.944  11.797  0.00  0.00    +0.000 A 
ATOM     20  C   UNL     1      44.362   6.812  10.995  0.00  0.00    +0.000 A 
ATOM     21  C   UNL     1      45.428   5.923  10.785  0.00  0.00    +0.000 A 
ATOM     22  C   UNL     1      46.639   6.197  11.449  0.00  0.00    +0.000 A 
BRANCH  21  23
ATOM     23  C   UNL     1      45.351   4.820   9.802  0.00  0.00    +0.000 A 
ATOM     24  C   UNL     1      46.030   4.904   8.574  0.00  0.00    +0.000 A 
ATOM     25  C   UNL     1      46.076   3.816   7.703  0.00  0.00    +0.000 A 
ATOM     26  F   UNL     1      46.756   3.925   6.555  0.00  0.00    +0.000 F 
ATOM     27  C   UNL     1      45.456   2.619   8.018  0.00  0.00    +0.000 A 
ATOM     28  C   UNL     1      44.766   2.529   9.215  0.00  0.00    +0.000 A 
ATOM     29  F   UNL     1      44.174   1.375   9.548  0.00  0.00    +0.000 F 
ATOM     30  C   UNL     1      44.697   3.610  10.095  0.00  0.00    +0.000 A 
ENDBRANCH  21  23
ENDBRANCH   1  17
TORSDOF 4
ENDMDL
MODEL 6
REMARK VINA RESULT:    -6.845      4.456      6.951
REMARK INTER + INTRA:          -9.693
REMARK INTER:                  -8.553
REMARK INTRA:                  -1.140
REMARK UNBOUND:                -1.247
REMARK  Name = 
REMARK  4 active torsions:
REMARK  status: ('A' for Active; 'I' for Inactive)
REMARK    1  A    between atoms: C_2  and  C_4
REMARK    2  A    between atoms: N_8  and  C_9
REMARK    3  A    between atoms: C_9  and  C_10
REMARK    4  A    between atoms: C_14  and  C_15
REMARK                            x       y       z     vdW  Elec       q    Type
REMARK                         _______ _______ _______ _____ _____    ______ ____
ROOT
ATOM      1  C   UNL     1      48.964   8.341  12.711  0.00  0.00    +0.000 C 
ATOM      2  C   UNL     1      49.856   9.361  12.016  0.00  0.00    +0.000 C 
ATOM      3  C   UNL     1      50.213   7.915  11.966  0.00  0.00    +0.000 C 
ENDROOT
BRANCH   1   8
ATOM      4  C   UNL     1      44.822   5.189  12.830  0.00  0.00    +0.000 A 
ATOM      5  C   UNL     1      46.168   4.838  12.759  0.00  0.00    +0.000 A 
ATOM      6  C   UNL     1      47.127   5.839  12.572  0.00  0.00    +0.000 A 
ATOM      7  C   UNL     1      46.727   7.163  12.449  0.00  0.00    +0.000 A 
ATOM      8  N   UNL     1      47.607   8.207  12.140  0.00  0.00    +0.000 N 
ATOM      9  N   UNL     1      45.424   7.516  12.520  0.00  0.00    +0.000 NA
ATOM     10  C   UNL     1      44.504   6.532  12.704  0.00  0.00    +0.000 A 
ATOM     11  H   UNL     1      47.037   9.050  12.190  0.00  0.00    +0.000 HD
BRANCH   4  13
ATOM     12  N   UNL     1      44.034   2.897  12.711  0.00  0.00    +0.000 N 
ATOM     13  C   UNL     1      43.736   4.202  12.978  0.00  0.00    +0.000 C 
ATOM     14  O   UNL     1      42.613   4.535  13.343  0.00  0.00    +0.000 OA
ATOM     15  H   UNL     1      43.307   2.221  12.898  0.00  0.00    +0.000 HD
ATOM     16  H   UNL     1      44.981   2.553  12.643  0.00  0.00    +0.000 HD
ENDBRANCH   4  13
ENDBRANCH   1   8
BRANCH   1  17
ATOM     17  C   UNL     1      48.965   8.281  14.236  0.00  0.00    +0.000 A 
ATOM     18  C   UNL     1      48.520   9.349  15.029  0.00  0.00    +0.000 A 
ATOM     19  C   UNL     1      48.379   9.214  16.410  0.00  0.00    +0.000 A 
ATOM     20  C   UNL     1      48.650   7.990  17.024  0.00  0.00    +0.000 A 
ATOM     21  C   UNL     1      49.087   6.886  16.277  0.00  0.00    +0.000 A 
ATOM     22  C   UNL     1      49.281   7.077  14.895  0.00  0.00    +0.000 A 
BRANCH  21  23
ATOM     23  C   UNL     1      49.209   5.535  16.866  0.00  0.00    +0.000 A 
ATOM     24  C   UNL     1      48.088   4.693  16.969  0.00  0.00    +0.000 A 
ATOM     25  C   UNL     1      48.218   3.372  17.394  0.00  0.00    +0.000 A 
ATOM     26  F   UNL     1      47.131   2.593  17.453  0.00  0.00    +0.000 F 
ATOM     27  C   UNL     1      49.454   2.845  17.728  0.00  0.00    +0.000 A 
ATOM     28  C   UNL     1      50.564   3.669  17.652  0.00  0.00    +0.000 A 
ATOM     29  F   UNL     1      51.772   3.176  17.952  0.00  0.00    +0.000 F 
ATOM     30  C   UNL     1      50.454   4.998  17.241  0.00  0.00    +0.000 A 
ENDBRANCH  21  23
ENDBRANCH   1  17
TORSDOF 4
ENDMDL
MODEL 7
REMARK VINA RESULT:    -6.680      4.142      6.205
REMARK INTER + INTRA:          -9.489
REMARK INTER:                  -9.027
REMARK INTRA:                  -0.462
REMARK UNBOUND:                -1.247
REMARK  Name = 
REMARK  4 active torsions:
REMARK  status: ('A' for Active; 'I' for Inactive)
REMARK    1  A    between atoms: C_2  and  C_4
REMARK    2  A    between atoms: N_8  and  C_9
REMARK    3  A    between atoms: C_9  and  C_10
REMARK    4  A    between atoms: C_14  and  C_15
REMARK                            x       y       z     vdW  Elec       q    Type
REMARK                         _______ _______ _______ _____ _____    ______ ____
ROOT
ATOM      1  C   UNL     1      47.391   8.594  13.222  0.00  0.00    +0.000 C 
ATOM      2  C   UNL     1      47.613   9.899  12.471  0.00  0.00    +0.000 C 
ATOM      3  C   UNL     1      48.253   8.647  11.978  0.00  0.00    +0.000 C 
ENDROOT
BRANCH   1   8
ATOM      4  C   UNL     1      44.510   4.687  11.338  0.00  0.00    +0.000 A 
ATOM      5  C   UNL     1      45.506   5.413  10.688  0.00  0.00    +0.000 A 
ATOM      6  C   UNL     1      46.053   6.537  11.316  0.00  0.00    +0.000 A 
ATOM      7  C   UNL     1      45.592   6.920  12.568  0.00  0.00    +0.000 A 
ATOM      8  N   UNL     1      45.998   8.096  13.211  0.00  0.00    +0.000 N 
ATOM      9  N   UNL     1      44.629   6.222  13.210  0.00  0.00    +0.000 NA
ATOM     10  C   UNL     1      44.108   5.131  12.588  0.00  0.00    +0.000 A 
ATOM     11  H   UNL     1      45.550   8.060  14.125  0.00  0.00    +0.000 HD
BRANCH   4  13
ATOM     12  N   UNL     1      44.165   3.200   9.452  0.00  0.00    +0.000 N 
ATOM     13  C   UNL     1      43.839   3.518  10.739  0.00  0.00    +0.000 C 
ATOM     14  O   UNL     1      43.035   2.845  11.374  0.00  0.00    +0.000 OA
ATOM     15  H   UNL     1      43.765   2.350   9.082  0.00  0.00    +0.000 HD
ATOM     16  H   UNL     1      44.979   3.571   8.984  0.00  0.00    +0.000 HD
ENDBRANCH   4  13
ENDBRANCH   1   8
BRANCH   1  17
ATOM     17  C   UNL     1      48.070   8.399  14.575  0.00  0.00    +0.000 A 
ATOM     18  C   UNL     1      48.196   9.439  15.508  0.00  0.00    +0.000 A 
ATOM     19  C   UNL     1      48.673   9.201  16.796  0.00  0.00    +0.000 A 
ATOM     20  C   UNL     1      49.005   7.904  17.191  0.00  0.00    +0.000 A 
ATOM     21  C   UNL     1      48.887   6.825  16.302  0.00  0.00    +0.000 A 
ATOM     22  C   UNL     1      48.464   7.112  14.990  0.00  0.00    +0.000 A 
BRANCH  21  23
ATOM     23  C   UNL     1      49.056   5.422  16.740  0.00  0.00    +0.000 A 
ATOM     24  C   UNL     1      50.298   4.962  17.210  0.00  0.00    +0.000 A 
ATOM     25  C   UNL     1      50.432   3.684  17.752  0.00  0.00    +0.000 A 
ATOM     26  F   UNL     1      51.625   3.291  18.215  0.00  0.00    +0.000 F 
ATOM     27  C   UNL     1      49.348   2.828  17.846  0.00  0.00    +0.000 A 
ATOM     28  C   UNL     1      48.123   3.261  17.367  0.00  0.00    +0.000 A 
ATOM     29  F   UNL     1      47.057   2.456  17.464  0.00  0.00    +0.000 F 
ATOM     30  C   UNL     1      47.970   4.530  16.809  0.00  0.00    +0.000 A 
ENDBRANCH  21  23
ENDBRANCH   1  17
TORSDOF 4
ENDMDL
MODEL 8
REMARK VINA RESULT:    -6.648      1.481      2.589
REMARK INTER + INTRA:          -9.449
REMARK INTER:                  -9.401
REMARK INTRA:                  -0.048
REMARK UNBOUND:                -1.247
REMARK  Name = 
REMARK  4 active torsions:
REMARK  status: ('A' for Active; 'I' for Inactive)
REMARK    1  A    between atoms: C_2  and  C_4
REMARK    2  A    between atoms: N_8  and  C_9
REMARK    3  A    between atoms: C_9  and  C_10
REMARK    4  A    between atoms: C_14  and  C_15
REMARK                            x       y       z     vdW  Elec       q    Type
REMARK                         _______ _______ _______ _____ _____    ______ ____
ROOT
ATOM      1  C   UNL     1      44.084   4.032  11.811  0.00  0.00    +0.000 C 
ATOM      2  C   UNL     1      44.897   3.349  12.902  0.00  0.00    +0.000 C 
ATOM      3  C   UNL     1      43.452   3.633  13.128  0.00  0.00    +0.000 C 
ENDROOT
BRANCH   1   8
ATOM      4  C   UNL     1      46.515   2.982   7.328  0.00  0.00    +0.000 A 
ATOM      5  C   UNL     1      46.382   4.213   7.966  0.00  0.00    +0.000 A 
ATOM      6  C   UNL     1      45.549   4.317   9.085  0.00  0.00    +0.000 A 
ATOM      7  C   UNL     1      44.859   3.199   9.537  0.00  0.00    +0.000 A 
ATOM      8  N   UNL     1      43.916   3.244  10.571  0.00  0.00    +0.000 N 
ATOM      9  N   UNL     1      44.983   1.999   8.928  0.00  0.00    +0.000 NA
ATOM     10  C   UNL     1      45.798   1.914   7.843  0.00  0.00    +0.000 A 
ATOM     11  H   UNL     1      43.644   2.273  10.716  0.00  0.00    +0.000 HD
BRANCH   4  13
ATOM     12  N   UNL     1      48.649   2.476   6.289  0.00  0.00    +0.000 N 
ATOM     13  C   UNL     1      47.331   2.784   6.115  0.00  0.00    +0.000 C 
ATOM     14  O   UNL     1      46.843   2.875   4.993  0.00  0.00    +0.000 OA
ATOM     15  H   UNL     1      49.176   2.259   5.455  0.00  0.00    +0.000 HD
ATOM     16  H   UNL     1      49.028   2.162   7.170  0.00  0.00    +0.000 HD
ENDBRANCH   4  13
ENDBRANCH   1   8
BRANCH   1  17
ATOM     17  C   UNL     1      44.324   5.513  11.533  0.00  0.00    +0.000 A 
ATOM     18  C   UNL     1      43.288   6.383  11.156  0.00  0.00    +0.000 A 
ATOM     19  C   UNL     1      43.498   7.758  11.064  0.00  0.00    +0.000 A 
ATOM     20  C   UNL     1      44.745   8.299  11.380  0.00  0.00    +0.000 A 
ATOM     21  C   UNL     1      45.812   7.476  11.773  0.00  0.00    +0.000 A 
ATOM     22  C   UNL     1      45.583   6.087  11.793  0.00  0.00    +0.000 A 
BRANCH  21  23
ATOM     23  C   UNL     1      47.084   8.029  12.286  0.00  0.00    +0.000 A 
ATOM     24  C   UNL     1      47.129   8.706  13.517  0.00  0.00    +0.000 A 
ATOM     25  C   UNL     1      48.342   9.109  14.072  0.00  0.00    +0.000 A 
ATOM     26  F   UNL     1      48.346   9.727  15.259  0.00  0.00    +0.000 F 
ATOM     27  C   UNL     1      49.543   8.854  13.432  0.00  0.00    +0.000 A 
ATOM     28  C   UNL     1      49.513   8.206  12.208  0.00  0.00    +0.000 A 
ATOM     29  F   UNL     1      50.663   7.933  11.580  0.00  0.00    +0.000 F 
ATOM     30  C   UNL     1      48.308   7.806  11.630  0.00  0.00    +0.000 A 
ENDBRANCH  21  23
ENDBRANCH   1  17
TORSDOF 4
ENDMDL
