MODEL 1
REMARK VINA RESULT:    -9.099      0.000      0.000
REMARK INTER + INTRA:         -14.493
REMARK INTER:                 -13.355
REMARK INTRA:                  -1.138
REMARK UNBOUND:                -1.138
REMARK  Name = 
REMARK  10 active torsions:
REMARK  status: ('A' for Active; 'I' for Inactive)
REMARK    1  A    between atoms: C_1  and  C_2
REMARK    2  A    between atoms: C_2  and  C_3
REMARK    3  A    between atoms: C_5  and  N_6
REMARK    4  A    between atoms: N_6  and  C_7
REMARK    5  A    between atoms: C_9  and  C_10
REMARK    6  A    between atoms: C_10  and  C_11
REMARK    7  A    between atoms: C_11  and  N_12
REMARK    8  A    between atoms: N_12  and  C_13
REMARK    9  A    between atoms: C_16  and  C_17
REMARK   10  A    between atoms: C_23  and  C_24
REMARK                            x       y       z     vdW  Elec       q    Type
REMARK                         _______ _______ _______ _____ _____    ______ ____
ROOT
ATOM      1  C   UNL     1      46.652   4.750  14.089  0.00  0.00    +0.000 A 
ATOM      2  C   UNL     1      45.358   4.651  13.563  0.00  0.00    +0.000 A 
ATOM      3  C   UNL     1      44.857   5.602  12.657  0.00  0.00    +0.000 A 
ATOM      4  C   UNL     1      45.703   6.625  12.212  0.00  0.00    +0.000 A 
ATOM      5  C   UNL     1      47.021   6.718  12.683  0.00  0.00    +0.000 A 
ATOM      6  C   UNL     1      47.478   5.780  13.626  0.00  0.00    +0.000 A 
ENDROOT
BRANCH   5   7
ATOM      7  C   UNL     1      47.949   7.804  12.196  0.00  0.00    +0.000 C 
ATOM      8  F   UNL     1      48.672   7.452  11.097  0.00  0.00    +0.000 F 
ATOM      9  F   UNL     1      47.282   8.942  11.852  0.00  0.00    +0.000 F 
ATOM     10  F   UNL     1      48.860   8.175  13.138  0.00  0.00    +0.000 F 
ENDBRANCH   5   7
BRANCH   1  11
ATOM     11  N   UNL     1      47.165   3.806  14.991  0.00  0.00    +0.000 N 
ATOM     12  H   UNL     1      47.121   2.837  14.697  0.00  0.00    +0.000 HD
BRANCH  11  17
ATOM     13  C   UNL     1      49.196   2.093  16.489  0.00  0.00    +0.000 C 
ATOM     14  C   UNL     1      48.624   3.342  17.106  0.00  0.00    +0.000 C 
ATOM     15  C   UNL     1      49.598   4.124  17.949  0.00  0.00    +0.000 C 
ATOM     16  C   UNL     1      47.169   3.324  17.512  0.00  0.00    +0.000 C 
ATOM     17  C   UNL     1      47.603   4.153  16.336  0.00  0.00    +0.000 C 
ENDBRANCH  11  17
ENDBRANCH   1  11
BRANCH   3  18
ATOM     18  C   UNL     1      43.411   5.549  12.208  0.00  0.00    +0.000 C 
BRANCH  18  19
ATOM     19  C   UNL     1      43.209   4.474  11.131  0.00  0.00    +0.000 C 
BRANCH  19  20
ATOM     20  N   UNL     1      43.751   4.901   9.835  0.00  0.00    +0.000 N 
ATOM     21  H   UNL     1      44.192   5.818   9.883  0.00  0.00    +0.000 HD
BRANCH  20  22
ATOM     22  C   UNL     1      44.566   3.973   9.160  0.00  0.00    +0.000 A 
ATOM     23  C   UNL     1      45.558   4.348   8.246  0.00  0.00    +0.000 A 
ATOM     24  C   UNL     1      46.377   3.393   7.650  0.00  0.00    +0.000 A 
ATOM     25  C   UNL     1      46.213   2.069   8.009  0.00  0.00    +0.000 A 
ATOM     26  N   UNL     1      45.300   1.642   8.925  0.00  0.00    +0.000 NA
ATOM     27  C   UNL     1      44.527   2.610   9.483  0.00  0.00    +0.000 A 
BRANCH  25  28
ATOM     28  C   UNL     1      47.080   1.026   7.379  0.00  0.00    +0.000 C 
ATOM     29  N   UNL     1      46.753  -0.270   7.672  0.00  0.00    +0.000 N 
ATOM     30  O   UNL     1      48.028   1.301   6.648  0.00  0.00    +0.000 OA
ATOM     31  H   UNL     1      45.971  -0.455   8.288  0.00  0.00    +0.000 HD
ATOM     32  H   UNL     1      47.306  -1.023   7.293  0.00  0.00    +0.000 HD
ENDBRANCH  25  28
ENDBRANCH  20  22
ENDBRANCH  19  20
ENDBRANCH  18  19
ENDBRANCH   3  18
TORSDOF 8
ENDMDL
MODEL 2
REMARK VINA RESULT:    -8.947      0.852      1.118
REMARK INTER + INTRA:         -14.270
REMARK INTER:                 -13.116
REMARK INTRA:                  -1.155
REMARK UNBOUND:                -1.138
REMARK  Name = 
REMARK  10 active torsions:
REMARK  status: ('A' for Active; 'I' for Inactive)
REMARK    1  A    between atoms: C_1  and  C_2
REMARK    2  A    between atoms: C_2  and  C_3
REMARK    3  A    between atoms: C_5  and  N_6
REMARK    4  A    between atoms: N_6  and  C_7
REMARK    5  A    between atoms: C_9  and  C_10
REMARK    6  A    between atoms: C_10  and  C_11
REMARK    7  A    between atoms: C_11  and  N_12
REMARK    8  A    between atoms: N_12  and  C_13
REMARK    9  A    between atoms: C_16  and  C_17
REMARK   10  A    between atoms: C_23  and  C_24
REMARK                            x       y       z     vdW  Elec       q    Type
REMARK                         _______ _______ _______ _____ _____    ______ ____
ROOT
ATOM      1  C   UNL     1      46.625   4.668  14.136  0.00  0.00    +0.000 A 
ATOM      2  C   UNL     1      45.329   4.578  13.615  0.00  0.00    +0.000 A 
ATOM      3  C   UNL     1      44.825   5.542  12.724  0.00  0.00    +0.000 A 
ATOM      4  C   UNL     1      45.671   6.569  12.289  0.00  0.00    +0.000 A 
ATOM      5  C   UNL     1      46.991   6.654  12.756  0.00  0.00    +0.000 A 
ATOM      6  C   UNL     1      47.451   5.702  13.684  0.00  0.00    +0.000 A 
ENDROOT
BRANCH   5   7
ATOM      7  C   UNL     1      47.919   7.744  12.279  0.00  0.00    +0.000 C 
ATOM      8  F   UNL     1      48.658   7.395  11.189  0.00  0.00    +0.000 F 
ATOM      9  F   UNL     1      47.251   8.878  11.926  0.00  0.00    +0.000 F 
ATOM     10  F   UNL     1      48.816   8.121  13.232  0.00  0.00    +0.000 F 
ENDBRANCH   5   7
BRANCH   1  11
ATOM     11  N   UNL     1      47.140   3.711  15.023  0.00  0.00    +0.000 N 
ATOM     12  H   UNL     1      47.140   2.751  14.696  0.00  0.00    +0.000 HD
BRANCH  11  17
ATOM     13  C   UNL     1      49.265   2.088  16.492  0.00  0.00    +0.000 C 
ATOM     14  C   UNL     1      48.584   3.259  17.151  0.00  0.00    +0.000 C 
ATOM     15  C   UNL     1      49.477   4.071  18.054  0.00  0.00    +0.000 C 
ATOM     16  C   UNL     1      47.127   3.109  17.519  0.00  0.00    +0.000 C 
ATOM     17  C   UNL     1      47.521   4.025  16.394  0.00  0.00    +0.000 C 
ENDBRANCH  11  17
ENDBRANCH   1  11
BRANCH   3  18
ATOM     18  C   UNL     1      43.378   5.498  12.281  0.00  0.00    +0.000 C 
BRANCH  18  19
ATOM     19  C   UNL     1      43.175   4.464  11.165  0.00  0.00    +0.000 C 
BRANCH  19  20
ATOM     20  N   UNL     1      43.780   4.908   9.903  0.00  0.00    +0.000 N 
ATOM     21  H   UNL     1      44.189   5.838   9.976  0.00  0.00    +0.000 HD
BRANCH  20  22
ATOM     22  C   UNL     1      44.663   4.006   9.279  0.00  0.00    +0.000 A 
ATOM     23  C   UNL     1      44.592   2.619   9.456  0.00  0.00    +0.000 A 
ATOM     24  C   UNL     1      45.453   1.768   8.767  0.00  0.00    +0.000 A 
ATOM     25  C   UNL     1      46.354   2.321   7.877  0.00  0.00    +0.000 A 
ATOM     26  N   UNL     1      46.443   3.656   7.625  0.00  0.00    +0.000 NA
ATOM     27  C   UNL     1      45.580   4.447   8.316  0.00  0.00    +0.000 A 
BRANCH  25  28
ATOM     28  C   UNL     1      47.288   1.425   7.130  0.00  0.00    +0.000 C 
ATOM     29  N   UNL     1      48.380   2.040   6.576  0.00  0.00    +0.000 N 
ATOM     30  O   UNL     1      47.101   0.217   7.010  0.00  0.00    +0.000 OA
ATOM     31  H   UNL     1      48.493   3.039   6.689  0.00  0.00    +0.000 HD
ATOM     32  H   UNL     1      49.043   1.496   6.045  0.00  0.00    +0.000 HD
ENDBRANCH  25  28
ENDBRANCH  20  22
ENDBRANCH  19  20
ENDBRANCH  18  19
ENDBRANCH   3  18
TORSDOF 8
ENDMDL
MODEL 3
REMARK VINA RESULT:    -8.312      1.223      1.636
REMARK INTER + INTRA:         -13.337
REMARK INTER:                 -12.398
REMARK INTRA:                  -0.939
REMARK UNBOUND:                -1.138
REMARK  Name = 
REMARK  10 active torsions:
REMARK  status: ('A' for Active; 'I' for Inactive)
REMARK    1  A    between atoms: C_1  and  C_2
REMARK    2  A    between atoms: C_2  and  C_3
REMARK    3  A    between atoms: C_5  and  N_6
REMARK    4  A    between atoms: N_6  and  C_7
REMARK    5  A    between atoms: C_9  and  C_10
REMARK    6  A    between atoms: C_10  and  C_11
REMARK    7  A    between atoms: C_11  and  N_12
REMARK    8  A    between atoms: N_12  and  C_13
REMARK    9  A    between atoms: C_16  and  C_17
REMARK   10  A    between atoms: C_23  and  C_24
REMARK                            x       y       z     vdW  Elec       q    Type
REMARK                         _______ _______ _______ _____ _____    ______ ____
ROOT
ATOM      1  C   UNL     1      47.259   5.662  14.127  0.00  0.00    +0.000 A 
ATOM      2  C   UNL     1      46.253   5.585  13.157  0.00  0.00    +0.000 A 
ATOM      3  C   UNL     1      46.340   6.297  11.948  0.00  0.00    +0.000 A 
ATOM      4  C   UNL     1      47.498   7.036  11.679  0.00  0.00    +0.000 A 
ATOM      5  C   UNL     1      48.544   7.089  12.612  0.00  0.00    +0.000 A 
ATOM      6  C   UNL     1      48.407   6.405  13.833  0.00  0.00    +0.000 A 
ENDROOT
BRANCH   5   7
ATOM      7  C   UNL     1      49.806   7.866  12.325  0.00  0.00    +0.000 C 
ATOM      8  F   UNL     1      50.674   7.903  13.374  0.00  0.00    +0.000 F 
ATOM      9  F   UNL     1      50.509   7.347  11.280  0.00  0.00    +0.000 F 
ATOM     10  F   UNL     1      49.559   9.165  12.001  0.00  0.00    +0.000 F 
ENDBRANCH   5   7
BRANCH   1  11
ATOM     11  N   UNL     1      47.186   4.954  15.336  0.00  0.00    +0.000 N 
ATOM     12  H   UNL     1      46.292   4.526  15.551  0.00  0.00    +0.000 HD
BRANCH  11  17
ATOM     13  C   UNL     1      47.310   2.849  17.540  0.00  0.00    +0.000 C 
ATOM     14  C   UNL     1      48.375   3.906  17.410  0.00  0.00    +0.000 C 
ATOM     15  C   UNL     1      49.767   3.432  17.743  0.00  0.00    +0.000 C 
ATOM     16  C   UNL     1      47.997   5.330  17.742  0.00  0.00    +0.000 C 
ATOM     17  C   UNL     1      48.265   4.944  16.314  0.00  0.00    +0.000 C 
ENDBRANCH  11  17
ENDBRANCH   1  11
BRANCH   3  18
ATOM     18  C   UNL     1      45.179   6.305  10.975  0.00  0.00    +0.000 C 
BRANCH  18  19
ATOM     19  C   UNL     1      44.218   5.141  11.256  0.00  0.00    +0.000 C 
BRANCH  19  20
ATOM     20  N   UNL     1      43.670   4.583  10.015  0.00  0.00    +0.000 N 
ATOM     21  H   UNL     1      43.176   5.281   9.461  0.00  0.00    +0.000 HD
BRANCH  20  22
ATOM     22  C   UNL     1      44.555   3.829   9.221  0.00  0.00    +0.000 A 
ATOM     23  C   UNL     1      45.444   4.406   8.306  0.00  0.00    +0.000 A 
ATOM     24  C   UNL     1      46.340   3.618   7.589  0.00  0.00    +0.000 A 
ATOM     25  C   UNL     1      46.358   2.257   7.828  0.00  0.00    +0.000 A 
ATOM     26  N   UNL     1      45.553   1.639   8.736  0.00  0.00    +0.000 NA
ATOM     27  C   UNL     1      44.698   2.448   9.415  0.00  0.00    +0.000 A 
BRANCH  25  28
ATOM     28  C   UNL     1      47.311   1.392   7.067  0.00  0.00    +0.000 C 
ATOM     29  N   UNL     1      48.416   2.027   6.568  0.00  0.00    +0.000 N 
ATOM     30  O   UNL     1      47.126   0.190   6.891  0.00  0.00    +0.000 OA
ATOM     31  H   UNL     1      48.527   3.021   6.725  0.00  0.00    +0.000 HD
ATOM     32  H   UNL     1      49.092   1.506   6.031  0.00  0.00    +0.000 HD
ENDBRANCH  25  28
ENDBRANCH  20  22
ENDBRANCH  19  20
ENDBRANCH  18  19
ENDBRANCH   3  18
TORSDOF 8
ENDMDL
MODEL 4
REMARK VINA RESULT:    -8.184      2.476      4.338
REMARK INTER + INTRA:         -13.149
REMARK INTER:                 -11.963
REMARK INTRA:                  -1.186
REMARK UNBOUND:                -1.138
REMARK  Name = 
REMARK  10 active torsions:
REMARK  status: ('A' for Active; 'I' for Inactive)
REMARK    1  A    between atoms: C_1  and  C_2
REMARK    2  A    between atoms: C_2  and  C_3
REMARK    3  A    between atoms: C_5  and  N_6
REMARK    4  A    between atoms: N_6  and  C_7
REMARK    5  A    between atoms: C_9  and  C_10
REMARK    6  A    between atoms: C_10  and  C_11
REMARK    7  A    between atoms: C_11  and  N_12
REMARK    8  A    between atoms: N_12  and  C_13
REMARK    9  A    between atoms: C_16  and  C_17
REMARK   10  A    between atoms: C_23  and  C_24
REMARK                            x       y       z     vdW  Elec       q    Type
REMARK                         _______ _______ _______ _____ _____    ______ ____
ROOT
ATOM      1  C   UNL     1      47.103   6.508  12.484  0.00  0.00    +0.000 A 
ATOM      2  C   UNL     1      45.744   6.397  12.169  0.00  0.00    +0.000 A 
ATOM      3  C   UNL     1      44.898   5.512  12.860  0.00  0.00    +0.000 A 
ATOM      4  C   UNL     1      45.414   4.786  13.939  0.00  0.00    +0.000 A 
ATOM      5  C   UNL     1      46.760   4.917  14.310  0.00  0.00    +0.000 A 
ATOM      6  C   UNL     1      47.594   5.774  13.570  0.00  0.00    +0.000 A 
ENDROOT
BRANCH   5   7
ATOM      7  C   UNL     1      47.323   4.155  15.485  0.00  0.00    +0.000 C 
ATOM      8  F   UNL     1      47.690   2.878  15.183  0.00  0.00    +0.000 F 
ATOM      9  F   UNL     1      48.435   4.747  16.004  0.00  0.00    +0.000 F 
ATOM     10  F   UNL     1      46.438   4.054  16.516  0.00  0.00    +0.000 F 
ENDBRANCH   5   7
BRANCH   1  11
ATOM     11  N   UNL     1      47.958   7.390  11.805  0.00  0.00    +0.000 N 
ATOM     12  H   UNL     1      47.642   7.708  10.896  0.00  0.00    +0.000 HD
BRANCH  11  17
ATOM     13  C   UNL     1      49.182  10.136  11.291  0.00  0.00    +0.000 C 
ATOM     14  C   UNL     1      49.927   9.083  12.069  0.00  0.00    +0.000 C 
ATOM     15  C   UNL     1      50.757   9.620  13.208  0.00  0.00    +0.000 C 
ATOM     16  C   UNL     1      50.430   7.875  11.314  0.00  0.00    +0.000 C 
ATOM     17  C   UNL     1      49.291   7.726  12.284  0.00  0.00    +0.000 C 
ENDBRANCH  11  17
ENDBRANCH   1  11
BRANCH   3  18
ATOM     18  C   UNL     1      43.465   5.311  12.411  0.00  0.00    +0.000 C 
BRANCH  18  19
ATOM     19  C   UNL     1      43.369   4.194  11.362  0.00  0.00    +0.000 C 
BRANCH  19  20
ATOM     20  N   UNL     1      43.708   4.683  10.021  0.00  0.00    +0.000 N 
ATOM     21  H   UNL     1      43.933   5.677  10.017  0.00  0.00    +0.000 HD
BRANCH  20  22
ATOM     22  C   UNL     1      44.661   3.937   9.303  0.00  0.00    +0.000 A 
ATOM     23  C   UNL     1      44.761   2.543   9.384  0.00  0.00    +0.000 A 
ATOM     24  C   UNL     1      45.684   1.848   8.607  0.00  0.00    +0.000 A 
ATOM     25  C   UNL     1      46.473   2.562   7.725  0.00  0.00    +0.000 A 
ATOM     26  N   UNL     1      46.394   3.912   7.564  0.00  0.00    +0.000 NA
ATOM     27  C   UNL     1      45.477   4.547   8.340  0.00  0.00    +0.000 A 
BRANCH  25  28
ATOM     28  C   UNL     1      47.472   1.835   6.882  0.00  0.00    +0.000 C 
ATOM     29  N   UNL     1      48.543   2.577   6.464  0.00  0.00    +0.000 N 
ATOM     30  O   UNL     1      47.350   0.652   6.576  0.00  0.00    +0.000 OA
ATOM     31  H   UNL     1      48.601   3.553   6.729  0.00  0.00    +0.000 HD
ATOM     32  H   UNL     1      49.246   2.153   5.879  0.00  0.00    +0.000 HD
ENDBRANCH  25  28
ENDBRANCH  20  22
ENDBRANCH  19  20
ENDBRANCH  18  19
ENDBRANCH   3  18
TORSDOF 8
ENDMDL
MODEL 5
REMARK VINA RESULT:    -7.564      3.427      4.371
REMARK INTER + INTRA:         -12.239
REMARK INTER:                 -11.307
REMARK INTRA:                  -0.932
REMARK UNBOUND:                -1.138
REMARK  Name = 
REMARK  10 active torsions:
REMARK  status: ('A' for Active; 'I' for Inactive)
REMARK    1  A    between atoms: C_1  and  C_2
REMARK    2  A    between atoms: C_2  and  C_3
REMARK    3  A    between atoms: C_5  and  N_6
REMARK    4  A    between atoms: N_6  and  C_7
REMARK    5  A    between atoms: C_9  and  C_10
REMARK    6  A    between atoms: C_10  and  C_11
REMARK    7  A    between atoms: C_11  and  N_12
REMARK    8  A    between atoms: N_12  and  C_13
REMARK    9  A    between atoms: C_16  and  C_17
REMARK   10  A    between atoms: C_23  and  C_24
REMARK                            x       y       z     vdW  Elec       q    Type
REMARK                         _______ _______ _______ _____ _____    ______ ____
ROOT
ATOM      1  C   UNL     1      46.209   8.438  13.217  0.00  0.00    +0.000 A 
ATOM      2  C   UNL     1      46.137   7.069  12.931  0.00  0.00    +0.000 A 
ATOM      3  C   UNL     1      45.209   6.557  12.008  0.00  0.00    +0.000 A 
ATOM      4  C   UNL     1      44.394   7.450  11.302  0.00  0.00    +0.000 A 
ATOM      5  C   UNL     1      44.480   8.831  11.531  0.00  0.00    +0.000 A 
ATOM      6  C   UNL     1      45.386   9.309  12.495  0.00  0.00    +0.000 A 
ENDROOT
BRANCH   5   7
ATOM      7  C   UNL     1      43.622   9.805  10.761  0.00  0.00    +0.000 C 
ATOM      8  F   UNL     1      44.134  10.142   9.545  0.00  0.00    +0.000 F 
ATOM      9  F   UNL     1      42.374   9.316  10.515  0.00  0.00    +0.000 F 
ATOM     10  F   UNL     1      43.438  10.979  11.426  0.00  0.00    +0.000 F 
ENDBRANCH   5   7
BRANCH   1  11
ATOM     11  N   UNL     1      47.133   8.962  14.133  0.00  0.00    +0.000 N 
ATOM     12  H   UNL     1      46.744   9.400  14.960  0.00  0.00    +0.000 HD
BRANCH  11  17
ATOM     13  C   UNL     1      48.425  11.463  12.959  0.00  0.00    +0.000 C 
ATOM     14  C   UNL     1      49.248  10.250  13.305  0.00  0.00    +0.000 C 
ATOM     15  C   UNL     1      50.617  10.561  13.854  0.00  0.00    +0.000 C 
ATOM     16  C   UNL     1      49.073   9.015  12.453  0.00  0.00    +0.000 C 
ATOM     17  C   UNL     1      48.564   9.022  13.867  0.00  0.00    +0.000 C 
ENDBRANCH  11  17
ENDBRANCH   1  11
BRANCH   3  18
ATOM     18  C   UNL     1      45.058   5.062  11.818  0.00  0.00    +0.000 C 
BRANCH  18  19
ATOM     19  C   UNL     1      43.680   4.718  11.236  0.00  0.00    +0.000 C 
BRANCH  19  20
ATOM     20  N   UNL     1      43.668   4.834   9.773  0.00  0.00    +0.000 N 
ATOM     21  H   UNL     1      43.735   5.801   9.460  0.00  0.00    +0.000 HD
BRANCH  20  22
ATOM     22  C   UNL     1      44.563   4.004   9.070  0.00  0.00    +0.000 A 
ATOM     23  C   UNL     1      45.563   4.499   8.225  0.00  0.00    +0.000 A 
ATOM     24  C   UNL     1      46.459   3.636   7.600  0.00  0.00    +0.000 A 
ATOM     25  C   UNL     1      46.363   2.283   7.862  0.00  0.00    +0.000 A 
ATOM     26  N   UNL     1      45.444   1.741   8.709  0.00  0.00    +0.000 NA
ATOM     27  C   UNL     1      44.594   2.622   9.299  0.00  0.00    +0.000 A 
BRANCH  25  28
ATOM     28  C   UNL     1      47.315   1.339   7.200  0.00  0.00    +0.000 C 
ATOM     29  N   UNL     1      48.335   1.923   6.500  0.00  0.00    +0.000 N 
ATOM     30  O   UNL     1      47.199   0.118   7.270  0.00  0.00    +0.000 OA
ATOM     31  H   UNL     1      48.390   2.933   6.458  0.00  0.00    +0.000 HD
ATOM     32  H   UNL     1      49.004   1.344   6.016  0.00  0.00    +0.000 HD
ENDBRANCH  25  28
ENDBRANCH  20  22
ENDBRANCH  19  20
ENDBRANCH  18  19
ENDBRANCH   3  18
TORSDOF 8
ENDMDL
MODEL 6
REMARK VINA RESULT:    -7.386      3.266      4.191
REMARK INTER + INTRA:         -11.979
REMARK INTER:                 -10.866
REMARK INTRA:                  -1.112
REMARK UNBOUND:                -1.138
REMARK  Name = 
REMARK  10 active torsions:
REMARK  status: ('A' for Active; 'I' for Inactive)
REMARK    1  A    between atoms: C_1  and  C_2
REMARK    2  A    between atoms: C_2  and  C_3
REMARK    3  A    between atoms: C_5  and  N_6
REMARK    4  A    between atoms: N_6  and  C_7
REMARK    5  A    between atoms: C_9  and  C_10
REMARK    6  A    between atoms: C_10  and  C_11
REMARK    7  A    between atoms: C_11  and  N_12
REMARK    8  A    between atoms: N_12  and  C_13
REMARK    9  A    between atoms: C_16  and  C_17
REMARK   10  A    between atoms: C_23  and  C_24
REMARK                            x       y       z     vdW  Elec       q    Type
REMARK                         _______ _______ _______ _____ _____    ______ ____
ROOT
ATOM      1  C   UNL     1      46.773   7.054  12.385  0.00  0.00    +0.000 A 
ATOM      2  C   UNL     1      46.090   5.852  12.605  0.00  0.00    +0.000 A 
ATOM      3  C   UNL     1      44.701   5.749  12.414  0.00  0.00    +0.000 A 
ATOM      4  C   UNL     1      44.002   6.855  11.916  0.00  0.00    +0.000 A 
ATOM      5  C   UNL     1      44.671   8.056  11.637  0.00  0.00    +0.000 A 
ATOM      6  C   UNL     1      46.052   8.143  11.884  0.00  0.00    +0.000 A 
ENDROOT
BRANCH   5   7
ATOM      7  C   UNL     1      43.932   9.249  11.080  0.00  0.00    +0.000 C 
ATOM      8  F   UNL     1      44.513   9.780   9.968  0.00  0.00    +0.000 F 
ATOM      9  F   UNL     1      42.653   8.947  10.722  0.00  0.00    +0.000 F 
ATOM     10  F   UNL     1      43.839  10.271  11.975  0.00  0.00    +0.000 F 
ENDBRANCH   5   7
BRANCH   1  11
ATOM     11  N   UNL     1      48.159   7.169  12.568  0.00  0.00    +0.000 N 
ATOM     12  H   UNL     1      48.509   6.939  13.492  0.00  0.00    +0.000 HD
BRANCH  11  17
ATOM     13  C   UNL     1      50.914   8.253  13.302  0.00  0.00    +0.000 C 
ATOM     14  C   UNL     1      50.430   8.255  11.876  0.00  0.00    +0.000 C 
ATOM     15  C   UNL     1      51.503   7.977  10.853  0.00  0.00    +0.000 C 
ATOM     16  C   UNL     1      49.313   9.204  11.513  0.00  0.00    +0.000 C 
ATOM     17  C   UNL     1      49.048   7.725  11.558  0.00  0.00    +0.000 C 
ENDBRANCH  11  17
ENDBRANCH   1  11
BRANCH   3  18
ATOM     18  C   UNL     1      43.965   4.479  12.789  0.00  0.00    +0.000 C 
BRANCH  18  19
ATOM     19  C   UNL     1      44.422   3.301  11.917  0.00  0.00    +0.000 C 
BRANCH  19  20
ATOM     20  N   UNL     1      43.888   3.401  10.554  0.00  0.00    +0.000 N 
ATOM     21  H   UNL     1      43.346   4.252  10.411  0.00  0.00    +0.000 HD
BRANCH  20  22
ATOM     22  C   UNL     1      44.803   3.193   9.505  0.00  0.00    +0.000 A 
ATOM     23  C   UNL     1      45.232   1.922   9.102  0.00  0.00    +0.000 A 
ATOM     24  C   UNL     1      46.093   1.770   8.019  0.00  0.00    +0.000 A 
ATOM     25  C   UNL     1      46.487   2.899   7.326  0.00  0.00    +0.000 A 
ATOM     26  N   UNL     1      46.071   4.158   7.637  0.00  0.00    +0.000 NA
ATOM     27  C   UNL     1      45.228   4.257   8.698  0.00  0.00    +0.000 A 
BRANCH  25  28
ATOM     28  C   UNL     1      47.413   2.758   6.161  0.00  0.00    +0.000 C 
ATOM     29  N   UNL     1      48.715   2.473   6.473  0.00  0.00    +0.000 N 
ATOM     30  O   UNL     1      47.044   2.888   4.997  0.00  0.00    +0.000 OA
ATOM     31  H   UNL     1      48.982   2.383   7.446  0.00  0.00    +0.000 HD
ATOM     32  H   UNL     1      49.396   2.379   5.736  0.00  0.00    +0.000 HD
ENDBRANCH  25  28
ENDBRANCH  20  22
ENDBRANCH  19  20
ENDBRANCH  18  19
ENDBRANCH   3  18
TORSDOF 8
ENDMDL
MODEL 7
REMARK VINA RESULT:    -6.936      1.908      2.524
REMARK INTER + INTRA:         -11.319
REMARK INTER:                 -10.231
REMARK INTRA:                  -1.088
REMARK UNBOUND:                -1.138
REMARK  Name = 
REMARK  10 active torsions:
REMARK  status: ('A' for Active; 'I' for Inactive)
REMARK    1  A    between atoms: C_1  and  C_2
REMARK    2  A    between atoms: C_2  and  C_3
REMARK    3  A    between atoms: C_5  and  N_6
REMARK    4  A    between atoms: N_6  and  C_7
REMARK    5  A    between atoms: C_9  and  C_10
REMARK    6  A    between atoms: C_10  and  C_11
REMARK    7  A    between atoms: C_11  and  N_12
REMARK    8  A    between atoms: N_12  and  C_13
REMARK    9  A    between atoms: C_16  and  C_17
REMARK   10  A    between atoms: C_23  and  C_24
REMARK                            x       y       z     vdW  Elec       q    Type
REMARK                         _______ _______ _______ _____ _____    ______ ____
ROOT
ATOM      1  C   UNL     1      48.177   5.903  14.950  0.00  0.00    +0.000 A 
ATOM      2  C   UNL     1      47.128   5.083  14.520  0.00  0.00    +0.000 A 
ATOM      3  C   UNL     1      46.398   5.372  13.353  0.00  0.00    +0.000 A 
ATOM      4  C   UNL     1      46.785   6.463  12.566  0.00  0.00    +0.000 A 
ATOM      5  C   UNL     1      47.866   7.272  12.947  0.00  0.00    +0.000 A 
ATOM      6  C   UNL     1      48.546   6.985  14.144  0.00  0.00    +0.000 A 
ENDROOT
BRANCH   5   7
ATOM      7  C   UNL     1      48.306   8.438  12.096  0.00  0.00    +0.000 C 
ATOM      8  F   UNL     1      47.271   9.156  11.576  0.00  0.00    +0.000 F 
ATOM      9  F   UNL     1      49.065   9.331  12.790  0.00  0.00    +0.000 F 
ATOM     10  F   UNL     1      49.063   8.052  11.031  0.00  0.00    +0.000 F 
ENDBRANCH   5   7
BRANCH   1  11
ATOM     11  N   UNL     1      48.916   5.623  16.110  0.00  0.00    +0.000 N 
ATOM     12  H   UNL     1      49.821   5.188  15.970  0.00  0.00    +0.000 HD
BRANCH  11  17
ATOM     13  C   UNL     1      49.505   8.132  17.742  0.00  0.00    +0.000 C 
ATOM     14  C   UNL     1      48.629   7.035  18.288  0.00  0.00    +0.000 C 
ATOM     15  C   UNL     1      47.474   7.518  19.128  0.00  0.00    +0.000 C 
ATOM     16  C   UNL     1      49.286   5.723  18.648  0.00  0.00    +0.000 C 
ATOM     17  C   UNL     1      48.378   5.797  17.452  0.00  0.00    +0.000 C 
ENDBRANCH  11  17
ENDBRANCH   1  11
BRANCH   3  18
ATOM     18  C   UNL     1      45.183   4.548  12.983  0.00  0.00    +0.000 C 
BRANCH  18  19
ATOM     19  C   UNL     1      44.543   5.065  11.686  0.00  0.00    +0.000 C 
BRANCH  19  20
ATOM     20  N   UNL     1      44.077   3.961  10.838  0.00  0.00    +0.000 N 
ATOM     21  H   UNL     1      43.112   4.086  10.535  0.00  0.00    +0.000 HD
BRANCH  20  22
ATOM     22  C   UNL     1      44.910   3.600   9.764  0.00  0.00    +0.000 A 
ATOM     23  C   UNL     1      45.185   2.270   9.420  0.00  0.00    +0.000 A 
ATOM     24  C   UNL     1      45.970   1.968   8.310  0.00  0.00    +0.000 A 
ATOM     25  C   UNL     1      46.441   3.009   7.533  0.00  0.00    +0.000 A 
ATOM     26  N   UNL     1      46.173   4.321   7.785  0.00  0.00    +0.000 NA
ATOM     27  C   UNL     1      45.400   4.567   8.875  0.00  0.00    +0.000 A 
BRANCH  25  28
ATOM     28  C   UNL     1      47.287   2.707   6.338  0.00  0.00    +0.000 C 
ATOM     29  N   UNL     1      48.418   1.977   6.585  0.00  0.00    +0.000 N 
ATOM     30  O   UNL     1      46.999   3.084   5.205  0.00  0.00    +0.000 OA
ATOM     31  H   UNL     1      48.626   1.694   7.535  0.00  0.00    +0.000 HD
ATOM     32  H   UNL     1      49.042   1.751   5.826  0.00  0.00    +0.000 HD
ENDBRANCH  25  28
ENDBRANCH  20  22
ENDBRANCH  19  20
ENDBRANCH  18  19
ENDBRANCH   3  18
TORSDOF 8
ENDMDL
MODEL 8
REMARK VINA RESULT:    -6.934      3.236      7.899
REMARK INTER + INTRA:         -11.316
REMARK INTER:                 -10.372
REMARK INTRA:                  -0.943
REMARK UNBOUND:                -1.138
REMARK  Name = 
REMARK  10 active torsions:
REMARK  status: ('A' for Active; 'I' for Inactive)
REMARK    1  A    between atoms: C_1  and  C_2
REMARK    2  A    between atoms: C_2  and  C_3
REMARK    3  A    between atoms: C_5  and  N_6
REMARK    4  A    between atoms: N_6  and  C_7
REMARK    5  A    between atoms: C_9  and  C_10
REMARK    6  A    between atoms: C_10  and  C_11
REMARK    7  A    between atoms: C_11  and  N_12
REMARK    8  A    between atoms: N_12  and  C_13
REMARK    9  A    between atoms: C_16  and  C_17
REMARK   10  A    between atoms: C_23  and  C_24
REMARK                            x       y       z     vdW  Elec       q    Type
REMARK                         _______ _______ _______ _____ _____    ______ ____
ROOT
ATOM      1  C   UNL     1      45.460   5.388  10.754  0.00  0.00    +0.000 A 
ATOM      2  C   UNL     1      45.766   4.445  11.743  0.00  0.00    +0.000 A 
ATOM      3  C   UNL     1      46.267   4.832  12.999  0.00  0.00    +0.000 A 
ATOM      4  C   UNL     1      46.385   6.196  13.290  0.00  0.00    +0.000 A 
ATOM      5  C   UNL     1      46.037   7.163  12.335  0.00  0.00    +0.000 A 
ATOM      6  C   UNL     1      45.584   6.745  11.071  0.00  0.00    +0.000 A 
ENDROOT
BRANCH   5   7
ATOM      7  C   UNL     1      46.141   8.637  12.644  0.00  0.00    +0.000 C 
ATOM      8  F   UNL     1      47.131   9.271  11.955  0.00  0.00    +0.000 F 
ATOM      9  F   UNL     1      44.995   9.312  12.350  0.00  0.00    +0.000 F 
ATOM     10  F   UNL     1      46.390   8.879  13.961  0.00  0.00    +0.000 F 
ENDBRANCH   5   7
BRANCH   1  11
ATOM     11  N   UNL     1      44.956   5.015   9.499  0.00  0.00    +0.000 N 
ATOM     12  H   UNL     1      44.542   5.757   8.945  0.00  0.00    +0.000 HD
BRANCH  11  17
ATOM     13  C   UNL     1      46.824   3.941   7.340  0.00  0.00    +0.000 C 
ATOM     14  C   UNL     1      45.804   3.052   8.001  0.00  0.00    +0.000 C 
ATOM     15  C   UNL     1      46.263   1.633   8.223  0.00  0.00    +0.000 C 
ATOM     16  C   UNL     1      44.347   3.300   7.689  0.00  0.00    +0.000 C 
ATOM     17  C   UNL     1      44.883   3.630   9.054  0.00  0.00    +0.000 C 
ENDBRANCH  11  17
ENDBRANCH   1  11
BRANCH   3  18
ATOM     18  C   UNL     1      46.717   3.790  14.001  0.00  0.00    +0.000 C 
BRANCH  18  19
ATOM     19  C   UNL     1      47.037   4.433  15.358  0.00  0.00    +0.000 C 
BRANCH  19  20
ATOM     20  N   UNL     1      47.258   3.419  16.396  0.00  0.00    +0.000 N 
ATOM     21  H   UNL     1      46.859   2.516  16.147  0.00  0.00    +0.000 HD
BRANCH  20  22
ATOM     22  C   UNL     1      48.576   3.285  16.871  0.00  0.00    +0.000 A 
ATOM     23  C   UNL     1      49.301   2.089  16.791  0.00  0.00    +0.000 A 
ATOM     24  C   UNL     1      50.623   2.027  17.223  0.00  0.00    +0.000 A 
ATOM     25  C   UNL     1      51.217   3.181  17.697  0.00  0.00    +0.000 A 
ATOM     26  N   UNL     1      50.584   4.385  17.758  0.00  0.00    +0.000 NA
ATOM     27  C   UNL     1      49.297   4.399  17.322  0.00  0.00    +0.000 A 
BRANCH  25  28
ATOM     28  C   UNL     1      52.635   3.135  18.167  0.00  0.00    +0.000 C 
ATOM     29  N   UNL     1      53.062   1.924  18.641  0.00  0.00    +0.000 N 
ATOM     30  O   UNL     1      53.379   4.113  18.139  0.00  0.00    +0.000 OA
ATOM     31  H   UNL     1      52.416   1.145  18.657  0.00  0.00    +0.000 HD
ATOM     32  H   UNL     1      54.004   1.827  18.988  0.00  0.00    +0.000 HD
ENDBRANCH  25  28
ENDBRANCH  20  22
ENDBRANCH  19  20
ENDBRANCH  18  19
ENDBRANCH   3  18
TORSDOF 8
ENDMDL
MODEL 9
REMARK VINA RESULT:    -6.932      2.181      2.721
REMARK INTER + INTRA:         -11.312
REMARK INTER:                 -10.593
REMARK INTRA:                  -0.719
REMARK UNBOUND:                -1.138
REMARK  Name = 
REMARK  10 active torsions:
REMARK  status: ('A' for Active; 'I' for Inactive)
REMARK    1  A    between atoms: C_1  and  C_2
REMARK    2  A    between atoms: C_2  and  C_3
REMARK    3  A    between atoms: C_5  and  N_6
REMARK    4  A    between atoms: N_6  and  C_7
REMARK    5  A    between atoms: C_9  and  C_10
REMARK    6  A    between atoms: C_10  and  C_11
REMARK    7  A    between atoms: C_11  and  N_12
REMARK    8  A    between atoms: N_12  and  C_13
REMARK    9  A    between atoms: C_16  and  C_17
REMARK   10  A    between atoms: C_23  and  C_24
REMARK                            x       y       z     vdW  Elec       q    Type
REMARK                         _______ _______ _______ _____ _____    ______ ____
ROOT
ATOM      1  C   UNL     1      47.416   6.229  14.099  0.00  0.00    +0.000 A 
ATOM      2  C   UNL     1      47.015   5.012  13.536  0.00  0.00    +0.000 A 
ATOM      3  C   UNL     1      46.036   4.954  12.528  0.00  0.00    +0.000 A 
ATOM      4  C   UNL     1      45.512   6.150  12.024  0.00  0.00    +0.000 A 
ATOM      5  C   UNL     1      45.935   7.387  12.534  0.00  0.00    +0.000 A 
ATOM      6  C   UNL     1      46.880   7.411  13.575  0.00  0.00    +0.000 A 
ENDROOT
BRANCH   5   7
ATOM      7  C   UNL     1      45.393   8.684  11.984  0.00  0.00    +0.000 C 
ATOM      8  F   UNL     1      44.479   8.516  10.989  0.00  0.00    +0.000 F 
ATOM      9  F   UNL     1      44.770   9.432  12.937  0.00  0.00    +0.000 F 
ATOM     10  F   UNL     1      46.368   9.479  11.463  0.00  0.00    +0.000 F 
ENDBRANCH   5   7
BRANCH   1  11
ATOM     11  N   UNL     1      48.394   6.301  15.103  0.00  0.00    +0.000 N 
ATOM     12  H   UNL     1      48.514   5.469  15.671  0.00  0.00    +0.000 HD
BRANCH  11  17
ATOM     13  C   UNL     1      50.082   6.531  17.633  0.00  0.00    +0.000 C 
ATOM     14  C   UNL     1      49.967   7.680  16.665  0.00  0.00    +0.000 C 
ATOM     15  C   UNL     1      51.230   8.486  16.501  0.00  0.00    +0.000 C 
ATOM     16  C   UNL     1      48.638   8.391  16.572  0.00  0.00    +0.000 C 
ATOM     17  C   UNL     1      49.103   7.530  15.431  0.00  0.00    +0.000 C 
ENDBRANCH  11  17
ENDBRANCH   1  11
BRANCH   3  18
ATOM     18  C   UNL     1      45.521   3.619  12.032  0.00  0.00    +0.000 C 
BRANCH  18  19
ATOM     19  C   UNL     1      43.988   3.615  11.956  0.00  0.00    +0.000 C 
BRANCH  19  20
ATOM     20  N   UNL     1      43.517   3.729  10.571  0.00  0.00    +0.000 N 
ATOM     21  H   UNL     1      43.056   4.619  10.390  0.00  0.00    +0.000 HD
BRANCH  20  22
ATOM     22  C   UNL     1      44.450   3.419   9.563  0.00  0.00    +0.000 A 
ATOM     23  C   UNL     1      45.124   4.394   8.818  0.00  0.00    +0.000 A 
ATOM     24  C   UNL     1      46.081   4.033   7.873  0.00  0.00    +0.000 A 
ATOM     25  C   UNL     1      46.378   2.693   7.714  0.00  0.00    +0.000 A 
ATOM     26  N   UNL     1      45.793   1.699   8.439  0.00  0.00    +0.000 NA
ATOM     27  C   UNL     1      44.869   2.099   9.351  0.00  0.00    +0.000 A 
BRANCH  25  28
ATOM     28  C   UNL     1      47.401   2.284   6.704  0.00  0.00    +0.000 C 
ATOM     29  N   UNL     1      47.392   2.993   5.533  0.00  0.00    +0.000 N 
ATOM     30  O   UNL     1      48.202   1.373   6.897  0.00  0.00    +0.000 OA
ATOM     31  H   UNL     1      46.709   3.730   5.408  0.00  0.00    +0.000 HD
ATOM     32  H   UNL     1      48.046   2.759   4.802  0.00  0.00    +0.000 HD
ENDBRANCH  25  28
ENDBRANCH  20  22
ENDBRANCH  19  20
ENDBRANCH  18  19
ENDBRANCH   3  18
TORSDOF 8
ENDMDL
